MODEL 1
REMARK VINA RESULT:      -8.5      0.000      0.000
REMARK  Name = 
REMARK  5 active torsions:
REMARK  status: ('A' for Active; 'I' for Inactive)
REMARK    1  A    between atoms: C_2  and  C_3
REMARK    2  A    between atoms: C_3  and  C_4
REMARK    3  A    between atoms: C_3  and  C_10
REMARK    4  A    between atoms: N_15  and  C_16
REMARK    5  A    between atoms: C_16  and  C_17
REMARK                            x       y       z     vdW  Elec       q    Type
REMARK                         _______ _______ _______ _____ _____    ______ ____
ROOT
ATOM      1  C   UNL     1       2.383   7.254  18.808  0.00  0.00    +0.000 A 
ATOM      2  C   UNL     1       2.148   6.969  20.094  0.00  0.00    +0.000 A 
ATOM      3 CL   UNL     1       2.599   5.528  20.906  0.00  0.00    +0.000 Cl
ATOM      4  C   UNL     1       1.367   7.943  20.876  0.00  0.00    +0.000 A 
ATOM      5  N   UNL     1       0.797   9.001  20.399  0.00  0.00    +0.000 NA
ATOM      6  N   UNL     1       1.033   9.277  19.065  0.00  0.00    +0.000 N 
ATOM      7  C   UNL     1       2.006   8.611  18.332  0.00  0.00    +0.000 A 
ATOM      8  O   UNL     1       2.532   9.046  17.311  0.00  0.00    +0.000 OA
ENDROOT
BRANCH   1   9
ATOM      9  C   UNL     1       2.927   6.375  17.711  0.00  0.00    +0.000 C 
BRANCH   9  10
ATOM     10  C   UNL     1       2.726   4.857  17.929  0.00  0.00    +0.000 A 
ATOM     11  C   UNL     1       3.812   3.966  18.085  0.00  0.00    +0.000 A 
ATOM     12  C   UNL     1       3.611   2.600  18.284  0.00  0.00    +0.000 A 
ATOM     13  C   UNL     1       2.319   2.089  18.328  0.00  0.00    +0.000 A 
ATOM     14  C   UNL     1       1.232   2.946  18.152  0.00  0.00    +0.000 A 
ATOM     15  C   UNL     1       1.431   4.312  17.949  0.00  0.00    +0.000 A 
ENDBRANCH   9  10
BRANCH   9  17
ATOM     16  N   UNL     1       5.600   6.951  17.199  0.00  0.00    +0.000 NA
ATOM     17  C   UNL     1       4.388   6.690  17.431  0.00  0.00    +0.000 C 
ENDBRANCH   9  17
ENDBRANCH   1   9
BRANCH   6  18
ATOM     18  C   UNL     1       0.502  10.544  18.561  0.00  0.00    +0.000 C 
BRANCH  18  19
ATOM     19  C   UNL     1      -0.999  10.536  18.315  0.00  0.00    +0.000 A 
ATOM     20  C   UNL     1      -1.481   9.790  17.220  0.00  0.00    +0.000 A 
ATOM     21  C   UNL     1      -2.822   9.825  16.856  0.00  0.00    +0.000 A 
ATOM     22  C   UNL     1      -3.703  10.641  17.554  0.00  0.00    +0.000 A 
ATOM     23  C   UNL     1      -3.264  11.397  18.649  0.00  0.00    +0.000 A 
ATOM     24  C   UNL     1      -4.165  12.253  19.305  0.00  0.00    +0.000 A 
ATOM     25  C   UNL     1      -3.768  12.996  20.413  0.00  0.00    +0.000 A 
ATOM     26  C   UNL     1      -2.475  12.863  20.902  0.00  0.00    +0.000 A 
ATOM     27  C   UNL     1      -1.560  12.031  20.248  0.00  0.00    +0.000 A 
ATOM     28  C   UNL     1      -1.914  11.311  19.083  0.00  0.00    +0.000 A 
ENDBRANCH  18  19
ENDBRANCH   6  18
TORSDOF 5
ENDMDL
MODEL 2
REMARK VINA RESULT:      -8.3      0.424      1.002
REMARK  Name = 
REMARK  5 active torsions:
REMARK  status: ('A' for Active; 'I' for Inactive)
REMARK    1  A    between atoms: C_2  and  C_3
REMARK    2  A    between atoms: C_3  and  C_4
REMARK    3  A    between atoms: C_3  and  C_10
REMARK    4  A    between atoms: N_15  and  C_16
REMARK    5  A    between atoms: C_16  and  C_17
REMARK                            x       y       z     vdW  Elec       q    Type
REMARK                         _______ _______ _______ _____ _____    ______ ____
ROOT
ATOM      1  C   UNL     1       2.469   6.932  18.905  0.00  0.00    +0.000 A 
ATOM      2  C   UNL     1       2.206   6.700  20.196  0.00  0.00    +0.000 A 
ATOM      3 CL   UNL     1       2.564   5.261  21.055  0.00  0.00    +0.000 Cl
ATOM      4  C   UNL     1       1.475   7.740  20.939  0.00  0.00    +0.000 A 
ATOM      5  N   UNL     1       0.972   8.815  20.425  0.00  0.00    +0.000 NA
ATOM      6  N   UNL     1       1.237   9.036  19.086  0.00  0.00    +0.000 N 
ATOM      7  C   UNL     1       2.177   8.294  18.384  0.00  0.00    +0.000 A 
ATOM      8  O   UNL     1       2.737   8.666  17.357  0.00  0.00    +0.000 OA
ENDROOT
BRANCH   1   9
ATOM      9  C   UNL     1       2.973   5.991  17.841  0.00  0.00    +0.000 C 
BRANCH   9  10
ATOM     10  C   UNL     1       2.624   4.501  18.067  0.00  0.00    +0.000 A 
ATOM     11  C   UNL     1       1.294   4.053  18.230  0.00  0.00    +0.000 A 
ATOM     12  C   UNL     1       0.999   2.704  18.431  0.00  0.00    +0.000 A 
ATOM     13  C   UNL     1       2.026   1.770  18.477  0.00  0.00    +0.000 A 
ATOM     14  C   UNL     1       3.349   2.192  18.343  0.00  0.00    +0.000 A 
ATOM     15  C   UNL     1       3.648   3.541  18.147  0.00  0.00    +0.000 A 
ENDBRANCH   9  10
BRANCH   9  17
ATOM     16  N   UNL     1       5.705   6.310  17.431  0.00  0.00    +0.000 NA
ATOM     17  C   UNL     1       4.466   6.166  17.617  0.00  0.00    +0.000 C 
ENDBRANCH   9  17
ENDBRANCH   1   9
BRANCH   6  18
ATOM     18  C   UNL     1       0.785  10.316  18.539  0.00  0.00    +0.000 C 
BRANCH  18  19
ATOM     19  C   UNL     1      -0.723  10.424  18.372  0.00  0.00    +0.000 A 
ATOM     20  C   UNL     1      -1.317   9.721  17.304  0.00  0.00    +0.000 A 
ATOM     21  C   UNL     1      -2.669   9.860  17.011  0.00  0.00    +0.000 A 
ATOM     22  C   UNL     1      -3.447  10.739  17.753  0.00  0.00    +0.000 A 
ATOM     23  C   UNL     1      -2.895  11.456  18.823  0.00  0.00    +0.000 A 
ATOM     24  C   UNL     1      -3.691  12.376  19.524  0.00  0.00    +0.000 A 
ATOM     25  C   UNL     1      -3.182  13.083  20.610  0.00  0.00    +0.000 A 
ATOM     26  C   UNL     1      -1.879  12.849  21.030  0.00  0.00    +0.000 A 
ATOM     27  C   UNL     1      -1.066  11.952  20.330  0.00  0.00    +0.000 A 
ATOM     28  C   UNL     1      -1.534  11.265  19.185  0.00  0.00    +0.000 A 
ENDBRANCH  18  19
ENDBRANCH   6  18
TORSDOF 5
ENDMDL
MODEL 3
REMARK VINA RESULT:      -7.9      0.768      2.073
REMARK  Name = 
REMARK  5 active torsions:
REMARK  status: ('A' for Active; 'I' for Inactive)
REMARK    1  A    between atoms: C_2  and  C_3
REMARK    2  A    between atoms: C_3  and  C_4
REMARK    3  A    between atoms: C_3  and  C_10
REMARK    4  A    between atoms: N_15  and  C_16
REMARK    5  A    between atoms: C_16  and  C_17
REMARK                            x       y       z     vdW  Elec       q    Type
REMARK                         _______ _______ _______ _____ _____    ______ ____
ROOT
ATOM      1  C   UNL     1       2.582   6.833  18.854  0.00  0.00    +0.000 A 
ATOM      2  C   UNL     1       2.179   6.738  20.126  0.00  0.00    +0.000 A 
ATOM      3 CL   UNL     1       2.321   5.355  21.128  0.00  0.00    +0.000 Cl
ATOM      4  C   UNL     1       1.481   7.897  20.708  0.00  0.00    +0.000 A 
ATOM      5  N   UNL     1       1.129   8.961  20.062  0.00  0.00    +0.000 NA
ATOM      6  N   UNL     1       1.537   9.041  18.743  0.00  0.00    +0.000 N 
ATOM      7  C   UNL     1       2.466   8.163  18.200  0.00  0.00    +0.000 A 
ATOM      8  O   UNL     1       3.152   8.395  17.209  0.00  0.00    +0.000 OA
ENDROOT
BRANCH   1   9
ATOM      9  C   UNL     1       3.093   5.763  17.924  0.00  0.00    +0.000 C 
BRANCH   9  10
ATOM     10  C   UNL     1       2.648   4.323  18.276  0.00  0.00    +0.000 A 
ATOM     11  C   UNL     1       3.569   3.316  18.641  0.00  0.00    +0.000 A 
ATOM     12  C   UNL     1       3.148   2.024  18.957  0.00  0.00    +0.000 A 
ATOM     13  C   UNL     1       1.796   1.705  18.913  0.00  0.00    +0.000 A 
ATOM     14  C   UNL     1       0.871   2.677  18.533  0.00  0.00    +0.000 A 
ATOM     15  C   UNL     1       1.289   3.969  18.211  0.00  0.00    +0.000 A 
ENDBRANCH   9  10
BRANCH   9  17
ATOM     16  N   UNL     1       5.859   5.900  17.661  0.00  0.00    +0.000 NA
ATOM     17  C   UNL     1       4.604   5.838  17.780  0.00  0.00    +0.000 C 
ENDBRANCH   9  17
ENDBRANCH   1   9
BRANCH   6  18
ATOM     18  C   UNL     1       1.259  10.301  18.054  0.00  0.00    +0.000 C 
BRANCH  18  19
ATOM     19  C   UNL     1       0.102  11.092  18.646  0.00  0.00    +0.000 A 
ATOM     20  C   UNL     1       0.386  11.975  19.708  0.00  0.00    +0.000 A 
ATOM     21  C   UNL     1      -0.628  12.646  20.382  0.00  0.00    +0.000 A 
ATOM     22  C   UNL     1      -1.954  12.412  20.037  0.00  0.00    +0.000 A 
ATOM     23  C   UNL     1      -2.278  11.542  18.988  0.00  0.00    +0.000 A 
ATOM     24  C   UNL     1      -3.627  11.284  18.695  0.00  0.00    +0.000 A 
ATOM     25  C   UNL     1      -3.984  10.447  17.640  0.00  0.00    +0.000 A 
ATOM     26  C   UNL     1      -2.993   9.887  16.844  0.00  0.00    +0.000 A 
ATOM     27  C   UNL     1      -1.645  10.116  17.137  0.00  0.00    +0.000 A 
ATOM     28  C   UNL     1      -1.250  10.911  18.238  0.00  0.00    +0.000 A 
ENDBRANCH  18  19
ENDBRANCH   6  18
TORSDOF 5
ENDMDL
MODEL 4
REMARK VINA RESULT:      -7.8      2.442      8.228
REMARK  Name = 
REMARK  5 active torsions:
REMARK  status: ('A' for Active; 'I' for Inactive)
REMARK    1  A    between atoms: C_2  and  C_3
REMARK    2  A    between atoms: C_3  and  C_4
REMARK    3  A    between atoms: C_3  and  C_10
REMARK    4  A    between atoms: N_15  and  C_16
REMARK    5  A    between atoms: C_16  and  C_17
REMARK                            x       y       z     vdW  Elec       q    Type
REMARK                         _______ _______ _______ _____ _____    ______ ____
ROOT
ATOM      1  C   UNL     1       0.831   9.884  19.495  0.00  0.00    +0.000 A 
ATOM      2  C   UNL     1       0.769   9.377  20.731  0.00  0.00    +0.000 A 
ATOM      3 CL   UNL     1       0.059  10.132  22.096  0.00  0.00    +0.000 Cl
ATOM      4  C   UNL     1       1.435   8.085  20.971  0.00  0.00    +0.000 A 
ATOM      5  N   UNL     1       2.164   7.448  20.114  0.00  0.00    +0.000 NA
ATOM      6  N   UNL     1       2.234   7.990  18.844  0.00  0.00    +0.000 N 
ATOM      7  C   UNL     1       1.393   9.014  18.428  0.00  0.00    +0.000 A 
ATOM      8  O   UNL     1       1.125   9.267  17.257  0.00  0.00    +0.000 OA
ENDROOT
BRANCH   1   9
ATOM      9  C   UNL     1       0.470  11.261  19.000  0.00  0.00    +0.000 C 
BRANCH   9  10
ATOM     10  C   UNL     1       1.524  12.357  19.286  0.00  0.00    +0.000 A 
ATOM     11  C   UNL     1       1.681  12.939  20.564  0.00  0.00    +0.000 A 
ATOM     12  C   UNL     1       2.640  13.924  20.803  0.00  0.00    +0.000 A 
ATOM     13  C   UNL     1       3.464  14.354  19.770  0.00  0.00    +0.000 A 
ATOM     14  C   UNL     1       3.312  13.810  18.494  0.00  0.00    +0.000 A 
ATOM     15  C   UNL     1       2.350  12.828  18.251  0.00  0.00    +0.000 A 
ENDBRANCH   9  10
BRANCH   9  17
ATOM     16  N   UNL     1      -2.033  12.038  19.935  0.00  0.00    +0.000 NA
ATOM     17  C   UNL     1      -0.898  11.686  19.511  0.00  0.00    +0.000 C 
ENDBRANCH   9  17
ENDBRANCH   1   9
BRANCH   6  18
ATOM     18  C   UNL     1       2.946   7.199  17.840  0.00  0.00    +0.000 C 
BRANCH  18  19
ATOM     19  C   UNL     1       3.651   5.973  18.400  0.00  0.00    +0.000 A 
ATOM     20  C   UNL     1       5.016   6.094  18.730  0.00  0.00    +0.000 A 
ATOM     21  C   UNL     1       5.762   4.993  19.135  0.00  0.00    +0.000 A 
ATOM     22  C   UNL     1       5.169   3.738  19.176  0.00  0.00    +0.000 A 
ATOM     23  C   UNL     1       3.814   3.575  18.856  0.00  0.00    +0.000 A 
ATOM     24  C   UNL     1       3.253   2.287  18.856  0.00  0.00    +0.000 A 
ATOM     25  C   UNL     1       1.904   2.095  18.571  0.00  0.00    +0.000 A 
ATOM     26  C   UNL     1       1.092   3.193  18.319  0.00  0.00    +0.000 A 
ATOM     27  C   UNL     1       1.640   4.479  18.293  0.00  0.00    +0.000 A 
ATOM     28  C   UNL     1       3.019   4.702  18.518  0.00  0.00    +0.000 A 
ENDBRANCH  18  19
ENDBRANCH   6  18
TORSDOF 5
ENDMDL
MODEL 5
REMARK VINA RESULT:      -7.5      1.547      2.796
REMARK  Name = 
REMARK  5 active torsions:
REMARK  status: ('A' for Active; 'I' for Inactive)
REMARK    1  A    between atoms: C_2  and  C_3
REMARK    2  A    between atoms: C_3  and  C_4
REMARK    3  A    between atoms: C_3  and  C_10
REMARK    4  A    between atoms: N_15  and  C_16
REMARK    5  A    between atoms: C_16  and  C_17
REMARK                            x       y       z     vdW  Elec       q    Type
REMARK                         _______ _______ _______ _____ _____    ______ ____
ROOT
ATOM      1  C   UNL     1       2.406   7.304  18.744  0.00  0.00    +0.000 A 
ATOM      2  C   UNL     1       2.220   7.003  20.034  0.00  0.00    +0.000 A 
ATOM      3 CL   UNL     1       2.792   5.599  20.834  0.00  0.00    +0.000 Cl
ATOM      4  C   UNL     1       1.386   7.917  20.833  0.00  0.00    +0.000 A 
ATOM      5  N   UNL     1       0.730   8.930  20.370  0.00  0.00    +0.000 NA
ATOM      6  N   UNL     1       0.917   9.223  19.031  0.00  0.00    +0.000 N 
ATOM      7  C   UNL     1       1.921   8.630  18.277  0.00  0.00    +0.000 A 
ATOM      8  O   UNL     1       2.392   9.102  17.246  0.00  0.00    +0.000 OA
ENDROOT
BRANCH   1   9
ATOM      9  C   UNL     1       2.990   6.468  17.634  0.00  0.00    +0.000 C 
BRANCH   9  10
ATOM     10  C   UNL     1       2.761   4.944  17.774  0.00  0.00    +0.000 A 
ATOM     11  C   UNL     1       1.475   4.387  17.958  0.00  0.00    +0.000 A 
ATOM     12  C   UNL     1       1.289   3.010  18.079  0.00  0.00    +0.000 A 
ATOM     13  C   UNL     1       2.383   2.155  18.024  0.00  0.00    +0.000 A 
ATOM     14  C   UNL     1       3.664   2.683  17.866  0.00  0.00    +0.000 A 
ATOM     15  C   UNL     1       3.855   4.061  17.750  0.00  0.00    +0.000 A 
ENDBRANCH   9  10
BRANCH   9  17
ATOM     16  N   UNL     1       5.690   7.027  17.272  0.00  0.00    +0.000 NA
ATOM     17  C   UNL     1       4.465   6.774  17.436  0.00  0.00    +0.000 C 
ENDBRANCH   9  17
ENDBRANCH   1   9
BRANCH   6  18
ATOM     18  C   UNL     1       0.284  10.447  18.541  0.00  0.00    +0.000 C 
BRANCH  18  19
ATOM     19  C   UNL     1       0.706  11.706  19.285  0.00  0.00    +0.000 A 
ATOM     20  C   UNL     1       1.943  12.289  18.940  0.00  0.00    +0.000 A 
ATOM     21  C   UNL     1       2.456  13.369  19.650  0.00  0.00    +0.000 A 
ATOM     22  C   UNL     1       1.763  13.861  20.748  0.00  0.00    +0.000 A 
ATOM     23  C   UNL     1       0.530  13.310  21.123  0.00  0.00    +0.000 A 
ATOM     24  C   UNL     1      -0.124  13.794  22.268  0.00  0.00    +0.000 A 
ATOM     25  C   UNL     1      -1.364  13.288  22.651  0.00  0.00    +0.000 A 
ATOM     26  C   UNL     1      -1.980  12.318  21.871  0.00  0.00    +0.000 A 
ATOM     27  C   UNL     1      -1.332  11.811  20.741  0.00  0.00    +0.000 A 
ATOM     28  C   UNL     1      -0.045  12.259  20.360  0.00  0.00    +0.000 A 
ENDBRANCH  18  19
ENDBRANCH   6  18
TORSDOF 5
ENDMDL
MODEL 6
REMARK VINA RESULT:      -7.5      4.314      6.301
REMARK  Name = 
REMARK  5 active torsions:
REMARK  status: ('A' for Active; 'I' for Inactive)
REMARK    1  A    between atoms: C_2  and  C_3
REMARK    2  A    between atoms: C_3  and  C_4
REMARK    3  A    between atoms: C_3  and  C_10
REMARK    4  A    between atoms: N_15  and  C_16
REMARK    5  A    between atoms: C_16  and  C_17
REMARK                            x       y       z     vdW  Elec       q    Type
REMARK                         _______ _______ _______ _____ _____    ______ ____
ROOT
ATOM      1  C   UNL     1      -0.234  11.104  20.679  0.00  0.00    +0.000 A 
ATOM      2  C   UNL     1      -0.027   9.988  21.387  0.00  0.00    +0.000 A 
ATOM      3 CL   UNL     1       0.599   8.512  20.781  0.00  0.00    +0.000 Cl
ATOM      4  C   UNL     1      -0.442   9.991  22.800  0.00  0.00    +0.000 A 
ATOM      5  N   UNL     1      -1.085  10.946  23.389  0.00  0.00    +0.000 NA
ATOM      6  N   UNL     1      -1.308  12.089  22.643  0.00  0.00    +0.000 N 
ATOM      7  C   UNL     1      -0.681  12.310  21.424  0.00  0.00    +0.000 A 
ATOM      8  O   UNL     1      -0.515  13.415  20.913  0.00  0.00    +0.000 OA
ENDROOT
BRANCH   1   9
ATOM      9  C   UNL     1      -0.145  11.331  19.191  0.00  0.00    +0.000 C 
BRANCH   9  10
ATOM     10  C   UNL     1      -1.436  11.006  18.402  0.00  0.00    +0.000 A 
ATOM     11  C   UNL     1      -1.479  10.010  17.401  0.00  0.00    +0.000 A 
ATOM     12  C   UNL     1      -2.654   9.730  16.702  0.00  0.00    +0.000 A 
ATOM     13  C   UNL     1      -3.814  10.442  16.983  0.00  0.00    +0.000 A 
ATOM     14  C   UNL     1      -3.789  11.446  17.951  0.00  0.00    +0.000 A 
ATOM     15  C   UNL     1      -2.614  11.732  18.648  0.00  0.00    +0.000 A 
ENDBRANCH   9  10
BRANCH   9  17
ATOM     16  N   UNL     1       2.036   9.993  18.101  0.00  0.00    +0.000 NA
ATOM     17  C   UNL     1       1.047  10.600  18.596  0.00  0.00    +0.000 C 
ENDBRANCH   9  17
ENDBRANCH   1   9
BRANCH   6  18
ATOM     18  C   UNL     1      -1.913  13.217  23.350  0.00  0.00    +0.000 C 
BRANCH  18  19
ATOM     19  C   UNL     1      -3.425  13.125  23.490  0.00  0.00    +0.000 A 
ATOM     20  C   UNL     1      -3.942  12.579  24.682  0.00  0.00    +0.000 A 
ATOM     21  C   UNL     1      -5.305  12.351  24.841  0.00  0.00    +0.000 A 
ATOM     22  C   UNL     1      -6.174  12.624  23.793  0.00  0.00    +0.000 A 
ATOM     23  C   UNL     1      -5.700  13.169  22.592  0.00  0.00    +0.000 A 
ATOM     24  C   UNL     1      -6.594  13.388  21.531  0.00  0.00    +0.000 A 
ATOM     25  C   UNL     1      -6.160  13.954  20.335  0.00  0.00    +0.000 A 
ATOM     26  C   UNL     1      -4.833  14.342  20.201  0.00  0.00    +0.000 A 
ATOM     27  C   UNL     1      -3.927  14.111  21.240  0.00  0.00    +0.000 A 
ATOM     28  C   UNL     1      -4.322  13.482  22.443  0.00  0.00    +0.000 A 
ENDBRANCH  18  19
ENDBRANCH   6  18
TORSDOF 5
ENDMDL
MODEL 7
REMARK VINA RESULT:      -7.4      2.638      8.655
REMARK  Name = 
REMARK  5 active torsions:
REMARK  status: ('A' for Active; 'I' for Inactive)
REMARK    1  A    between atoms: C_2  and  C_3
REMARK    2  A    between atoms: C_3  and  C_4
REMARK    3  A    between atoms: C_3  and  C_10
REMARK    4  A    between atoms: N_15  and  C_16
REMARK    5  A    between atoms: C_16  and  C_17
REMARK                            x       y       z     vdW  Elec       q    Type
REMARK                         _______ _______ _______ _____ _____    ______ ____
ROOT
ATOM      1  C   UNL     1       1.582   8.738  19.411  0.00  0.00    +0.000 A 
ATOM      2  C   UNL     1       2.140   9.557  18.512  0.00  0.00    +0.000 A 
ATOM      3 CL   UNL     1       1.815  11.230  18.335  0.00  0.00    +0.000 Cl
ATOM      4  C   UNL     1       3.063   8.963  17.530  0.00  0.00    +0.000 A 
ATOM      5  N   UNL     1       3.301   7.699  17.396  0.00  0.00    +0.000 NA
ATOM      6  N   UNL     1       2.706   6.860  18.321  0.00  0.00    +0.000 N 
ATOM      7  C   UNL     1       2.089   7.341  19.467  0.00  0.00    +0.000 A 
ATOM      8  O   UNL     1       1.901   6.685  20.488  0.00  0.00    +0.000 OA
ENDROOT
BRANCH   1   9
ATOM      9  C   UNL     1       0.443   8.989  20.366  0.00  0.00    +0.000 C 
BRANCH   9  10
ATOM     10  C   UNL     1      -0.592  10.035  19.888  0.00  0.00    +0.000 A 
ATOM     11  C   UNL     1      -1.329   9.877  18.693  0.00  0.00    +0.000 A 
ATOM     12  C   UNL     1      -2.261  10.831  18.281  0.00  0.00    +0.000 A 
ATOM     13  C   UNL     1      -2.476  11.967  19.051  0.00  0.00    +0.000 A 
ATOM     14  C   UNL     1      -1.743  12.156  20.222  0.00  0.00    +0.000 A 
ATOM     15  C   UNL     1      -0.807  11.207  20.635  0.00  0.00    +0.000 A 
ENDBRANCH   9  10
BRANCH   9  17
ATOM     16  N   UNL     1       1.385   9.625  22.904  0.00  0.00    +0.000 NA
ATOM     17  C   UNL     1       0.958   9.336  21.753  0.00  0.00    +0.000 C 
ENDBRANCH   9  17
ENDBRANCH   1   9
BRANCH   6  18
ATOM     18  C   UNL     1       3.084   5.448  18.252  0.00  0.00    +0.000 C 
BRANCH  18  19
ATOM     19  C   UNL     1       4.585   5.209  18.189  0.00  0.00    +0.000 A 
ATOM     20  C   UNL     1       5.335   5.427  19.363  0.00  0.00    +0.000 A 
ATOM     21  C   UNL     1       6.723   5.345  19.360  0.00  0.00    +0.000 A 
ATOM     22  C   UNL     1       7.394   5.086  18.172  0.00  0.00    +0.000 A 
ATOM     23  C   UNL     1       6.685   4.862  16.984  0.00  0.00    +0.000 A 
ATOM     24  C   UNL     1       7.390   4.653  15.787  0.00  0.00    +0.000 A 
ATOM     25  C   UNL     1       6.718   4.400  14.594  0.00  0.00    +0.000 A 
ATOM     26  C   UNL     1       5.331   4.316  14.593  0.00  0.00    +0.000 A 
ATOM     27  C   UNL     1       4.614   4.543  15.772  0.00  0.00    +0.000 A 
ATOM     28  C   UNL     1       5.265   4.864  16.986  0.00  0.00    +0.000 A 
ENDBRANCH  18  19
ENDBRANCH   6  18
TORSDOF 5
ENDMDL
MODEL 8
REMARK VINA RESULT:      -7.4      2.456      7.797
REMARK  Name = 
REMARK  5 active torsions:
REMARK  status: ('A' for Active; 'I' for Inactive)
REMARK    1  A    between atoms: C_2  and  C_3
REMARK    2  A    between atoms: C_3  and  C_4
REMARK    3  A    between atoms: C_3  and  C_10
REMARK    4  A    between atoms: N_15  and  C_16
REMARK    5  A    between atoms: C_16  and  C_17
REMARK                            x       y       z     vdW  Elec       q    Type
REMARK                         _______ _______ _______ _____ _____    ______ ____
ROOT
ATOM      1  C   UNL     1      -0.466  10.890  19.435  0.00  0.00    +0.000 A 
ATOM      2  C   UNL     1       0.461  11.614  18.798  0.00  0.00    +0.000 A 
ATOM      3 CL   UNL     1       0.188  13.071  17.937  0.00  0.00    +0.000 Cl
ATOM      4  C   UNL     1       1.835  11.083  18.764  0.00  0.00    +0.000 A 
ATOM      5  N   UNL     1       2.200   9.924  19.205  0.00  0.00    +0.000 NA
ATOM      6  N   UNL     1       1.229   9.177  19.847  0.00  0.00    +0.000 N 
ATOM      7  C   UNL     1       0.004   9.716  20.216  0.00  0.00    +0.000 A 
ATOM      8  O   UNL     1      -0.720   9.267  21.100  0.00  0.00    +0.000 OA
ENDROOT
BRANCH   1   9
ATOM      9  C   UNL     1      -1.966  11.038  19.439  0.00  0.00    +0.000 C 
BRANCH   9  10
ATOM     10  C   UNL     1      -2.646  10.854  18.062  0.00  0.00    +0.000 A 
ATOM     11  C   UNL     1      -2.087  10.046  17.046  0.00  0.00    +0.000 A 
ATOM     12  C   UNL     1      -2.717   9.890  15.811  0.00  0.00    +0.000 A 
ATOM     13  C   UNL     1      -3.918  10.541  15.558  0.00  0.00    +0.000 A 
ATOM     14  C   UNL     1      -4.477  11.363  16.537  0.00  0.00    +0.000 A 
ATOM     15  C   UNL     1      -3.847  11.525  17.772  0.00  0.00    +0.000 A 
ENDBRANCH   9  10
BRANCH   9  17
ATOM     16  N   UNL     1      -2.733  13.446  20.601  0.00  0.00    +0.000 NA
ATOM     17  C   UNL     1      -2.386  12.354  20.074  0.00  0.00    +0.000 C 
ENDBRANCH   9  17
ENDBRANCH   1   9
BRANCH   6  18
ATOM     18  C   UNL     1       1.675   7.929  20.466  0.00  0.00    +0.000 C 
BRANCH  18  19
ATOM     19  C   UNL     1       2.307   6.944  19.494  0.00  0.00    +0.000 A 
ATOM     20  C   UNL     1       3.118   7.465  18.465  0.00  0.00    +0.000 A 
ATOM     21  C   UNL     1       3.636   6.646  17.468  0.00  0.00    +0.000 A 
ATOM     22  C   UNL     1       3.317   5.295  17.454  0.00  0.00    +0.000 A 
ATOM     23  C   UNL     1       2.515   4.737  18.459  0.00  0.00    +0.000 A 
ATOM     24  C   UNL     1       2.166   3.378  18.391  0.00  0.00    +0.000 A 
ATOM     25  C   UNL     1       1.394   2.787  19.388  0.00  0.00    +0.000 A 
ATOM     26  C   UNL     1       0.994   3.541  20.484  0.00  0.00    +0.000 A 
ATOM     27  C   UNL     1       1.314   4.900  20.554  0.00  0.00    +0.000 A 
ATOM     28  C   UNL     1       2.044   5.545  19.528  0.00  0.00    +0.000 A 
ENDBRANCH  18  19
ENDBRANCH   6  18
TORSDOF 5
ENDMDL
MODEL 9
REMARK VINA RESULT:      -7.4      4.186      6.467
REMARK  Name = 
REMARK  5 active torsions:
REMARK  status: ('A' for Active; 'I' for Inactive)
REMARK    1  A    between atoms: C_2  and  C_3
REMARK    2  A    between atoms: C_3  and  C_4
REMARK    3  A    between atoms: C_3  and  C_10
REMARK    4  A    between atoms: N_15  and  C_16
REMARK    5  A    between atoms: C_16  and  C_17
REMARK                            x       y       z     vdW  Elec       q    Type
REMARK                         _______ _______ _______ _____ _____    ______ ____
ROOT
ATOM      1  C   UNL     1      -0.108  11.012  20.658  0.00  0.00    +0.000 A 
ATOM      2  C   UNL     1       0.022   9.895  21.383  0.00  0.00    +0.000 A 
ATOM      3 CL   UNL     1       0.489   8.356  20.789  0.00  0.00    +0.000 Cl
ATOM      4  C   UNL     1      -0.338   9.963  22.810  0.00  0.00    +0.000 A 
ATOM      5  N   UNL     1      -0.870  10.983  23.400  0.00  0.00    +0.000 NA
ATOM      6  N   UNL     1      -1.014  12.128  22.636  0.00  0.00    +0.000 N 
ATOM      7  C   UNL     1      -0.415  12.268  21.392  0.00  0.00    +0.000 A 
ATOM      8  O   UNL     1      -0.169  13.343  20.852  0.00  0.00    +0.000 OA
ENDROOT
BRANCH   1   9
ATOM      9  C   UNL     1      -0.053  11.202  19.164  0.00  0.00    +0.000 C 
BRANCH   9  10
ATOM     10  C   UNL     1      -1.393  10.967  18.426  0.00  0.00    +0.000 A 
ATOM     11  C   UNL     1      -2.567  11.686  18.745  0.00  0.00    +0.000 A 
ATOM     12  C   UNL     1      -3.765  11.462  18.065  0.00  0.00    +0.000 A 
ATOM     13  C   UNL     1      -3.820  10.511  17.053  0.00  0.00    +0.000 A 
ATOM     14  C   UNL     1      -2.680   9.773  16.737  0.00  0.00    +0.000 A 
ATOM     15  C   UNL     1      -1.481   9.991  17.418  0.00  0.00    +0.000 A 
ENDBRANCH   9  10
BRANCH   9  17
ATOM     16  N   UNL     1       1.975   9.671  18.032  0.00  0.00    +0.000 NA
ATOM     17  C   UNL     1       1.055  10.365  18.545  0.00  0.00    +0.000 C 
ENDBRANCH   9  17
ENDBRANCH   1   9
BRANCH   6  18
ATOM     18  C   UNL     1      -1.488  13.320  23.339  0.00  0.00    +0.000 C 
BRANCH  18  19
ATOM     19  C   UNL     1      -2.987  13.554  23.228  0.00  0.00    +0.000 A 
ATOM     20  C   UNL     1      -3.730  12.676  22.411  0.00  0.00    +0.000 A 
ATOM     21  C   UNL     1      -5.081  12.890  22.162  0.00  0.00    +0.000 A 
ATOM     22  C   UNL     1      -5.708  14.012  22.689  0.00  0.00    +0.000 A 
ATOM     23  C   UNL     1      -5.005  14.908  23.506  0.00  0.00    +0.000 A 
ATOM     24  C   UNL     1      -5.651  16.061  23.983  0.00  0.00    +0.000 A 
ATOM     25  C   UNL     1      -4.990  16.956  24.820  0.00  0.00    +0.000 A 
ATOM     26  C   UNL     1      -3.687  16.689  25.219  0.00  0.00    +0.000 A 
ATOM     27  C   UNL     1      -3.024  15.557  24.735  0.00  0.00    +0.000 A 
ATOM     28  C   UNL     1      -3.646  14.660  23.835  0.00  0.00    +0.000 A 
ENDBRANCH  18  19
ENDBRANCH   6  18
TORSDOF 5
ENDMDL
