MODEL 1
REMARK VINA RESULT:      -5.9      0.000      0.000
REMARK  Name = 
REMARK  10 active torsions:
REMARK  status: ('A' for Active; 'I' for Inactive)
REMARK    1  A    between atoms: C_1  and  O_2
REMARK    2  A    between atoms: O_2  and  C_3
REMARK    3  A    between atoms: C_5  and  C_6
REMARK    4  A    between atoms: C_6  and  C_7
REMARK    5  A    between atoms: C_13  and  C_14
REMARK    6  A    between atoms: C_19  and  C_20
REMARK    7  A    between atoms: C_25  and  O_26
REMARK    8  A    between atoms: O_26  and  C_27
REMARK    9  A    between atoms: C_28  and  O_29
REMARK   10  A    between atoms: O_29  and  C_30
REMARK                            x       y       z     vdW  Elec       q    Type
REMARK                         _______ _______ _______ _____ _____    ______ ____
ROOT
ATOM      1  C   UNL     1      -0.839  14.958  23.718  0.00  0.00    +0.000 A 
ATOM      2  C   UNL     1      -2.060  14.298  23.560  0.00  0.00    +0.000 A 
ATOM      3  C   UNL     1      -2.335  13.431  22.471  0.00  0.00    +0.000 A 
ATOM      4  C   UNL     1      -1.405  13.384  21.394  0.00  0.00    +0.000 A 
ATOM      5  C   UNL     1      -0.317  14.337  21.449  0.00  0.00    +0.000 A 
ATOM      6  C   UNL     1       0.059  14.969  22.656  0.00  0.00    +0.000 A 
ENDROOT
BRANCH   4   7
ATOM      7  C   UNL     1      -1.390  12.364  20.234  0.00  0.00    +0.000 A 
ATOM      8  C   UNL     1      -2.156  12.533  19.058  0.00  0.00    +0.000 A 
ATOM      9  C   UNL     1      -2.154  11.521  18.102  0.00  0.00    +0.000 A 
ATOM     10  C   UNL     1      -1.252  10.488  18.123  0.00  0.00    +0.000 A 
ATOM     11  C   UNL     1      -0.383  10.323  19.153  0.00  0.00    +0.000 A 
ATOM     12  C   UNL     1      -0.581  11.163  20.263  0.00  0.00    +0.000 A 
ATOM     13  O   UNL     1      -1.461   9.583  17.130  0.00  0.00    +0.000 OA
ATOM     14  C   UNL     1      -2.821   9.936  16.826  0.00  0.00    +0.000 C 
ATOM     15  O   UNL     1      -3.070  11.340  17.110  0.00  0.00    +0.000 OA
BRANCH  12  16
ATOM     16  C   UNL     1      -0.040  10.567  21.521  0.00  0.00    +0.000 C 
ATOM     17  O   UNL     1       1.165  10.427  21.717  0.00  0.00    +0.000 OA
ENDBRANCH  12  16
ENDBRANCH   4   7
BRANCH   1  19
ATOM     18  C   UNL     1      -1.545  15.597  25.901  0.00  0.00    +0.000 C 
ATOM     19  O   UNL     1      -0.544  15.612  24.884  0.00  0.00    +0.000 OA
ENDBRANCH   1  19
BRANCH   5  20
ATOM     20  O   UNL     1       0.292  14.534  20.230  0.00  0.00    +0.000 OA
ATOM     21  C   UNL     1       0.118  15.643  19.364  0.00  0.00    +0.000 C 
ENDBRANCH   5  20
BRANCH   6  22
ATOM     22  O   UNL     1       1.350  15.415  22.714  0.00  0.00    +0.000 OA
ATOM     23  C   UNL     1       1.672  16.788  22.567  0.00  0.00    +0.000 C 
ENDBRANCH   6  22
BRANCH   3  24
ATOM     24  C   UNL     1      -3.545  12.539  22.730  0.00  0.00    +0.000 C 
BRANCH  24  25
ATOM     25  C   UNL     1      -4.930  13.116  22.355  0.00  0.00    +0.000 C 
ATOM     26  C   UNL     1      -5.389  12.836  20.941  0.00  0.00    +0.000 C 
ATOM     27  C   UNL     1      -6.806  12.330  21.076  0.00  0.00    +0.000 C 
ATOM     28  O   UNL     1      -7.005  11.990  22.439  0.00  0.00    +0.000 OA
ATOM     29  C   UNL     1      -5.986  12.459  23.200  0.00  0.00    +0.000 C 
ATOM     30  O   UNL     1      -5.961  12.390  24.416  0.00  0.00    +0.000 OA
ENDBRANCH  24  25
ENDBRANCH   3  24
TORSDOF 7
ENDMDL
MODEL 2
REMARK VINA RESULT:      -5.8      1.795      5.659
REMARK  Name = 
REMARK  10 active torsions:
REMARK  status: ('A' for Active; 'I' for Inactive)
REMARK    1  A    between atoms: C_1  and  O_2
REMARK    2  A    between atoms: O_2  and  C_3
REMARK    3  A    between atoms: C_5  and  C_6
REMARK    4  A    between atoms: C_6  and  C_7
REMARK    5  A    between atoms: C_13  and  C_14
REMARK    6  A    between atoms: C_19  and  C_20
REMARK    7  A    between atoms: C_25  and  O_26
REMARK    8  A    between atoms: O_26  and  C_27
REMARK    9  A    between atoms: C_28  and  O_29
REMARK   10  A    between atoms: O_29  and  C_30
REMARK                            x       y       z     vdW  Elec       q    Type
REMARK                         _______ _______ _______ _____ _____    ______ ____
ROOT
ATOM      1  C   UNL     1      -4.532  11.732  18.165  0.00  0.00    +0.000 A 
ATOM      2  C   UNL     1      -4.546  12.299  19.441  0.00  0.00    +0.000 A 
ATOM      3  C   UNL     1      -3.398  12.869  20.048  0.00  0.00    +0.000 A 
ATOM      4  C   UNL     1      -2.137  12.682  19.415  0.00  0.00    +0.000 A 
ATOM      5  C   UNL     1      -2.125  11.802  18.265  0.00  0.00    +0.000 A 
ATOM      6  C   UNL     1      -3.306  11.491  17.553  0.00  0.00    +0.000 A 
ENDROOT
BRANCH   4   7
ATOM      7  C   UNL     1      -0.812  13.391  19.772  0.00  0.00    +0.000 A 
ATOM      8  C   UNL     1      -0.307  14.485  19.032  0.00  0.00    +0.000 A 
ATOM      9  C   UNL     1       0.939  15.006  19.367  0.00  0.00    +0.000 A 
ATOM     10  C   UNL     1       1.585  14.683  20.533  0.00  0.00    +0.000 A 
ATOM     11  C   UNL     1       1.101  13.735  21.375  0.00  0.00    +0.000 A 
ATOM     12  C   UNL     1       0.006  12.992  20.898  0.00  0.00    +0.000 A 
ATOM     13  O   UNL     1       2.811  15.261  20.636  0.00  0.00    +0.000 OA
ATOM     14  C   UNL     1       3.002  15.565  19.244  0.00  0.00    +0.000 C 
ATOM     15  O   UNL     1       1.729  15.791  18.581  0.00  0.00    +0.000 OA
BRANCH  12  16
ATOM     16  C   UNL     1      -0.086  11.650  21.547  0.00  0.00    +0.000 C 
ATOM     17  O   UNL     1      -0.240  11.515  22.759  0.00  0.00    +0.000 OA
ENDBRANCH  12  16
ENDBRANCH   4   7
BRANCH   1  19
ATOM     18  C   UNL     1      -6.730  10.835  18.358  0.00  0.00    +0.000 C 
ATOM     19  O   UNL     1      -5.700  11.388  17.540  0.00  0.00    +0.000 OA
ENDBRANCH   1  19
BRANCH   5  20
ATOM     20  O   UNL     1      -0.868  11.334  17.953  0.00  0.00    +0.000 OA
ATOM     21  C   UNL     1      -0.322  10.073  18.302  0.00  0.00    +0.000 C 
ENDBRANCH   5  20
BRANCH   6  22
ATOM     22  O   UNL     1      -3.131  11.111  16.252  0.00  0.00    +0.000 OA
ATOM     23  C   UNL     1      -3.055   9.745  15.879  0.00  0.00    +0.000 C 
ENDBRANCH   6  22
BRANCH   3  24
ATOM     24  C   UNL     1      -3.749  13.761  21.234  0.00  0.00    +0.000 C 
BRANCH  24  25
ATOM     25  C   UNL     1      -3.268  13.293  22.627  0.00  0.00    +0.000 C 
ATOM     26  C   UNL     1      -2.453  14.302  23.405  0.00  0.00    +0.000 C 
ATOM     27  C   UNL     1      -3.063  14.324  24.788  0.00  0.00    +0.000 C 
ATOM     28  O   UNL     1      -4.327  13.687  24.701  0.00  0.00    +0.000 OA
ATOM     29  C   UNL     1      -4.461  13.053  23.510  0.00  0.00    +0.000 C 
ATOM     30  O   UNL     1      -5.411  12.348  23.220  0.00  0.00    +0.000 OA
ENDBRANCH  24  25
ENDBRANCH   3  24
TORSDOF 7
ENDMDL
MODEL 3
REMARK VINA RESULT:      -5.7      1.837      6.200
REMARK  Name = 
REMARK  10 active torsions:
REMARK  status: ('A' for Active; 'I' for Inactive)
REMARK    1  A    between atoms: C_1  and  O_2
REMARK    2  A    between atoms: O_2  and  C_3
REMARK    3  A    between atoms: C_5  and  C_6
REMARK    4  A    between atoms: C_6  and  C_7
REMARK    5  A    between atoms: C_13  and  C_14
REMARK    6  A    between atoms: C_19  and  C_20
REMARK    7  A    between atoms: C_25  and  O_26
REMARK    8  A    between atoms: O_26  and  C_27
REMARK    9  A    between atoms: C_28  and  O_29
REMARK   10  A    between atoms: O_29  and  C_30
REMARK                            x       y       z     vdW  Elec       q    Type
REMARK                         _______ _______ _______ _____ _____    ______ ____
ROOT
ATOM      1  C   UNL     1      -1.460  11.194  19.178  0.00  0.00    +0.000 A 
ATOM      2  C   UNL     1      -2.670  11.869  19.358  0.00  0.00    +0.000 A 
ATOM      3  C   UNL     1      -2.954  12.655  20.504  0.00  0.00    +0.000 A 
ATOM      4  C   UNL     1      -2.053  12.596  21.604  0.00  0.00    +0.000 A 
ATOM      5  C   UNL     1      -0.985  11.624  21.502  0.00  0.00    +0.000 A 
ATOM      6  C   UNL     1      -0.590  11.079  20.258  0.00  0.00    +0.000 A 
ENDROOT
BRANCH   4   7
ATOM      7  C   UNL     1      -2.046  13.521  22.841  0.00  0.00    +0.000 A 
ATOM      8  C   UNL     1      -1.110  14.568  23.007  0.00  0.00    +0.000 A 
ATOM      9  C   UNL     1      -1.118  15.295  24.194  0.00  0.00    +0.000 A 
ATOM     10  C   UNL     1      -2.144  15.219  25.099  0.00  0.00    +0.000 A 
ATOM     11  C   UNL     1      -3.161  14.332  24.949  0.00  0.00    +0.000 A 
ATOM     12  C   UNL     1      -3.005  13.390  23.918  0.00  0.00    +0.000 A 
ATOM     13  O   UNL     1      -1.925  15.970  26.212  0.00  0.00    +0.000 OA
ATOM     14  C   UNL     1      -0.501  16.112  26.074  0.00  0.00    +0.000 C 
ATOM     15  O   UNL     1      -0.107  16.072  24.676  0.00  0.00    +0.000 OA
BRANCH  12  16
ATOM     16  C   UNL     1      -3.789  12.144  24.172  0.00  0.00    +0.000 C 
ATOM     17  O   UNL     1      -5.002  12.160  24.373  0.00  0.00    +0.000 OA
ENDBRANCH  12  16
ENDBRANCH   4   7
BRANCH   1  19
ATOM     18  C   UNL     1      -2.223  10.029  17.246  0.00  0.00    +0.000 C 
ATOM     19  O   UNL     1      -1.149  10.626  17.972  0.00  0.00    +0.000 OA
ENDBRANCH   1  19
BRANCH   5  20
ATOM     20  O   UNL     1      -0.412  11.319  22.715  0.00  0.00    +0.000 OA
ATOM     21  C   UNL     1      -0.491  10.081  23.403  0.00  0.00    +0.000 C 
ENDBRANCH   5  20
BRANCH   6  22
ATOM     22  O   UNL     1       0.691  10.609  20.197  0.00  0.00    +0.000 OA
ATOM     23  C   UNL     1       0.974   9.222  20.125  0.00  0.00    +0.000 C 
ENDBRANCH   6  22
BRANCH   3  24
ATOM     24  C   UNL     1      -4.138  13.592  20.287  0.00  0.00    +0.000 C 
BRANCH  24  25
ATOM     25  C   UNL     1      -5.517  13.104  20.789  0.00  0.00    +0.000 C 
ATOM     26  C   UNL     1      -6.253  14.063  21.699  0.00  0.00    +0.000 C 
ATOM     27  C   UNL     1      -7.657  14.137  21.145  0.00  0.00    +0.000 C 
ATOM     28  O   UNL     1      -7.625  13.586  19.838  0.00  0.00    +0.000 OA
ATOM     29  C   UNL     1      -6.447  12.953  19.616  0.00  0.00    +0.000 C 
ATOM     30  O   UNL     1      -6.200  12.311  18.611  0.00  0.00    +0.000 OA
ENDBRANCH  24  25
ENDBRANCH   3  24
TORSDOF 7
ENDMDL
MODEL 4
REMARK VINA RESULT:      -5.6      2.027      3.764
REMARK  Name = 
REMARK  10 active torsions:
REMARK  status: ('A' for Active; 'I' for Inactive)
REMARK    1  A    between atoms: C_1  and  O_2
REMARK    2  A    between atoms: O_2  and  C_3
REMARK    3  A    between atoms: C_5  and  C_6
REMARK    4  A    between atoms: C_6  and  C_7
REMARK    5  A    between atoms: C_13  and  C_14
REMARK    6  A    between atoms: C_19  and  C_20
REMARK    7  A    between atoms: C_25  and  O_26
REMARK    8  A    between atoms: O_26  and  C_27
REMARK    9  A    between atoms: C_28  and  O_29
REMARK   10  A    between atoms: O_29  and  C_30
REMARK                            x       y       z     vdW  Elec       q    Type
REMARK                         _______ _______ _______ _____ _____    ______ ____
ROOT
ATOM      1  C   UNL     1      -4.324  15.604  23.187  0.00  0.00    +0.000 A 
ATOM      2  C   UNL     1      -4.956  14.556  22.512  0.00  0.00    +0.000 A 
ATOM      3  C   UNL     1      -4.266  13.409  22.045  0.00  0.00    +0.000 A 
ATOM      4  C   UNL     1      -2.843  13.412  22.090  0.00  0.00    +0.000 A 
ATOM      5  C   UNL     1      -2.221  14.656  22.491  0.00  0.00    +0.000 A 
ATOM      6  C   UNL     1      -2.934  15.653  23.195  0.00  0.00    +0.000 A 
ENDROOT
BRANCH   4   7
ATOM      7  C   UNL     1      -1.910  12.205  21.848  0.00  0.00    +0.000 A 
ATOM      8  C   UNL     1      -1.399  11.411  22.900  0.00  0.00    +0.000 A 
ATOM      9  C   UNL     1      -0.493  10.398  22.600  0.00  0.00    +0.000 A 
ATOM     10  C   UNL     1      -0.268   9.966  21.319  0.00  0.00    +0.000 A 
ATOM     11  C   UNL     1      -0.826  10.588  20.250  0.00  0.00    +0.000 A 
ATOM     12  C   UNL     1      -1.499  11.791  20.523  0.00  0.00    +0.000 A 
ATOM     13  O   UNL     1       0.694   9.007  21.246  0.00  0.00    +0.000 OA
ATOM     14  C   UNL     1       1.316   9.256  22.517  0.00  0.00    +0.000 C 
ATOM     15  O   UNL     1       0.356   9.784  23.472  0.00  0.00    +0.000 OA
BRANCH  12  16
ATOM     16  C   UNL     1      -1.553  12.687  19.329  0.00  0.00    +0.000 C 
ATOM     17  O   UNL     1      -1.470  12.258  18.180  0.00  0.00    +0.000 OA
ENDBRANCH  12  16
ENDBRANCH   4   7
BRANCH   1  19
ATOM     18  C   UNL     1      -6.134  17.146  23.052  0.00  0.00    +0.000 C 
ATOM     19  O   UNL     1      -5.058  16.583  23.801  0.00  0.00    +0.000 OA
ENDBRANCH   1  19
BRANCH   5  20
ATOM     20  O   UNL     1      -0.895  14.740  22.128  0.00  0.00    +0.000 OA
ATOM     21  C   UNL     1      -0.333  15.617  21.167  0.00  0.00    +0.000 C 
ENDBRANCH   5  20
BRANCH   6  22
ATOM     22  O   UNL     1      -2.176  16.504  23.949  0.00  0.00    +0.000 OA
ATOM     23  C   UNL     1      -1.829  16.203  25.291  0.00  0.00    +0.000 C 
ENDBRANCH   6  22
BRANCH   3  24
ATOM     24  C   UNL     1      -5.210  12.257  21.716  0.00  0.00    +0.000 C 
BRANCH  24  25
ATOM     25  C   UNL     1      -6.058  12.394  20.430  0.00  0.00    +0.000 C 
ATOM     26  C   UNL     1      -5.271  12.542  19.146  0.00  0.00    +0.000 C 
ATOM     27  C   UNL     1      -5.888  11.551  18.186  0.00  0.00    +0.000 C 
ATOM     28  O   UNL     1      -6.684  10.662  18.952  0.00  0.00    +0.000 OA
ATOM     29  C   UNL     1      -6.841  11.129  20.215  0.00  0.00    +0.000 C 
ATOM     30  O   UNL     1      -7.561  10.607  21.046  0.00  0.00    +0.000 OA
ENDBRANCH  24  25
ENDBRANCH   3  24
TORSDOF 7
ENDMDL
MODEL 5
REMARK VINA RESULT:      -5.5      1.221      1.683
REMARK  Name = 
REMARK  10 active torsions:
REMARK  status: ('A' for Active; 'I' for Inactive)
REMARK    1  A    between atoms: C_1  and  O_2
REMARK    2  A    between atoms: O_2  and  C_3
REMARK    3  A    between atoms: C_5  and  C_6
REMARK    4  A    between atoms: C_6  and  C_7
REMARK    5  A    between atoms: C_13  and  C_14
REMARK    6  A    between atoms: C_19  and  C_20
REMARK    7  A    between atoms: C_25  and  O_26
REMARK    8  A    between atoms: O_26  and  C_27
REMARK    9  A    between atoms: C_28  and  O_29
REMARK   10  A    between atoms: O_29  and  C_30
REMARK                            x       y       z     vdW  Elec       q    Type
REMARK                         _______ _______ _______ _____ _____    ______ ____
ROOT
ATOM      1  C   UNL     1       0.147  15.512  22.861  0.00  0.00    +0.000 A 
ATOM      2  C   UNL     1      -1.191  15.369  22.487  0.00  0.00    +0.000 A 
ATOM      3  C   UNL     1      -1.624  14.446  21.501  0.00  0.00    +0.000 A 
ATOM      4  C   UNL     1      -0.638  13.779  20.721  0.00  0.00    +0.000 A 
ATOM      5  C   UNL     1       0.730  14.209  20.919  0.00  0.00    +0.000 A 
ATOM      6  C   UNL     1       1.129  14.913  22.079  0.00  0.00    +0.000 A 
ENDROOT
BRANCH   4   7
ATOM      7  C   UNL     1      -0.869  12.588  19.764  0.00  0.00    +0.000 A 
ATOM      8  C   UNL     1      -1.371  12.749  18.452  0.00  0.00    +0.000 A 
ATOM      9  C   UNL     1      -1.635  11.615  17.689  0.00  0.00    +0.000 A 
ATOM     10  C   UNL     1      -1.197  10.367  18.047  0.00  0.00    +0.000 A 
ATOM     11  C   UNL     1      -0.582  10.142  19.236  0.00  0.00    +0.000 A 
ATOM     12  C   UNL     1      -0.580  11.220  20.138  0.00  0.00    +0.000 A 
ATOM     13  O   UNL     1      -1.611   9.395  17.190  0.00  0.00    +0.000 OA
ATOM     14  C   UNL     1      -2.693  10.120  16.581  0.00  0.00    +0.000 C 
ATOM     15  O   UNL     1      -2.428  11.549  16.582  0.00  0.00    +0.000 OA
BRANCH  12  16
ATOM     16  C   UNL     1      -0.456  10.764  21.555  0.00  0.00    +0.000 C 
ATOM     17  O   UNL     1       0.624  10.729  22.142  0.00  0.00    +0.000 OA
ENDBRANCH  12  16
ENDBRANCH   4   7
BRANCH   1  19
ATOM     18  C   UNL     1      -0.540  16.514  24.909  0.00  0.00    +0.000 C 
ATOM     19  O   UNL     1       0.491  16.257  23.956  0.00  0.00    +0.000 OA
ENDBRANCH   1  19
BRANCH   5  20
ATOM     20  O   UNL     1       1.566  13.851  19.885  0.00  0.00    +0.000 OA
ATOM     21  C   UNL     1       2.019  14.685  18.832  0.00  0.00    +0.000 C 
ENDBRANCH   5  20
BRANCH   6  22
ATOM     22  O   UNL     1       2.452  14.814  22.405  0.00  0.00    +0.000 OA
ATOM     23  C   UNL     1       3.367  15.864  22.136  0.00  0.00    +0.000 C 
ENDBRANCH   6  22
BRANCH   3  24
ATOM     24  C   UNL     1      -3.127  14.193  21.561  0.00  0.00    +0.000 C 
BRANCH  24  25
ATOM     25  C   UNL     1      -3.589  12.879  22.234  0.00  0.00    +0.000 C 
ATOM     26  C   UNL     1      -3.050  12.639  23.626  0.00  0.00    +0.000 C 
ATOM     27  C   UNL     1      -4.252  12.251  24.456  0.00  0.00    +0.000 C 
ATOM     28  O   UNL     1      -5.408  12.606  23.715  0.00  0.00    +0.000 OA
ATOM     29  C   UNL     1      -5.078  12.923  22.439  0.00  0.00    +0.000 C 
ATOM     30  O   UNL     1      -5.893  13.168  21.568  0.00  0.00    +0.000 OA
ENDBRANCH  24  25
ENDBRANCH   3  24
TORSDOF 7
ENDMDL
MODEL 6
REMARK VINA RESULT:      -5.5      2.110      5.618
REMARK  Name = 
REMARK  10 active torsions:
REMARK  status: ('A' for Active; 'I' for Inactive)
REMARK    1  A    between atoms: C_1  and  O_2
REMARK    2  A    between atoms: O_2  and  C_3
REMARK    3  A    between atoms: C_5  and  C_6
REMARK    4  A    between atoms: C_6  and  C_7
REMARK    5  A    between atoms: C_13  and  C_14
REMARK    6  A    between atoms: C_19  and  C_20
REMARK    7  A    between atoms: C_25  and  O_26
REMARK    8  A    between atoms: O_26  and  C_27
REMARK    9  A    between atoms: C_28  and  O_29
REMARK   10  A    between atoms: O_29  and  C_30
REMARK                            x       y       z     vdW  Elec       q    Type
REMARK                         _______ _______ _______ _____ _____    ______ ____
ROOT
ATOM      1  C   UNL     1      -4.481  11.354  18.316  0.00  0.00    +0.000 A 
ATOM      2  C   UNL     1      -4.583  12.196  19.426  0.00  0.00    +0.000 A 
ATOM      3  C   UNL     1      -3.473  12.881  19.982  0.00  0.00    +0.000 A 
ATOM      4  C   UNL     1      -2.170  12.546  19.515  0.00  0.00    +0.000 A 
ATOM      5  C   UNL     1      -2.089  11.429  18.599  0.00  0.00    +0.000 A 
ATOM      6  C   UNL     1      -3.217  10.973  17.879  0.00  0.00    +0.000 A 
ENDROOT
BRANCH   4   7
ATOM      7  C   UNL     1      -0.860  13.310  19.812  0.00  0.00    +0.000 A 
ATOM      8  C   UNL     1      -0.253  14.179  18.878  0.00  0.00    +0.000 A 
ATOM      9  C   UNL     1       0.974  14.755  19.193  0.00  0.00    +0.000 A 
ATOM     10  C   UNL     1       1.498  14.727  20.459  0.00  0.00    +0.000 A 
ATOM     11  C   UNL     1       0.907  14.024  21.459  0.00  0.00    +0.000 A 
ATOM     12  C   UNL     1      -0.163  13.197  21.077  0.00  0.00    +0.000 A 
ATOM     13  O   UNL     1       2.729  15.301  20.535  0.00  0.00    +0.000 OA
ATOM     14  C   UNL     1       3.057  15.245  19.137  0.00  0.00    +0.000 C 
ATOM     15  O   UNL     1       1.858  15.311  18.318  0.00  0.00    +0.000 OA
BRANCH  12  16
ATOM     16  C   UNL     1      -0.360  12.060  22.026  0.00  0.00    +0.000 C 
ATOM     17  O   UNL     1       0.474  11.169  22.167  0.00  0.00    +0.000 OA
ENDBRANCH  12  16
ENDBRANCH   4   7
BRANCH   1  19
ATOM     18  C   UNL     1      -6.797  10.818  18.470  0.00  0.00    +0.000 C 
ATOM     19  O   UNL     1      -5.604  10.885  17.689  0.00  0.00    +0.000 OA
ENDBRANCH   1  19
BRANCH   5  20
ATOM     20  O   UNL     1      -0.824  10.894  18.507  0.00  0.00    +0.000 OA
ATOM     21  C   UNL     1      -0.353   9.715  19.137  0.00  0.00    +0.000 C 
ENDBRANCH   5  20
BRANCH   6  22
ATOM     22  O   UNL     1      -2.948  10.306  16.717  0.00  0.00    +0.000 OA
ATOM     23  C   UNL     1      -2.967  10.961  15.460  0.00  0.00    +0.000 C 
ENDBRANCH   6  22
BRANCH   3  24
ATOM     24  C   UNL     1      -3.895  14.021  20.903  0.00  0.00    +0.000 C 
BRANCH  24  25
ATOM     25  C   UNL     1      -4.581  13.628  22.232  0.00  0.00    +0.000 C 
ATOM     26  C   UNL     1      -3.786  12.699  23.123  0.00  0.00    +0.000 C 
ATOM     27  C   UNL     1      -3.842  13.323  24.498  0.00  0.00    +0.000 C 
ATOM     28  O   UNL     1      -4.290  14.659  24.337  0.00  0.00    +0.000 OA
ATOM     29  C   UNL     1      -4.759  14.857  23.081  0.00  0.00    +0.000 C 
ATOM     30  O   UNL     1      -5.293  15.887  22.711  0.00  0.00    +0.000 OA
ENDBRANCH  24  25
ENDBRANCH   3  24
TORSDOF 7
ENDMDL
MODEL 7
REMARK VINA RESULT:      -5.4      8.508     12.138
REMARK  Name = 
REMARK  10 active torsions:
REMARK  status: ('A' for Active; 'I' for Inactive)
REMARK    1  A    between atoms: C_1  and  O_2
REMARK    2  A    between atoms: O_2  and  C_3
REMARK    3  A    between atoms: C_5  and  C_6
REMARK    4  A    between atoms: C_6  and  C_7
REMARK    5  A    between atoms: C_13  and  C_14
REMARK    6  A    between atoms: C_19  and  C_20
REMARK    7  A    between atoms: C_25  and  O_26
REMARK    8  A    between atoms: O_26  and  C_27
REMARK    9  A    between atoms: C_28  and  O_29
REMARK   10  A    between atoms: O_29  and  C_30
REMARK                            x       y       z     vdW  Elec       q    Type
REMARK                         _______ _______ _______ _____ _____    ______ ____
ROOT
ATOM      1  C   UNL     1       6.380  13.148  22.922  0.00  0.00    +0.000 A 
ATOM      2  C   UNL     1       7.558  12.518  22.516  0.00  0.00    +0.000 A 
ATOM      3  C   UNL     1       8.459  13.090  21.582  0.00  0.00    +0.000 A 
ATOM      4  C   UNL     1       8.052  14.261  20.882  0.00  0.00    +0.000 A 
ATOM      5  C   UNL     1       6.686  14.689  21.095  0.00  0.00    +0.000 A 
ATOM      6  C   UNL     1       5.938  14.261  22.216  0.00  0.00    +0.000 A 
ENDROOT
BRANCH   4   7
ATOM      7  C   UNL     1       8.944  15.165  20.002  0.00  0.00    +0.000 A 
ATOM      8  C   UNL     1       9.333  14.810  18.690  0.00  0.00    +0.000 A 
ATOM      9  C   UNL     1      10.212  15.641  18.002  0.00  0.00    +0.000 A 
ATOM     10  C   UNL     1      10.517  16.908  18.427  0.00  0.00    +0.000 A 
ATOM     11  C   UNL     1      10.074  17.384  19.619  0.00  0.00    +0.000 A 
ATOM     12  C   UNL     1       9.439  16.449  20.454  0.00  0.00    +0.000 A 
ATOM     13  O   UNL     1      11.436  17.524  17.637  0.00  0.00    +0.000 OA
ATOM     14  C   UNL     1      11.967  16.350  17.001  0.00  0.00    +0.000 C 
ATOM     15  O   UNL     1      10.960  15.306  16.912  0.00  0.00    +0.000 OA
BRANCH  12  16
ATOM     16  C   UNL     1       9.521  16.837  21.894  0.00  0.00    +0.000 C 
ATOM     17  O   UNL     1      10.489  17.434  22.361  0.00  0.00    +0.000 OA
ENDBRANCH  12  16
ENDBRANCH   4   7
BRANCH   1  19
ATOM     18  C   UNL     1       6.110  11.441  24.562  0.00  0.00    +0.000 C 
ATOM     19  O   UNL     1       5.653  12.660  23.975  0.00  0.00    +0.000 OA
ENDBRANCH   1  19
BRANCH   5  20
ATOM     20  O   UNL     1       6.226  15.541  20.117  0.00  0.00    +0.000 OA
ATOM     21  C   UNL     1       5.573  15.177  18.912  0.00  0.00    +0.000 C 
ENDBRANCH   5  20
BRANCH   6  22
ATOM     22  O   UNL     1       4.913  15.083  22.592  0.00  0.00    +0.000 OA
ATOM     23  C   UNL     1       3.588  14.882  22.128  0.00  0.00    +0.000 C 
ENDBRANCH   6  22
BRANCH   3  24
ATOM     24  C   UNL     1       9.829  12.420  21.610  0.00  0.00    +0.000 C 
BRANCH  24  25
ATOM     25  C   UNL     1      10.091  11.321  20.554  0.00  0.00    +0.000 C 
ATOM     26  C   UNL     1       8.965  11.080  19.575  0.00  0.00    +0.000 C 
ATOM     27  C   UNL     1       9.618  11.070  18.212  0.00  0.00    +0.000 C 
ATOM     28  O   UNL     1      10.914  11.628  18.362  0.00  0.00    +0.000 OA
ATOM     29  C   UNL     1      11.235  11.742  19.673  0.00  0.00    +0.000 C 
ATOM     30  O   UNL     1      12.328  12.100  20.075  0.00  0.00    +0.000 OA
ENDBRANCH  24  25
ENDBRANCH   3  24
TORSDOF 7
ENDMDL
MODEL 8
REMARK VINA RESULT:      -5.4      1.005      1.040
REMARK  Name = 
REMARK  10 active torsions:
REMARK  status: ('A' for Active; 'I' for Inactive)
REMARK    1  A    between atoms: C_1  and  O_2
REMARK    2  A    between atoms: O_2  and  C_3
REMARK    3  A    between atoms: C_5  and  C_6
REMARK    4  A    between atoms: C_6  and  C_7
REMARK    5  A    between atoms: C_13  and  C_14
REMARK    6  A    between atoms: C_19  and  C_20
REMARK    7  A    between atoms: C_25  and  O_26
REMARK    8  A    between atoms: O_26  and  C_27
REMARK    9  A    between atoms: C_28  and  O_29
REMARK   10  A    between atoms: O_29  and  C_30
REMARK                            x       y       z     vdW  Elec       q    Type
REMARK                         _______ _______ _______ _____ _____    ______ ____
ROOT
ATOM      1  C   UNL     1      -0.143  15.424  23.314  0.00  0.00    +0.000 A 
ATOM      2  C   UNL     1      -1.329  14.707  23.488  0.00  0.00    +0.000 A 
ATOM      3  C   UNL     1      -1.807  13.761  22.546  0.00  0.00    +0.000 A 
ATOM      4  C   UNL     1      -1.157  13.680  21.281  0.00  0.00    +0.000 A 
ATOM      5  C   UNL     1      -0.140  14.677  21.022  0.00  0.00    +0.000 A 
ATOM      6  C   UNL     1       0.477  15.401  22.069  0.00  0.00    +0.000 A 
ENDROOT
BRANCH   4   7
ATOM      7  C   UNL     1      -1.362  12.588  20.208  0.00  0.00    +0.000 A 
ATOM      8  C   UNL     1      -2.399  12.643  19.250  0.00  0.00    +0.000 A 
ATOM      9  C   UNL     1      -2.567  11.572  18.377  0.00  0.00    +0.000 A 
ATOM     10  C   UNL     1      -1.626  10.587  18.229  0.00  0.00    +0.000 A 
ATOM     11  C   UNL     1      -0.524  10.531  19.020  0.00  0.00    +0.000 A 
ATOM     12  C   UNL     1      -0.498  11.431  20.099  0.00  0.00    +0.000 A 
ATOM     13  O   UNL     1      -2.014   9.610  17.366  0.00  0.00    +0.000 OA
ATOM     14  C   UNL     1      -3.426   9.878  17.390  0.00  0.00    +0.000 C 
ATOM     15  O   UNL     1      -3.685  11.284  17.652  0.00  0.00    +0.000 OA
BRANCH  12  16
ATOM     16  C   UNL     1       0.369  10.945  21.215  0.00  0.00    +0.000 C 
ATOM     17  O   UNL     1       1.460  11.450  21.468  0.00  0.00    +0.000 OA
ENDBRANCH  12  16
ENDBRANCH   4   7
BRANCH   1  19
ATOM     18  C   UNL     1      -0.178  17.458  24.552  0.00  0.00    +0.000 C 
ATOM     19  O   UNL     1       0.384  16.164  24.338  0.00  0.00    +0.000 OA
ENDBRANCH   1  19
BRANCH   5  20
ATOM     20  O   UNL     1       0.152  14.818  19.685  0.00  0.00    +0.000 OA
ATOM     21  C   UNL     1      -0.282  15.860  18.827  0.00  0.00    +0.000 C 
ENDBRANCH   5  20
BRANCH   6  22
ATOM     22  O   UNL     1       1.718  15.900  21.792  0.00  0.00    +0.000 OA
ATOM     23  C   UNL     1       2.892  15.126  21.980  0.00  0.00    +0.000 C 
ENDBRANCH   6  22
BRANCH   3  24
ATOM     24  C   UNL     1      -2.872  12.841  23.134  0.00  0.00    +0.000 C 
BRANCH  24  25
ATOM     25  C   UNL     1      -4.305  13.412  23.244  0.00  0.00    +0.000 C 
ATOM     26  C   UNL     1      -5.048  13.557  21.934  0.00  0.00    +0.000 C 
ATOM     27  C   UNL     1      -6.406  12.941  22.178  0.00  0.00    +0.000 C 
ATOM     28  O   UNL     1      -6.316  12.181  23.372  0.00  0.00    +0.000 OA
ATOM     29  C   UNL     1      -5.162  12.455  24.026  0.00  0.00    +0.000 C 
ATOM     30  O   UNL     1      -4.883  12.012  25.126  0.00  0.00    +0.000 OA
ENDBRANCH  24  25
ENDBRANCH   3  24
TORSDOF 7
ENDMDL
MODEL 9
REMARK VINA RESULT:      -5.4      1.610      5.772
REMARK  Name = 
REMARK  10 active torsions:
REMARK  status: ('A' for Active; 'I' for Inactive)
REMARK    1  A    between atoms: C_1  and  O_2
REMARK    2  A    between atoms: O_2  and  C_3
REMARK    3  A    between atoms: C_5  and  C_6
REMARK    4  A    between atoms: C_6  and  C_7
REMARK    5  A    between atoms: C_13  and  C_14
REMARK    6  A    between atoms: C_19  and  C_20
REMARK    7  A    between atoms: C_25  and  O_26
REMARK    8  A    between atoms: O_26  and  C_27
REMARK    9  A    between atoms: C_28  and  O_29
REMARK   10  A    between atoms: O_29  and  C_30
REMARK                            x       y       z     vdW  Elec       q    Type
REMARK                         _______ _______ _______ _____ _____    ______ ____
ROOT
ATOM      1  C   UNL     1      -1.948  10.584  17.732  0.00  0.00    +0.000 A 
ATOM      2  C   UNL     1      -3.148  11.037  18.286  0.00  0.00    +0.000 A 
ATOM      3  C   UNL     1      -3.203  11.928  19.388  0.00  0.00    +0.000 A 
ATOM      4  C   UNL     1      -1.995  12.220  20.082  0.00  0.00    +0.000 A 
ATOM      5  C   UNL     1      -0.828  11.465  19.675  0.00  0.00    +0.000 A 
ATOM      6  C   UNL     1      -0.763  10.811  18.423  0.00  0.00    +0.000 A 
ENDROOT
BRANCH   4   7
ATOM      7  C   UNL     1      -1.786  13.317  21.149  0.00  0.00    +0.000 A 
ATOM      8  C   UNL     1      -1.333  14.617  20.830  0.00  0.00    +0.000 A 
ATOM      9  C   UNL     1      -1.085  15.516  21.863  0.00  0.00    +0.000 A 
ATOM     10  C   UNL     1      -1.500  15.293  23.151  0.00  0.00    +0.000 A 
ATOM     11  C   UNL     1      -2.071  14.118  23.520  0.00  0.00    +0.000 A 
ATOM     12  C   UNL     1      -2.050  13.096  22.556  0.00  0.00    +0.000 A 
ATOM     13  O   UNL     1      -1.107  16.271  24.010  0.00  0.00    +0.000 OA
ATOM     14  C   UNL     1      -0.054  16.827  23.206  0.00  0.00    +0.000 C 
ATOM     15  O   UNL     1      -0.331  16.649  21.790  0.00  0.00    +0.000 OA
BRANCH  12  16
ATOM     16  C   UNL     1      -2.121  11.739  23.175  0.00  0.00    +0.000 C 
ATOM     17  O   UNL     1      -1.116  11.079  23.431  0.00  0.00    +0.000 OA
ENDBRANCH  12  16
ENDBRANCH   4   7
BRANCH   1  19
ATOM     18  C   UNL     1      -2.854  10.339  15.543  0.00  0.00    +0.000 C 
ATOM     19  O   UNL     1      -1.941   9.898  16.547  0.00  0.00    +0.000 OA
ENDBRANCH   1  19
BRANCH   5  20
ATOM     20  O   UNL     1       0.177  11.474  20.615  0.00  0.00    +0.000 OA
ATOM     21  C   UNL     1       1.409  12.171  20.534  0.00  0.00    +0.000 C 
ENDBRANCH   5  20
BRANCH   6  22
ATOM     22  O   UNL     1       0.494  10.590  17.936  0.00  0.00    +0.000 OA
ATOM     23  C   UNL     1       1.125   9.324  18.048  0.00  0.00    +0.000 C 
ENDBRANCH   6  22
BRANCH   3  24
ATOM     24  C   UNL     1      -4.575  12.577  19.543  0.00  0.00    +0.000 C 
BRANCH  24  25
ATOM     25  C   UNL     1      -5.325  12.316  20.870  0.00  0.00    +0.000 C 
ATOM     26  C   UNL     1      -5.685  13.552  21.665  0.00  0.00    +0.000 C 
ATOM     27  C   UNL     1      -7.142  13.378  22.030  0.00  0.00    +0.000 C 
ATOM     28  O   UNL     1      -7.662  12.346  21.209  0.00  0.00    +0.000 OA
ATOM     29  C   UNL     1      -6.660  11.692  20.572  0.00  0.00    +0.000 C 
ATOM     30  O   UNL     1      -6.827  10.702  19.883  0.00  0.00    +0.000 OA
ENDBRANCH  24  25
ENDBRANCH   3  24
TORSDOF 7
ENDMDL
