MODEL 1
REMARK VINA RESULT:      -5.2      0.000      0.000
REMARK  Name = 
REMARK  5 active torsions:
REMARK  status: ('A' for Active; 'I' for Inactive)
REMARK    1  A    between atoms: C_1  and  C_2
REMARK    2  A    between atoms: C_2  and  C_4
REMARK    3  A    between atoms: C_4  and  C_10
REMARK    4  A    between atoms: C_15  and  C_16
REMARK    5  A    between atoms: C_20  and  C_21
REMARK                            x       y       z     vdW  Elec       q    Type
REMARK                         _______ _______ _______ _____ _____    ______ ____
ROOT
ATOM      1  C   UNL     1      -1.639  11.985  20.334  0.00  0.00    +0.000 A 
ATOM      2  C   UNL     1      -0.656  11.191  19.707  0.00  0.00    +0.000 A 
ATOM      3 CL   UNL     1       0.884  10.960  20.489  0.00  0.00    +0.000 Cl
ATOM      4  C   UNL     1      -0.912  10.591  18.456  0.00  0.00    +0.000 A 
ATOM      5 CL   UNL     1       0.312   9.623  17.681  0.00  0.00    +0.000 Cl
ATOM      6  C   UNL     1      -2.155  10.770  17.824  0.00  0.00    +0.000 A 
ATOM      7  C   UNL     1      -3.137  11.561  18.445  0.00  0.00    +0.000 A 
ATOM      8 CL   UNL     1      -4.681  11.786  17.669  0.00  0.00    +0.000 Cl
ATOM      9  C   UNL     1      -2.885  12.168  19.691  0.00  0.00    +0.000 A 
ENDROOT
BRANCH   1  10
ATOM     10  C   UNL     1      -1.405  12.575  21.690  0.00  0.00    +0.000 C 
ATOM     11  C   UNL     1      -0.882  13.817  21.820  0.00  0.00    +0.000 C 
ATOM     12  N   UNL     1      -0.526  14.641  20.764  0.00  0.00    +0.000 N 
ATOM     13  C   UNL     1       0.234  15.808  21.233  0.00  0.00    +0.000 C 
ATOM     14  C   UNL     1       0.139  15.719  22.768  0.00  0.00    +0.000 C 
ATOM     15  N   UNL     1      -0.572  14.459  23.002  0.00  0.00    +0.000 N 
ATOM     16  H   UNL     1      -0.129  14.166  19.961  0.00  0.00    +0.000 HD
ATOM     17  H   UNL     1      -0.142  13.865  23.703  0.00  0.00    +0.000 HD
BRANCH  10  19
ATOM     18  C   UNL     1      -1.041  10.468  23.214  0.00  0.00    +0.000 C 
ATOM     19  C   UNL     1      -1.819  11.709  22.854  0.00  0.00    +0.000 C 
ATOM     20  O   UNL     1      -2.779  12.067  23.542  0.00  0.00    +0.000 OA
ENDBRANCH  10  19
ENDBRANCH   1  10
BRANCH   6  21
ATOM     21  C   UNL     1      -2.417  10.158  16.549  0.00  0.00    +0.000 C 
ATOM     22  N   UNL     1      -2.639   9.666  15.523  0.00  0.00    +0.000 NA
ENDBRANCH   6  21
BRANCH   9  23
ATOM     23  C   UNL     1      -3.902  12.967  20.319  0.00  0.00    +0.000 C 
ATOM     24  N   UNL     1      -4.721  13.624  20.815  0.00  0.00    +0.000 NA
ENDBRANCH   9  23
TORSDOF 4
ENDMDL
MODEL 2
REMARK VINA RESULT:      -5.2      2.631      3.651
REMARK  Name = 
REMARK  5 active torsions:
REMARK  status: ('A' for Active; 'I' for Inactive)
REMARK    1  A    between atoms: C_1  and  C_2
REMARK    2  A    between atoms: C_2  and  C_4
REMARK    3  A    between atoms: C_4  and  C_10
REMARK    4  A    between atoms: C_15  and  C_16
REMARK    5  A    between atoms: C_20  and  C_21
REMARK                            x       y       z     vdW  Elec       q    Type
REMARK                         _______ _______ _______ _____ _____    ______ ____
ROOT
ATOM      1  C   UNL     1      -1.408  11.855  20.030  0.00  0.00    +0.000 A 
ATOM      2  C   UNL     1      -2.502  12.619  20.491  0.00  0.00    +0.000 A 
ATOM      3 CL   UNL     1      -2.306  13.633  21.894  0.00  0.00    +0.000 Cl
ATOM      4  C   UNL     1      -3.745  12.560  19.826  0.00  0.00    +0.000 A 
ATOM      5 CL   UNL     1      -5.096  13.495  20.410  0.00  0.00    +0.000 Cl
ATOM      6  C   UNL     1      -3.906  11.747  18.691  0.00  0.00    +0.000 A 
ATOM      7  C   UNL     1      -2.820  10.985  18.229  0.00  0.00    +0.000 A 
ATOM      8 CL   UNL     1      -3.010   9.977  16.820  0.00  0.00    +0.000 Cl
ATOM      9  C   UNL     1      -1.577  11.033  18.892  0.00  0.00    +0.000 A 
ENDROOT
BRANCH   1  10
ATOM     10  C   UNL     1      -0.066  11.956  20.686  0.00  0.00    +0.000 C 
ATOM     11  C   UNL     1       0.808  12.922  20.319  0.00  0.00    +0.000 C 
ATOM     12  N   UNL     1       0.568  13.880  19.346  0.00  0.00    +0.000 N 
ATOM     13  C   UNL     1       1.795  14.618  19.014  0.00  0.00    +0.000 C 
ATOM     14  C   UNL     1       2.815  14.133  20.061  0.00  0.00    +0.000 C 
ATOM     15  N   UNL     1       2.089  13.099  20.803  0.00  0.00    +0.000 N 
ATOM     16  H   UNL     1       0.032  13.559  18.548  0.00  0.00    +0.000 HD
ATOM     17  H   UNL     1       2.611  12.240  20.935  0.00  0.00    +0.000 HD
BRANCH  10  19
ATOM     18  C   UNL     1      -0.837  10.636  22.821  0.00  0.00    +0.000 C 
ATOM     19  C   UNL     1       0.202  10.945  21.772  0.00  0.00    +0.000 C 
ATOM     20  O   UNL     1       1.274  10.333  21.756  0.00  0.00    +0.000 OA
ENDBRANCH  10  19
ENDBRANCH   1  10
BRANCH   6  21
ATOM     21  C   UNL     1      -5.173  11.688  18.013  0.00  0.00    +0.000 C 
ATOM     22  N   UNL     1      -6.195  11.652  17.466  0.00  0.00    +0.000 NA
ENDBRANCH   6  21
BRANCH   9  23
ATOM     23  C   UNL     1      -0.472  10.256  18.402  0.00  0.00    +0.000 C 
ATOM     24  N   UNL     1       0.432   9.640  18.011  0.00  0.00    +0.000 NA
ENDBRANCH   9  23
TORSDOF 4
ENDMDL
MODEL 3
REMARK VINA RESULT:      -5.2      2.274      2.928
REMARK  Name = 
REMARK  5 active torsions:
REMARK  status: ('A' for Active; 'I' for Inactive)
REMARK    1  A    between atoms: C_1  and  C_2
REMARK    2  A    between atoms: C_2  and  C_4
REMARK    3  A    between atoms: C_4  and  C_10
REMARK    4  A    between atoms: C_15  and  C_16
REMARK    5  A    between atoms: C_20  and  C_21
REMARK                            x       y       z     vdW  Elec       q    Type
REMARK                         _______ _______ _______ _____ _____    ______ ____
ROOT
ATOM      1  C   UNL     1      -1.780  11.884  19.887  0.00  0.00    +0.000 A 
ATOM      2  C   UNL     1      -2.033  11.146  18.711  0.00  0.00    +0.000 A 
ATOM      3 CL   UNL     1      -0.739  10.243  17.973  0.00  0.00    +0.000 Cl
ATOM      4  C   UNL     1      -3.320  11.142  18.132  0.00  0.00    +0.000 A 
ATOM      5 CL   UNL     1      -3.621  10.241  16.671  0.00  0.00    +0.000 Cl
ATOM      6  C   UNL     1      -4.368  11.866  18.726  0.00  0.00    +0.000 A 
ATOM      7  C   UNL     1      -4.120  12.602  19.898  0.00  0.00    +0.000 A 
ATOM      8 CL   UNL     1      -5.416  13.500  20.642  0.00  0.00    +0.000 Cl
ATOM      9  C   UNL     1      -2.836  12.616  20.477  0.00  0.00    +0.000 A 
ENDROOT
BRANCH   1  10
ATOM     10  C   UNL     1      -0.437  11.847  20.547  0.00  0.00    +0.000 C 
ATOM     11  C   UNL     1       0.534  12.714  20.181  0.00  0.00    +0.000 C 
ATOM     12  N   UNL     1       0.400  13.689  19.203  0.00  0.00    +0.000 N 
ATOM     13  C   UNL     1       1.698  14.293  18.874  0.00  0.00    +0.000 C 
ATOM     14  C   UNL     1       2.658  13.708  19.927  0.00  0.00    +0.000 C 
ATOM     15  N   UNL     1       1.825  12.759  20.670  0.00  0.00    +0.000 N 
ATOM     16  H   UNL     1      -0.164  13.423  18.404  0.00  0.00    +0.000 HD
ATOM     17  H   UNL     1       2.254  11.850  20.807  0.00  0.00    +0.000 HD
BRANCH  10  19
ATOM     18  C   UNL     1      -0.212   9.346  21.315  0.00  0.00    +0.000 C 
ATOM     19  C   UNL     1      -0.280  10.818  21.639  0.00  0.00    +0.000 C 
ATOM     20  O   UNL     1      -0.153  11.208  22.803  0.00  0.00    +0.000 OA
ENDBRANCH  10  19
ENDBRANCH   1  10
BRANCH   6  21
ATOM     21  C   UNL     1      -5.680  11.861  18.138  0.00  0.00    +0.000 C 
ATOM     22  N   UNL     1      -6.743  11.856  17.673  0.00  0.00    +0.000 NA
ENDBRANCH   6  21
BRANCH   9  23
ATOM     23  C   UNL     1      -2.600  13.366  21.680  0.00  0.00    +0.000 C 
ATOM     24  N   UNL     1      -2.411  13.987  22.644  0.00  0.00    +0.000 NA
ENDBRANCH   9  23
TORSDOF 4
ENDMDL
MODEL 4
REMARK VINA RESULT:      -5.2      3.011      5.494
REMARK  Name = 
REMARK  5 active torsions:
REMARK  status: ('A' for Active; 'I' for Inactive)
REMARK    1  A    between atoms: C_1  and  C_2
REMARK    2  A    between atoms: C_2  and  C_4
REMARK    3  A    between atoms: C_4  and  C_10
REMARK    4  A    between atoms: C_15  and  C_16
REMARK    5  A    between atoms: C_20  and  C_21
REMARK                            x       y       z     vdW  Elec       q    Type
REMARK                         _______ _______ _______ _____ _____    ______ ____
ROOT
ATOM      1  C   UNL     1      -4.361  12.429  20.184  0.00  0.00    +0.000 A 
ATOM      2  C   UNL     1      -3.882  12.695  21.485  0.00  0.00    +0.000 A 
ATOM      3 CL   UNL     1      -4.997  13.220  22.716  0.00  0.00    +0.000 Cl
ATOM      4  C   UNL     1      -2.513  12.543  21.788  0.00  0.00    +0.000 A 
ATOM      5 CL   UNL     1      -1.926  12.888  23.393  0.00  0.00    +0.000 Cl
ATOM      6  C   UNL     1      -1.610  12.115  20.799  0.00  0.00    +0.000 A 
ATOM      7  C   UNL     1      -2.082  11.849  19.503  0.00  0.00    +0.000 A 
ATOM      8 CL   UNL     1      -0.969  11.315  18.272  0.00  0.00    +0.000 Cl
ATOM      9  C   UNL     1      -3.447  12.005  19.192  0.00  0.00    +0.000 A 
ENDROOT
BRANCH   1  10
ATOM     10  C   UNL     1      -5.820  12.524  19.865  0.00  0.00    +0.000 C 
ATOM     11  C   UNL     1      -6.345  13.672  19.377  0.00  0.00    +0.000 C 
ATOM     12  N   UNL     1      -5.624  14.830  19.130  0.00  0.00    +0.000 N 
ATOM     13  C   UNL     1      -6.517  15.961  18.844  0.00  0.00    +0.000 C 
ATOM     14  C   UNL     1      -7.912  15.316  18.745  0.00  0.00    +0.000 C 
ATOM     15  N   UNL     1      -7.673  13.911  19.087  0.00  0.00    +0.000 N 
ATOM     16  H   UNL     1      -4.882  15.027  19.792  0.00  0.00    +0.000 HD
ATOM     17  H   UNL     1      -8.327  13.533  19.765  0.00  0.00    +0.000 HD
BRANCH  10  19
ATOM     18  C   UNL     1      -6.878  10.294  18.969  0.00  0.00    +0.000 C 
ATOM     19  C   UNL     1      -6.617  11.264  20.094  0.00  0.00    +0.000 C 
ATOM     20  O   UNL     1      -7.009  11.014  21.237  0.00  0.00    +0.000 OA
ENDBRANCH  10  19
ENDBRANCH   1  10
BRANCH   6  21
ATOM     21  C   UNL     1      -0.213  11.958  21.109  0.00  0.00    +0.000 C 
ATOM     22  N   UNL     1       0.909  11.823  21.363  0.00  0.00    +0.000 NA
ENDBRANCH   6  21
BRANCH   9  23
ATOM     23  C   UNL     1      -3.918  11.720  17.863  0.00  0.00    +0.000 C 
ATOM     24  N   UNL     1      -4.314  11.490  16.796  0.00  0.00    +0.000 NA
ENDBRANCH   9  23
TORSDOF 4
ENDMDL
MODEL 5
REMARK VINA RESULT:      -5.1      3.024      5.405
REMARK  Name = 
REMARK  5 active torsions:
REMARK  status: ('A' for Active; 'I' for Inactive)
REMARK    1  A    between atoms: C_1  and  C_2
REMARK    2  A    between atoms: C_2  and  C_4
REMARK    3  A    between atoms: C_4  and  C_10
REMARK    4  A    between atoms: C_15  and  C_16
REMARK    5  A    between atoms: C_20  and  C_21
REMARK                            x       y       z     vdW  Elec       q    Type
REMARK                         _______ _______ _______ _____ _____    ______ ____
ROOT
ATOM      1  C   UNL     1       0.115  12.959  19.195  0.00  0.00    +0.000 A 
ATOM      2  C   UNL     1       1.382  13.223  18.634  0.00  0.00    +0.000 A 
ATOM      3 CL   UNL     1       2.338  11.901  18.022  0.00  0.00    +0.000 Cl
ATOM      4  C   UNL     1       1.877  14.543  18.573  0.00  0.00    +0.000 A 
ATOM      5 CL   UNL     1       3.450  14.859  17.893  0.00  0.00    +0.000 Cl
ATOM      6  C   UNL     1       1.107  15.613  19.061  0.00  0.00    +0.000 A 
ATOM      7  C   UNL     1      -0.156  15.355  19.620  0.00  0.00    +0.000 A 
ATOM      8 CL   UNL     1      -1.118  16.677  20.225  0.00  0.00    +0.000 Cl
ATOM      9  C   UNL     1      -0.653  14.039  19.691  0.00  0.00    +0.000 A 
ENDROOT
BRANCH   1  10
ATOM     10  C   UNL     1      -0.450  11.573  19.208  0.00  0.00    +0.000 C 
ATOM     11  C   UNL     1      -1.301  11.167  18.238  0.00  0.00    +0.000 C 
ATOM     12  N   UNL     1      -1.722  11.951  17.173  0.00  0.00    +0.000 N 
ATOM     13  C   UNL     1      -2.824  11.309  16.444  0.00  0.00    +0.000 C 
ATOM     14  C   UNL     1      -2.916   9.905  17.072  0.00  0.00    +0.000 C 
ATOM     15  N   UNL     1      -1.930   9.941  18.155  0.00  0.00    +0.000 N 
ATOM     16  H   UNL     1      -1.864  12.931  17.389  0.00  0.00    +0.000 HD
ATOM     17  H   UNL     1      -2.273   9.583  19.040  0.00  0.00    +0.000 HD
BRANCH  10  19
ATOM     18  C   UNL     1      -0.307  11.024  21.771  0.00  0.00    +0.000 C 
ATOM     19  C   UNL     1       0.022  10.692  20.338  0.00  0.00    +0.000 C 
ATOM     20  O   UNL     1       0.639   9.659  20.061  0.00  0.00    +0.000 OA
ENDBRANCH  10  19
ENDBRANCH   1  10
BRANCH   6  21
ATOM     21  C   UNL     1       1.611  16.959  18.997  0.00  0.00    +0.000 C 
ATOM     22  N   UNL     1       2.006  18.048  18.946  0.00  0.00    +0.000 NA
ENDBRANCH   6  21
BRANCH   9  23
ATOM     23  C   UNL     1      -1.951  13.791  20.257  0.00  0.00    +0.000 C 
ATOM     24  N   UNL     1      -3.006  13.588  20.698  0.00  0.00    +0.000 NA
ENDBRANCH   9  23
TORSDOF 4
ENDMDL
MODEL 6
REMARK VINA RESULT:      -5.1      1.301      2.979
REMARK  Name = 
REMARK  5 active torsions:
REMARK  status: ('A' for Active; 'I' for Inactive)
REMARK    1  A    between atoms: C_1  and  C_2
REMARK    2  A    between atoms: C_2  and  C_4
REMARK    3  A    between atoms: C_4  and  C_10
REMARK    4  A    between atoms: C_15  and  C_16
REMARK    5  A    between atoms: C_20  and  C_21
REMARK                            x       y       z     vdW  Elec       q    Type
REMARK                         _______ _______ _______ _____ _____    ______ ____
ROOT
ATOM      1  C   UNL     1      -1.888  12.128  20.472  0.00  0.00    +0.000 A 
ATOM      2  C   UNL     1      -3.098  12.300  19.768  0.00  0.00    +0.000 A 
ATOM      3 CL   UNL     1      -4.359  13.282  20.462  0.00  0.00    +0.000 Cl
ATOM      4  C   UNL     1      -3.292  11.680  18.516  0.00  0.00    +0.000 A 
ATOM      5 CL   UNL     1      -4.796  11.884  17.659  0.00  0.00    +0.000 Cl
ATOM      6  C   UNL     1      -2.276  10.890  17.950  0.00  0.00    +0.000 A 
ATOM      7  C   UNL     1      -1.069  10.716  18.648  0.00  0.00    +0.000 A 
ATOM      8 CL   UNL     1       0.197   9.741  17.951  0.00  0.00    +0.000 Cl
ATOM      9  C   UNL     1      -0.871  11.327  19.902  0.00  0.00    +0.000 A 
ENDROOT
BRANCH   1  10
ATOM     10  C   UNL     1      -1.644  12.831  21.771  0.00  0.00    +0.000 C 
ATOM     11  C   UNL     1      -1.132  14.084  21.790  0.00  0.00    +0.000 C 
ATOM     12  N   UNL     1      -0.795  14.820  20.664  0.00  0.00    +0.000 N 
ATOM     13  C   UNL     1      -0.042  16.028  21.024  0.00  0.00    +0.000 C 
ATOM     14  C   UNL     1      -0.117  16.067  22.562  0.00  0.00    +0.000 C 
ATOM     15  N   UNL     1      -0.813  14.825  22.910  0.00  0.00    +0.000 N 
ATOM     16  H   UNL     1      -0.403  14.282  19.898  0.00  0.00    +0.000 HD
ATOM     17  H   UNL     1      -0.369  14.297  23.653  0.00  0.00    +0.000 HD
BRANCH  10  19
ATOM     18  C   UNL     1      -3.365  12.296  23.679  0.00  0.00    +0.000 C 
ATOM     19  C   UNL     1      -2.035  12.063  23.008  0.00  0.00    +0.000 C 
ATOM     20  O   UNL     1      -1.264  11.197  23.432  0.00  0.00    +0.000 OA
ENDBRANCH  10  19
ENDBRANCH   1  10
BRANCH   6  21
ATOM     21  C   UNL     1      -2.473  10.259  16.673  0.00  0.00    +0.000 C 
ATOM     22  N   UNL     1      -2.636   9.759  15.639  0.00  0.00    +0.000 NA
ENDBRANCH   6  21
BRANCH   9  23
ATOM     23  C   UNL     1       0.373  11.148  20.600  0.00  0.00    +0.000 C 
ATOM     24  N   UNL     1       1.385  11.016  21.153  0.00  0.00    +0.000 NA
ENDBRANCH   9  23
TORSDOF 4
ENDMDL
MODEL 7
REMARK VINA RESULT:      -5.1      2.828      5.001
REMARK  Name = 
REMARK  5 active torsions:
REMARK  status: ('A' for Active; 'I' for Inactive)
REMARK    1  A    between atoms: C_1  and  C_2
REMARK    2  A    between atoms: C_2  and  C_4
REMARK    3  A    between atoms: C_4  and  C_10
REMARK    4  A    between atoms: C_15  and  C_16
REMARK    5  A    between atoms: C_20  and  C_21
REMARK                            x       y       z     vdW  Elec       q    Type
REMARK                         _______ _______ _______ _____ _____    ______ ____
ROOT
ATOM      1  C   UNL     1      -4.539  12.379  19.807  0.00  0.00    +0.000 A 
ATOM      2  C   UNL     1      -4.127  11.818  18.580  0.00  0.00    +0.000 A 
ATOM      3 CL   UNL     1      -5.319  11.446  17.366  0.00  0.00    +0.000 Cl
ATOM      4  C   UNL     1      -2.762  11.554  18.337  0.00  0.00    +0.000 A 
ATOM      5 CL   UNL     1      -2.262  10.846  16.824  0.00  0.00    +0.000 Cl
ATOM      6  C   UNL     1      -1.796  11.857  19.311  0.00  0.00    +0.000 A 
ATOM      7  C   UNL     1      -2.202  12.416  20.535  0.00  0.00    +0.000 A 
ATOM      8 CL   UNL     1      -1.010  12.797  21.748  0.00  0.00    +0.000 Cl
ATOM      9  C   UNL     1      -3.564  12.676  20.787  0.00  0.00    +0.000 A 
ENDROOT
BRANCH   1  10
ATOM     10  C   UNL     1      -5.975  12.723  20.054  0.00  0.00    +0.000 C 
ATOM     11  C   UNL     1      -6.480  13.908  19.638  0.00  0.00    +0.000 C 
ATOM     12  N   UNL     1      -5.760  14.885  18.967  0.00  0.00    +0.000 N 
ATOM     13  C   UNL     1      -6.521  16.138  18.877  0.00  0.00    +0.000 C 
ATOM     14  C   UNL     1      -7.916  15.764  19.411  0.00  0.00    +0.000 C 
ATOM     15  N   UNL     1      -7.764  14.372  19.841  0.00  0.00    +0.000 N 
ATOM     16  H   UNL     1      -4.795  14.989  19.262  0.00  0.00    +0.000 HD
ATOM     17  H   UNL     1      -8.140  14.180  20.763  0.00  0.00    +0.000 HD
BRANCH  10  19
ATOM     18  C   UNL     1      -7.173  10.387  20.042  0.00  0.00    +0.000 C 
ATOM     19  C   UNL     1      -6.786  11.660  20.752  0.00  0.00    +0.000 C 
ATOM     20  O   UNL     1      -7.083  11.830  21.938  0.00  0.00    +0.000 OA
ENDBRANCH  10  19
ENDBRANCH   1  10
BRANCH   6  21
ATOM     21  C   UNL     1      -0.404  11.589  19.063  0.00  0.00    +0.000 C 
ATOM     22  N   UNL     1       0.715  11.372  18.853  0.00  0.00    +0.000 NA
ENDBRANCH   6  21
BRANCH   9  23
ATOM     23  C   UNL     1      -3.964  13.257  22.039  0.00  0.00    +0.000 C 
ATOM     24  N   UNL     1      -4.291  13.741  23.043  0.00  0.00    +0.000 NA
ENDBRANCH   9  23
TORSDOF 4
ENDMDL
MODEL 8
REMARK VINA RESULT:      -5.0      2.861      5.290
REMARK  Name = 
REMARK  5 active torsions:
REMARK  status: ('A' for Active; 'I' for Inactive)
REMARK    1  A    between atoms: C_1  and  C_2
REMARK    2  A    between atoms: C_2  and  C_4
REMARK    3  A    between atoms: C_4  and  C_10
REMARK    4  A    between atoms: C_15  and  C_16
REMARK    5  A    between atoms: C_20  and  C_21
REMARK                            x       y       z     vdW  Elec       q    Type
REMARK                         _______ _______ _______ _____ _____    ______ ____
ROOT
ATOM      1  C   UNL     1      -4.368  12.483  20.291  0.00  0.00    +0.000 A 
ATOM      2  C   UNL     1      -3.452  12.090  19.292  0.00  0.00    +0.000 A 
ATOM      3 CL   UNL     1      -4.044  11.658  17.711  0.00  0.00    +0.000 Cl
ATOM      4  C   UNL     1      -2.069  12.039  19.569  0.00  0.00    +0.000 A 
ATOM      5 CL   UNL     1      -0.946  11.537  18.335  0.00  0.00    +0.000 Cl
ATOM      6  C   UNL     1      -1.587  12.391  20.841  0.00  0.00    +0.000 A 
ATOM      7  C   UNL     1      -2.495  12.784  21.839  0.00  0.00    +0.000 A 
ATOM      8 CL   UNL     1      -1.905  13.224  23.419  0.00  0.00    +0.000 Cl
ATOM      9  C   UNL     1      -3.878  12.830  21.571  0.00  0.00    +0.000 A 
ENDROOT
BRANCH   1  10
ATOM     10  C   UNL     1      -5.830  12.603  19.993  0.00  0.00    +0.000 C 
ATOM     11  C   UNL     1      -6.343  13.762  19.518  0.00  0.00    +0.000 C 
ATOM     12  N   UNL     1      -5.607  14.909  19.264  0.00  0.00    +0.000 N 
ATOM     13  C   UNL     1      -6.486  16.055  18.995  0.00  0.00    +0.000 C 
ATOM     14  C   UNL     1      -7.893  15.433  18.915  0.00  0.00    +0.000 C 
ATOM     15  N   UNL     1      -7.671  14.024  19.249  0.00  0.00    +0.000 N 
ATOM     16  H   UNL     1      -4.852  15.091  19.915  0.00  0.00    +0.000 HD
ATOM     17  H   UNL     1      -8.321  13.654  19.934  0.00  0.00    +0.000 HD
BRANCH  10  19
ATOM     18  C   UNL     1      -6.860  10.348  19.129  0.00  0.00    +0.000 C 
ATOM     19  C   UNL     1      -6.644  11.356  20.230  0.00  0.00    +0.000 C 
ATOM     20  O   UNL     1      -7.088  11.148  21.363  0.00  0.00    +0.000 OA
ENDBRANCH  10  19
ENDBRANCH   1  10
BRANCH   6  21
ATOM     21  C   UNL     1      -0.177  12.341  21.123  0.00  0.00    +0.000 C 
ATOM     22  N   UNL     1       0.960  12.294  21.343  0.00  0.00    +0.000 NA
ENDBRANCH   6  21
BRANCH   9  23
ATOM     23  C   UNL     1      -4.794  13.243  22.599  0.00  0.00    +0.000 C 
ATOM     24  N   UNL     1      -5.546  13.581  23.417  0.00  0.00    +0.000 NA
ENDBRANCH   9  23
TORSDOF 4
ENDMDL
MODEL 9
REMARK VINA RESULT:      -5.0      3.243      6.127
REMARK  Name = 
REMARK  5 active torsions:
REMARK  status: ('A' for Active; 'I' for Inactive)
REMARK    1  A    between atoms: C_1  and  C_2
REMARK    2  A    between atoms: C_2  and  C_4
REMARK    3  A    between atoms: C_4  and  C_10
REMARK    4  A    between atoms: C_15  and  C_16
REMARK    5  A    between atoms: C_20  and  C_21
REMARK                            x       y       z     vdW  Elec       q    Type
REMARK                         _______ _______ _______ _____ _____    ______ ____
ROOT
ATOM      1  C   UNL     1      -0.109  13.141  19.341  0.00  0.00    +0.000 A 
ATOM      2  C   UNL     1      -0.870  14.205  19.870  0.00  0.00    +0.000 A 
ATOM      3 CL   UNL     1      -2.464  13.889  20.497  0.00  0.00    +0.000 Cl
ATOM      4  C   UNL     1      -0.349  15.516  19.887  0.00  0.00    +0.000 A 
ATOM      5 CL   UNL     1      -1.300  16.829  20.528  0.00  0.00    +0.000 Cl
ATOM      6  C   UNL     1       0.938  15.776  19.386  0.00  0.00    +0.000 A 
ATOM      7  C   UNL     1       1.699  14.718  18.859  0.00  0.00    +0.000 A 
ATOM      8 CL   UNL     1       3.298  15.032  18.238  0.00  0.00    +0.000 Cl
ATOM      9  C   UNL     1       1.183  13.408  18.832  0.00  0.00    +0.000 A 
ENDROOT
BRANCH   1  10
ATOM     10  C   UNL     1      -0.622  11.735  19.374  0.00  0.00    +0.000 C 
ATOM     11  C   UNL     1      -1.413  11.267  18.381  0.00  0.00    +0.000 C 
ATOM     12  N   UNL     1      -1.814  12.001  17.275  0.00  0.00    +0.000 N 
ATOM     13  C   UNL     1      -2.858  11.295  16.519  0.00  0.00    +0.000 C 
ATOM     14  C   UNL     1      -2.927   9.909  17.186  0.00  0.00    +0.000 C 
ATOM     15  N   UNL     1      -1.992  10.016  18.310  0.00  0.00    +0.000 N 
ATOM     16  H   UNL     1      -2.002  12.981  17.452  0.00  0.00    +0.000 HD
ATOM     17  H   UNL     1      -2.362   9.672  19.190  0.00  0.00    +0.000 HD
BRANCH  10  19
ATOM     18  C   UNL     1      -0.399  11.377  21.965  0.00  0.00    +0.000 C 
ATOM     19  C   UNL     1      -0.170  10.907  20.551  0.00  0.00    +0.000 C 
ATOM     20  O   UNL     1       0.345   9.807  20.334  0.00  0.00    +0.000 OA
ENDBRANCH  10  19
ENDBRANCH   1  10
BRANCH   6  21
ATOM     21  C   UNL     1       1.470  17.112  19.405  0.00  0.00    +0.000 C 
ATOM     22  N   UNL     1       1.892  18.192  19.413  0.00  0.00    +0.000 NA
ENDBRANCH   6  21
BRANCH   9  23
ATOM     23  C   UNL     1       1.976  12.335  18.298  0.00  0.00    +0.000 C 
ATOM     24  N   UNL     1       2.603  11.459  17.862  0.00  0.00    +0.000 NA
ENDBRANCH   9  23
TORSDOF 4
ENDMDL
