MODEL 1
REMARK VINA RESULT:      -8.4      0.000      0.000
REMARK  Name = 
REMARK  8 active torsions:
REMARK  status: ('A' for Active; 'I' for Inactive)
REMARK    1  A    between atoms: C_1  and  O_2
REMARK    2  A    between atoms: O_2  and  C_3
REMARK    3  A    between atoms: C_6  and  C_7
REMARK    4  A    between atoms: C_19  and  O_20
REMARK    5  A    between atoms: O_20  and  C_21
REMARK    6  A    between atoms: N_24  and  C_25
REMARK    7  A    between atoms: C_25  and  C_26
REMARK    8  A    between atoms: C_25  and  C_27
REMARK                            x       y       z     vdW  Elec       q    Type
REMARK                         _______ _______ _______ _____ _____    ______ ____
ROOT
ATOM      1  C   UNL     1       2.210   4.361  19.481  0.00  0.00    +0.000 A 
ATOM      2  C   UNL     1       1.316   4.674  20.521  0.00  0.00    +0.000 A 
ATOM      3  C   UNL     1       1.163   5.977  20.970  0.00  0.00    +0.000 A 
ATOM      4  C   UNL     1       1.806   7.025  20.328  0.00  0.00    +0.000 A 
ATOM      5  C   UNL     1       2.767   6.710  19.334  0.00  0.00    +0.000 A 
ATOM      6  C   UNL     1       2.987   5.379  18.887  0.00  0.00    +0.000 A 
ENDROOT
BRANCH   4   7
ATOM      7  C   UNL     1       1.548   8.447  20.741  0.00  0.00    +0.000 C 
ATOM      8  O   UNL     1       1.701   8.716  21.934  0.00  0.00    +0.000 OA
ATOM      9  N   UNL     1       1.132   9.422  19.813  0.00  0.00    +0.000 N 
ATOM     10  C   UNL     1       1.209   9.329  18.334  0.00  0.00    +0.000 C 
ATOM     11  C   UNL     1      -0.194   9.474  17.709  0.00  0.00    +0.000 C 
ATOM     12  C   UNL     1      -0.825  10.694  18.272  0.00  0.00    +0.000 A 
ATOM     13  N   UNL     1      -1.838  11.344  17.699  0.00  0.00    +0.000 NA
ATOM     14  N   UNL     1      -2.058  12.370  18.541  0.00  0.00    +0.000 N 
ATOM     15  C   UNL     1      -1.209  12.390  19.616  0.00  0.00    +0.000 A 
ATOM     16  C   UNL     1      -0.401  11.282  19.486  0.00  0.00    +0.000 A 
ATOM     17  C   UNL     1       0.731  10.758  20.317  0.00  0.00    +0.000 C 
ATOM     18  H   UNL     1      -2.802  13.025  18.314  0.00  0.00    +0.000 HD
ENDBRANCH   4   7
BRANCH   1  20
ATOM     19  C   UNL     1       0.968   2.413  18.734  0.00  0.00    +0.000 C 
ATOM     20  O   UNL     1       2.132   3.021  19.246  0.00  0.00    +0.000 OA
ENDBRANCH   1  20
BRANCH   6  21
ATOM     21  O   UNL     1       3.944   5.040  17.944  0.00  0.00    +0.000 OA
BRANCH  21  22
ATOM     22  C   UNL     1       5.052   5.944  17.701  0.00  0.00    +0.000 C 
ATOM     23  C   UNL     1       4.893   6.618  16.339  0.00  0.00    +0.000 C 
ATOM     24  C   UNL     1       5.532   5.901  15.147  0.00  0.00    +0.000 C 
ATOM     25  N   UNL     1       6.922   5.449  15.340  0.00  0.00    +0.000 NA
ATOM     26  C   UNL     1       7.042   4.664  16.579  0.00  0.00    +0.000 C 
ATOM     27  C   UNL     1       6.418   5.268  17.850  0.00  0.00    +0.000 C 
BRANCH  25  28
ATOM     28  C   UNL     1       7.375   4.668  14.136  0.00  0.00    +0.000 C 
ATOM     29  C   UNL     1       6.227   3.871  13.493  0.00  0.00    +0.000 C 
ATOM     30  C   UNL     1       8.024   5.502  13.013  0.00  0.00    +0.000 C 
ENDBRANCH  25  28
ENDBRANCH  21  22
ENDBRANCH   6  21
TORSDOF 5
ENDMDL
MODEL 2
REMARK VINA RESULT:      -7.8      2.402      3.241
REMARK  Name = 
REMARK  8 active torsions:
REMARK  status: ('A' for Active; 'I' for Inactive)
REMARK    1  A    between atoms: C_1  and  O_2
REMARK    2  A    between atoms: O_2  and  C_3
REMARK    3  A    between atoms: C_6  and  C_7
REMARK    4  A    between atoms: C_19  and  O_20
REMARK    5  A    between atoms: O_20  and  C_21
REMARK    6  A    between atoms: N_24  and  C_25
REMARK    7  A    between atoms: C_25  and  C_26
REMARK    8  A    between atoms: C_25  and  C_27
REMARK                            x       y       z     vdW  Elec       q    Type
REMARK                         _______ _______ _______ _____ _____    ______ ____
ROOT
ATOM      1  C   UNL     1       1.675   4.565  19.965  0.00  0.00    +0.000 A 
ATOM      2  C   UNL     1       1.639   5.732  20.748  0.00  0.00    +0.000 A 
ATOM      3  C   UNL     1       1.922   6.974  20.200  0.00  0.00    +0.000 A 
ATOM      4  C   UNL     1       2.141   7.112  18.838  0.00  0.00    +0.000 A 
ATOM      5  C   UNL     1       2.259   5.934  18.058  0.00  0.00    +0.000 A 
ATOM      6  C   UNL     1       2.026   4.641  18.599  0.00  0.00    +0.000 A 
ENDROOT
BRANCH   4   7
ATOM      7  C   UNL     1       2.333   8.473  18.229  0.00  0.00    +0.000 C 
ATOM      8  O   UNL     1       3.182   8.571  17.343  0.00  0.00    +0.000 OA
ATOM      9  N   UNL     1       1.590   9.588  18.664  0.00  0.00    +0.000 N 
ATOM     10  C   UNL     1       0.347   9.565  19.475  0.00  0.00    +0.000 C 
ATOM     11  C   UNL     1       0.541  10.352  20.788  0.00  0.00    +0.000 C 
ATOM     12  C   UNL     1       1.092  11.687  20.446  0.00  0.00    +0.000 A 
ATOM     13  N   UNL     1       1.023  12.751  21.246  0.00  0.00    +0.000 NA
ATOM     14  N   UNL     1       1.628  13.714  20.527  0.00  0.00    +0.000 N 
ATOM     15  C   UNL     1       2.064  13.290  19.299  0.00  0.00    +0.000 A 
ATOM     16  C   UNL     1       1.753  11.950  19.224  0.00  0.00    +0.000 A 
ATOM     17  C   UNL     1       1.948  10.929  18.144  0.00  0.00    +0.000 C 
ATOM     18  H   UNL     1       1.700  14.642  20.935  0.00  0.00    +0.000 HD
ENDBRANCH   4   7
BRANCH   1  20
ATOM     19  C   UNL     1       2.164   3.063  21.809  0.00  0.00    +0.000 C 
ATOM     20  O   UNL     1       1.336   3.512  20.760  0.00  0.00    +0.000 OA
ENDBRANCH   1  20
BRANCH   6  21
ATOM     21  O   UNL     1       2.169   3.471  17.868  0.00  0.00    +0.000 OA
BRANCH  21  22
ATOM     22  C   UNL     1       3.492   2.904  17.690  0.00  0.00    +0.000 C 
ATOM     23  C   UNL     1       4.276   2.972  19.000  0.00  0.00    +0.000 C 
ATOM     24  C   UNL     1       5.111   4.234  19.228  0.00  0.00    +0.000 C 
ATOM     25  N   UNL     1       5.958   4.655  18.097  0.00  0.00    +0.000 NA
ATOM     26  C   UNL     1       5.165   4.741  16.861  0.00  0.00    +0.000 C 
ATOM     27  C   UNL     1       4.261   3.539  16.528  0.00  0.00    +0.000 C 
BRANCH  25  28
ATOM     28  C   UNL     1       6.630   5.962  18.424  0.00  0.00    +0.000 C 
ATOM     29  C   UNL     1       7.886   5.770  19.291  0.00  0.00    +0.000 C 
ATOM     30  C   UNL     1       7.052   6.810  17.207  0.00  0.00    +0.000 C 
ENDBRANCH  25  28
ENDBRANCH  21  22
ENDBRANCH   6  21
TORSDOF 5
ENDMDL
MODEL 3
REMARK VINA RESULT:      -7.7      1.779      2.213
REMARK  Name = 
REMARK  8 active torsions:
REMARK  status: ('A' for Active; 'I' for Inactive)
REMARK    1  A    between atoms: C_1  and  O_2
REMARK    2  A    between atoms: O_2  and  C_3
REMARK    3  A    between atoms: C_6  and  C_7
REMARK    4  A    between atoms: C_19  and  O_20
REMARK    5  A    between atoms: O_20  and  C_21
REMARK    6  A    between atoms: N_24  and  C_25
REMARK    7  A    between atoms: C_25  and  C_26
REMARK    8  A    between atoms: C_25  and  C_27
REMARK                            x       y       z     vdW  Elec       q    Type
REMARK                         _______ _______ _______ _____ _____    ______ ____
ROOT
ATOM      1  C   UNL     1       2.777   5.125  20.031  0.00  0.00    +0.000 A 
ATOM      2  C   UNL     1       1.830   5.767  20.848  0.00  0.00    +0.000 A 
ATOM      3  C   UNL     1       1.448   7.079  20.613  0.00  0.00    +0.000 A 
ATOM      4  C   UNL     1       1.910   7.758  19.495  0.00  0.00    +0.000 A 
ATOM      5  C   UNL     1       2.923   7.148  18.713  0.00  0.00    +0.000 A 
ATOM      6  C   UNL     1       3.374   5.824  18.959  0.00  0.00    +0.000 A 
ENDROOT
BRANCH   4   7
ATOM      7  C   UNL     1       1.404   9.139  19.178  0.00  0.00    +0.000 C 
ATOM      8  O   UNL     1       1.919   9.712  18.217  0.00  0.00    +0.000 OA
ATOM      9  N   UNL     1       0.403   9.755  19.954  0.00  0.00    +0.000 N 
ATOM     10  C   UNL     1      -0.508   9.089  20.918  0.00  0.00    +0.000 C 
ATOM     11  C   UNL     1      -0.345   9.696  22.327  0.00  0.00    +0.000 C 
ATOM     12  C   UNL     1      -0.458  11.172  22.207  0.00  0.00    +0.000 A 
ATOM     13  N   UNL     1      -0.757  11.983  23.222  0.00  0.00    +0.000 NA
ATOM     14  N   UNL     1      -0.762  13.200  22.649  0.00  0.00    +0.000 N 
ATOM     15  C   UNL     1      -0.488  13.177  21.307  0.00  0.00    +0.000 A 
ATOM     16  C   UNL     1      -0.253  11.857  20.987  0.00  0.00    +0.000 A 
ATOM     17  C   UNL     1       0.074  11.177  19.693  0.00  0.00    +0.000 C 
ATOM     18  H   UNL     1      -0.970  14.004  23.235  0.00  0.00    +0.000 HD
ENDBRANCH   4   7
BRANCH   1  20
ATOM     19  C   UNL     1       1.889   3.139  21.109  0.00  0.00    +0.000 C 
ATOM     20  O   UNL     1       2.934   3.851  20.487  0.00  0.00    +0.000 OA
ENDBRANCH   1  20
BRANCH   6  21
ATOM     21  O   UNL     1       4.388   5.216  18.233  0.00  0.00    +0.000 OA
BRANCH  21  22
ATOM     22  C   UNL     1       5.522   6.009  17.800  0.00  0.00    +0.000 C 
ATOM     23  C   UNL     1       5.222   6.669  16.455  0.00  0.00    +0.000 C 
ATOM     24  C   UNL     1       5.608   5.874  15.206  0.00  0.00    +0.000 C 
ATOM     25  N   UNL     1       6.966   5.298  15.207  0.00  0.00    +0.000 NA
ATOM     26  C   UNL     1       7.199   4.528  16.439  0.00  0.00    +0.000 C 
ATOM     27  C   UNL     1       6.829   5.212  17.768  0.00  0.00    +0.000 C 
BRANCH  25  28
ATOM     28  C   UNL     1       7.162   4.456  13.975  0.00  0.00    +0.000 C 
ATOM     29  C   UNL     1       5.841   3.849  13.468  0.00  0.00    +0.000 C 
ATOM     30  C   UNL     1       7.812   5.177  12.777  0.00  0.00    +0.000 C 
ENDBRANCH  25  28
ENDBRANCH  21  22
ENDBRANCH   6  21
TORSDOF 5
ENDMDL
MODEL 4
REMARK VINA RESULT:      -7.7      0.775      1.004
REMARK  Name = 
REMARK  8 active torsions:
REMARK  status: ('A' for Active; 'I' for Inactive)
REMARK    1  A    between atoms: C_1  and  O_2
REMARK    2  A    between atoms: O_2  and  C_3
REMARK    3  A    between atoms: C_6  and  C_7
REMARK    4  A    between atoms: C_19  and  O_20
REMARK    5  A    between atoms: O_20  and  C_21
REMARK    6  A    between atoms: N_24  and  C_25
REMARK    7  A    between atoms: C_25  and  C_26
REMARK    8  A    between atoms: C_25  and  C_27
REMARK                            x       y       z     vdW  Elec       q    Type
REMARK                         _______ _______ _______ _____ _____    ______ ____
ROOT
ATOM      1  C   UNL     1       2.298   4.756  19.384  0.00  0.00    +0.000 A 
ATOM      2  C   UNL     1       1.672   4.962  20.626  0.00  0.00    +0.000 A 
ATOM      3  C   UNL     1       1.435   6.241  21.108  0.00  0.00    +0.000 A 
ATOM      4  C   UNL     1       1.710   7.352  20.326  0.00  0.00    +0.000 A 
ATOM      5  C   UNL     1       2.413   7.157  19.111  0.00  0.00    +0.000 A 
ATOM      6  C   UNL     1       2.718   5.861  18.612  0.00  0.00    +0.000 A 
ENDROOT
BRANCH   4   7
ATOM      7  C   UNL     1       1.346   8.731  20.804  0.00  0.00    +0.000 C 
ATOM      8  O   UNL     1       1.493   8.959  22.005  0.00  0.00    +0.000 OA
ATOM      9  N   UNL     1       0.842   9.709  19.924  0.00  0.00    +0.000 N 
ATOM     10  C   UNL     1       0.906   9.685  18.441  0.00  0.00    +0.000 C 
ATOM     11  C   UNL     1      -0.511   9.745  17.836  0.00  0.00    +0.000 C 
ATOM     12  C   UNL     1      -1.229  10.886  18.458  0.00  0.00    +0.000 A 
ATOM     13  N   UNL     1      -2.298  11.477  17.923  0.00  0.00    +0.000 NA
ATOM     14  N   UNL     1      -2.588  12.445  18.811  0.00  0.00    +0.000 N 
ATOM     15  C   UNL     1      -1.729  12.487  19.878  0.00  0.00    +0.000 A 
ATOM     16  C   UNL     1      -0.837  11.453  19.692  0.00  0.00    +0.000 A 
ATOM     17  C   UNL     1       0.344  10.985  20.488  0.00  0.00    +0.000 C 
ATOM     18  H   UNL     1      -3.383  13.048  18.620  0.00  0.00    +0.000 HD
ENDBRANCH   4   7
BRANCH   1  20
ATOM     19  C   UNL     1       1.554   2.750  18.235  0.00  0.00    +0.000 C 
ATOM     20  O   UNL     1       2.376   3.413  19.169  0.00  0.00    +0.000 OA
ENDBRANCH   1  20
BRANCH   6  21
ATOM     21  O   UNL     1       3.435   5.642  17.446  0.00  0.00    +0.000 OA
BRANCH  21  22
ATOM     22  C   UNL     1       4.855   5.359  17.530  0.00  0.00    +0.000 C 
ATOM     23  C   UNL     1       5.655   6.462  16.840  0.00  0.00    +0.000 C 
ATOM     24  C   UNL     1       5.948   6.261  15.351  0.00  0.00    +0.000 C 
ATOM     25  N   UNL     1       6.468   4.934  14.974  0.00  0.00    +0.000 NA
ATOM     26  C   UNL     1       5.605   3.870  15.510  0.00  0.00    +0.000 C 
ATOM     27  C   UNL     1       5.217   3.969  16.997  0.00  0.00    +0.000 C 
BRANCH  25  28
ATOM     28  C   UNL     1       6.601   4.847  13.477  0.00  0.00    +0.000 C 
ATOM     29  C   UNL     1       8.027   5.173  13.000  0.00  0.00    +0.000 C 
ATOM     30  C   UNL     1       6.223   3.486  12.858  0.00  0.00    +0.000 C 
ENDBRANCH  25  28
ENDBRANCH  21  22
ENDBRANCH   6  21
TORSDOF 5
ENDMDL
MODEL 5
REMARK VINA RESULT:      -7.7      3.568      8.361
REMARK  Name = 
REMARK  8 active torsions:
REMARK  status: ('A' for Active; 'I' for Inactive)
REMARK    1  A    between atoms: C_1  and  O_2
REMARK    2  A    between atoms: O_2  and  C_3
REMARK    3  A    between atoms: C_6  and  C_7
REMARK    4  A    between atoms: C_19  and  O_20
REMARK    5  A    between atoms: O_20  and  C_21
REMARK    6  A    between atoms: N_24  and  C_25
REMARK    7  A    between atoms: C_25  and  C_26
REMARK    8  A    between atoms: C_25  and  C_27
REMARK                            x       y       z     vdW  Elec       q    Type
REMARK                         _______ _______ _______ _____ _____    ______ ____
ROOT
ATOM      1  C   UNL     1       0.274  10.370  21.805  0.00  0.00    +0.000 A 
ATOM      2  C   UNL     1       0.637   9.054  22.141  0.00  0.00    +0.000 A 
ATOM      3  C   UNL     1       1.185   8.196  21.199  0.00  0.00    +0.000 A 
ATOM      4  C   UNL     1       1.493   8.651  19.926  0.00  0.00    +0.000 A 
ATOM      5  C   UNL     1       1.058   9.948  19.556  0.00  0.00    +0.000 A 
ATOM      6  C   UNL     1       0.445  10.834  20.483  0.00  0.00    +0.000 A 
ENDROOT
BRANCH   4   7
ATOM      7  C   UNL     1       2.193   7.753  18.944  0.00  0.00    +0.000 C 
ATOM      8  O   UNL     1       2.536   8.259  17.874  0.00  0.00    +0.000 OA
ATOM      9  N   UNL     1       2.430   6.393  19.225  0.00  0.00    +0.000 N 
ATOM     10  C   UNL     1       2.362   5.737  20.554  0.00  0.00    +0.000 C 
ATOM     11  C   UNL     1       1.325   4.595  20.543  0.00  0.00    +0.000 C 
ATOM     12  C   UNL     1       1.616   3.721  19.379  0.00  0.00    +0.000 A 
ATOM     13  N   UNL     1       1.200   2.459  19.269  0.00  0.00    +0.000 NA
ATOM     14  N   UNL     1       1.704   2.073  18.082  0.00  0.00    +0.000 N 
ATOM     15  C   UNL     1       2.431   3.048  17.452  0.00  0.00    +0.000 A 
ATOM     16  C   UNL     1       2.370   4.159  18.265  0.00  0.00    +0.000 A 
ATOM     17  C   UNL     1       2.969   5.527  18.149  0.00  0.00    +0.000 C 
ATOM     18  H   UNL     1       1.518   1.124  17.769  0.00  0.00    +0.000 HD
ENDBRANCH   4   7
BRANCH   1  20
ATOM     19  C   UNL     1      -1.571  11.319  23.066  0.00  0.00    +0.000 C 
ATOM     20  O   UNL     1      -0.212  10.973  22.926  0.00  0.00    +0.000 OA
ENDBRANCH   1  20
BRANCH   6  21
ATOM     21  O   UNL     1      -0.021  12.094  20.139  0.00  0.00    +0.000 OA
BRANCH  21  22
ATOM     22  C   UNL     1       0.596  13.265  20.732  0.00  0.00    +0.000 C 
ATOM     23  C   UNL     1       0.135  14.528  20.008  0.00  0.00    +0.000 C 
ATOM     24  C   UNL     1       0.985  14.980  18.818  0.00  0.00    +0.000 C 
ATOM     25  N   UNL     1       2.441  15.020  19.049  0.00  0.00    +0.000 NA
ATOM     26  C   UNL     1       2.911  13.741  19.603  0.00  0.00    +0.000 C 
ATOM     27  C   UNL     1       2.123  13.165  20.795  0.00  0.00    +0.000 C 
BRANCH  25  28
ATOM     28  C   UNL     1       3.150  15.370  17.768  0.00  0.00    +0.000 C 
ATOM     29  C   UNL     1       2.926  16.837  17.361  0.00  0.00    +0.000 C 
ATOM     30  C   UNL     1       4.673  15.133  17.770  0.00  0.00    +0.000 C 
ENDBRANCH  25  28
ENDBRANCH  21  22
ENDBRANCH   6  21
TORSDOF 5
ENDMDL
MODEL 6
REMARK VINA RESULT:      -7.4      3.603      8.942
REMARK  Name = 
REMARK  8 active torsions:
REMARK  status: ('A' for Active; 'I' for Inactive)
REMARK    1  A    between atoms: C_1  and  O_2
REMARK    2  A    between atoms: O_2  and  C_3
REMARK    3  A    between atoms: C_6  and  C_7
REMARK    4  A    between atoms: C_19  and  O_20
REMARK    5  A    between atoms: O_20  and  C_21
REMARK    6  A    between atoms: N_24  and  C_25
REMARK    7  A    between atoms: C_25  and  C_26
REMARK    8  A    between atoms: C_25  and  C_27
REMARK                            x       y       z     vdW  Elec       q    Type
REMARK                         _______ _______ _______ _____ _____    ______ ____
ROOT
ATOM      1  C   UNL     1       0.441  10.338  21.731  0.00  0.00    +0.000 A 
ATOM      2  C   UNL     1       0.533   8.957  21.979  0.00  0.00    +0.000 A 
ATOM      3  C   UNL     1       1.027   8.085  21.021  0.00  0.00    +0.000 A 
ATOM      4  C   UNL     1       1.548   8.568  19.829  0.00  0.00    +0.000 A 
ATOM      5  C   UNL     1       1.385   9.946  19.539  0.00  0.00    +0.000 A 
ATOM      6  C   UNL     1       0.835  10.858  20.479  0.00  0.00    +0.000 A 
ENDROOT
BRANCH   4   7
ATOM      7  C   UNL     1       2.189   7.632  18.842  0.00  0.00    +0.000 C 
ATOM      8  O   UNL     1       2.467   8.098  17.735  0.00  0.00    +0.000 OA
ATOM      9  N   UNL     1       2.442   6.283  19.159  0.00  0.00    +0.000 N 
ATOM     10  C   UNL     1       2.454   5.678  20.514  0.00  0.00    +0.000 C 
ATOM     11  C   UNL     1       1.418   4.538  20.607  0.00  0.00    +0.000 C 
ATOM     12  C   UNL     1       1.639   3.621  19.462  0.00  0.00    +0.000 A 
ATOM     13  N   UNL     1       1.218   2.357  19.424  0.00  0.00    +0.000 NA
ATOM     14  N   UNL     1       1.650   1.926  18.225  0.00  0.00    +0.000 N 
ATOM     15  C   UNL     1       2.339   2.874  17.516  0.00  0.00    +0.000 A 
ATOM     16  C   UNL     1       2.325   4.015  18.289  0.00  0.00    +0.000 A 
ATOM     17  C   UNL     1       2.916   5.377  18.086  0.00  0.00    +0.000 C 
ATOM     18  H   UNL     1       1.447   0.966  17.960  0.00  0.00    +0.000 HD
ENDBRANCH   4   7
BRANCH   1  20
ATOM     19  C   UNL     1      -1.439  11.019  23.109  0.00  0.00    +0.000 C 
ATOM     20  O   UNL     1      -0.056  10.936  22.850  0.00  0.00    +0.000 OA
ENDBRANCH   1  20
BRANCH   6  21
ATOM     21  O   UNL     1       0.631  12.202  20.208  0.00  0.00    +0.000 OA
BRANCH  21  22
ATOM     22  C   UNL     1       1.615  13.172  20.651  0.00  0.00    +0.000 C 
ATOM     23  C   UNL     1       0.931  14.309  21.408  0.00  0.00    +0.000 C 
ATOM     24  C   UNL     1       0.481  15.509  20.571  0.00  0.00    +0.000 C 
ATOM     25  N   UNL     1       1.480  16.043  19.627  0.00  0.00    +0.000 NA
ATOM     26  C   UNL     1       2.026  14.966  18.788  0.00  0.00    +0.000 C 
ATOM     27  C   UNL     1       2.496  13.690  19.511  0.00  0.00    +0.000 C 
BRANCH  25  28
ATOM     28  C   UNL     1       0.863  17.139  18.800  0.00  0.00    +0.000 C 
ATOM     29  C   UNL     1       1.728  17.506  17.581  0.00  0.00    +0.000 C 
ATOM     30  C   UNL     1      -0.556  16.849  18.270  0.00  0.00    +0.000 C 
ENDBRANCH  25  28
ENDBRANCH  21  22
ENDBRANCH   6  21
TORSDOF 5
ENDMDL
MODEL 7
REMARK VINA RESULT:      -7.3      3.516      9.029
REMARK  Name = 
REMARK  8 active torsions:
REMARK  status: ('A' for Active; 'I' for Inactive)
REMARK    1  A    between atoms: C_1  and  O_2
REMARK    2  A    between atoms: O_2  and  C_3
REMARK    3  A    between atoms: C_6  and  C_7
REMARK    4  A    between atoms: C_19  and  O_20
REMARK    5  A    between atoms: O_20  and  C_21
REMARK    6  A    between atoms: N_24  and  C_25
REMARK    7  A    between atoms: C_25  and  C_26
REMARK    8  A    between atoms: C_25  and  C_27
REMARK                            x       y       z     vdW  Elec       q    Type
REMARK                         _______ _______ _______ _____ _____    ______ ____
ROOT
ATOM      1  C   UNL     1       0.362  10.317  21.850  0.00  0.00    +0.000 A 
ATOM      2  C   UNL     1       0.453   8.927  22.038  0.00  0.00    +0.000 A 
ATOM      3  C   UNL     1       0.962   8.098  21.050  0.00  0.00    +0.000 A 
ATOM      4  C   UNL     1       1.499   8.634  19.888  0.00  0.00    +0.000 A 
ATOM      5  C   UNL     1       1.339  10.023  19.657  0.00  0.00    +0.000 A 
ATOM      6  C   UNL     1       0.774  10.893  20.628  0.00  0.00    +0.000 A 
ENDROOT
BRANCH   4   7
ATOM      7  C   UNL     1       2.156   7.743  18.870  0.00  0.00    +0.000 C 
ATOM      8  O   UNL     1       2.409   8.245  17.774  0.00  0.00    +0.000 OA
ATOM      9  N   UNL     1       2.451   6.394  19.149  0.00  0.00    +0.000 N 
ATOM     10  C   UNL     1       2.494   5.754  20.488  0.00  0.00    +0.000 C 
ATOM     11  C   UNL     1       1.492   4.583  20.561  0.00  0.00    +0.000 C 
ATOM     12  C   UNL     1       1.727   3.702  19.390  0.00  0.00    +0.000 A 
ATOM     13  N   UNL     1       1.341   2.429  19.323  0.00  0.00    +0.000 NA
ATOM     14  N   UNL     1       1.772   2.041  18.109  0.00  0.00    +0.000 N 
ATOM     15  C   UNL     1       2.426   3.027  17.418  0.00  0.00    +0.000 A 
ATOM     16  C   UNL     1       2.389   4.146  18.221  0.00  0.00    +0.000 A 
ATOM     17  C   UNL     1       2.939   5.530  18.048  0.00  0.00    +0.000 C 
ATOM     18  H   UNL     1       1.593   1.083  17.820  0.00  0.00    +0.000 HD
ENDBRANCH   4   7
BRANCH   1  20
ATOM     19  C   UNL     1      -1.511  11.216  23.106  0.00  0.00    +0.000 C 
ATOM     20  O   UNL     1      -0.152  10.865  22.987  0.00  0.00    +0.000 OA
ENDBRANCH   1  20
BRANCH   6  21
ATOM     21  O   UNL     1       0.573  12.247  20.414  0.00  0.00    +0.000 OA
BRANCH  21  22
ATOM     22  C   UNL     1       0.771  12.792  19.084  0.00  0.00    +0.000 C 
ATOM     23  C   UNL     1       2.109  13.526  19.008  0.00  0.00    +0.000 C 
ATOM     24  C   UNL     1       2.086  15.017  19.352  0.00  0.00    +0.000 C 
ATOM     25  N   UNL     1       1.025  15.809  18.704  0.00  0.00    +0.000 NA
ATOM     26  C   UNL     1      -0.289  15.180  18.912  0.00  0.00    +0.000 C 
ATOM     27  C   UNL     1      -0.393  13.672  18.621  0.00  0.00    +0.000 C 
BRANCH  25  28
ATOM     28  C   UNL     1       1.057  17.223  19.220  0.00  0.00    +0.000 C 
ATOM     29  C   UNL     1       0.975  18.259  18.086  0.00  0.00    +0.000 C 
ATOM     30  C   UNL     1      -0.049  17.582  20.234  0.00  0.00    +0.000 C 
ENDBRANCH  25  28
ENDBRANCH  21  22
ENDBRANCH   6  21
TORSDOF 5
ENDMDL
MODEL 8
REMARK VINA RESULT:      -7.3      3.372      9.271
REMARK  Name = 
REMARK  8 active torsions:
REMARK  status: ('A' for Active; 'I' for Inactive)
REMARK    1  A    between atoms: C_1  and  O_2
REMARK    2  A    between atoms: O_2  and  C_3
REMARK    3  A    between atoms: C_6  and  C_7
REMARK    4  A    between atoms: C_19  and  O_20
REMARK    5  A    between atoms: O_20  and  C_21
REMARK    6  A    between atoms: N_24  and  C_25
REMARK    7  A    between atoms: C_25  and  C_26
REMARK    8  A    between atoms: C_25  and  C_27
REMARK                            x       y       z     vdW  Elec       q    Type
REMARK                         _______ _______ _______ _____ _____    ______ ____
ROOT
ATOM      1  C   UNL     1      -0.316  10.420  19.957  0.00  0.00    +0.000 A 
ATOM      2  C   UNL     1       0.498   9.662  20.817  0.00  0.00    +0.000 A 
ATOM      3  C   UNL     1       1.366   8.700  20.323  0.00  0.00    +0.000 A 
ATOM      4  C   UNL     1       1.536   8.537  18.956  0.00  0.00    +0.000 A 
ATOM      5  C   UNL     1       0.663   9.239  18.086  0.00  0.00    +0.000 A 
ATOM      6  C   UNL     1      -0.275  10.194  18.563  0.00  0.00    +0.000 A 
ENDROOT
BRANCH   4   7
ATOM      7  C   UNL     1       2.562   7.576  18.423  0.00  0.00    +0.000 C 
ATOM      8  O   UNL     1       3.282   7.982  17.509  0.00  0.00    +0.000 OA
ATOM      9  N   UNL     1       2.684   6.268  18.932  0.00  0.00    +0.000 N 
ATOM     10  C   UNL     1       2.121   5.756  20.207  0.00  0.00    +0.000 C 
ATOM     11  C   UNL     1       1.173   4.568  19.942  0.00  0.00    +0.000 C 
ATOM     12  C   UNL     1       1.890   3.590  19.085  0.00  0.00    +0.000 A 
ATOM     13  N   UNL     1       1.555   2.304  18.978  0.00  0.00    +0.000 NA
ATOM     14  N   UNL     1       2.474   1.819  18.123  0.00  0.00    +0.000 N 
ATOM     15  C   UNL     1       3.380   2.757  17.701  0.00  0.00    +0.000 A 
ATOM     16  C   UNL     1       3.007   3.944  18.293  0.00  0.00    +0.000 A 
ATOM     17  C   UNL     1       3.596   5.321  18.249  0.00  0.00    +0.000 C 
ATOM     18  H   UNL     1       2.427   0.834  17.878  0.00  0.00    +0.000 HD
ENDBRANCH   4   7
BRANCH   1  20
ATOM     19  C   UNL     1      -1.274  12.620  20.321  0.00  0.00    +0.000 C 
ATOM     20  O   UNL     1      -1.040  11.289  20.717  0.00  0.00    +0.000 OA
ENDBRANCH   1  20
BRANCH   6  21
ATOM     21  O   UNL     1      -1.163  10.867  17.740  0.00  0.00    +0.000 OA
BRANCH  21  22
ATOM     22  C   UNL     1      -2.158  10.111  17.002  0.00  0.00    +0.000 C 
ATOM     23  C   UNL     1      -2.866  11.014  15.994  0.00  0.00    +0.000 C 
ATOM     24  C   UNL     1      -4.127  11.728  16.488  0.00  0.00    +0.000 C 
ATOM     25  N   UNL     1      -5.103  10.884  17.201  0.00  0.00    +0.000 NA
ATOM     26  C   UNL     1      -4.445  10.129  18.279  0.00  0.00    +0.000 C 
ATOM     27  C   UNL     1      -3.149   9.382  17.914  0.00  0.00    +0.000 C 
BRANCH  25  28
ATOM     28  C   UNL     1      -6.228  11.738  17.722  0.00  0.00    +0.000 C 
ATOM     29  C   UNL     1      -7.045  11.023  18.813  0.00  0.00    +0.000 C 
ATOM     30  C   UNL     1      -5.808  13.104  18.302  0.00  0.00    +0.000 C 
ENDBRANCH  25  28
ENDBRANCH  21  22
ENDBRANCH   6  21
TORSDOF 5
ENDMDL
MODEL 9
REMARK VINA RESULT:      -7.2      3.428      9.114
REMARK  Name = 
REMARK  8 active torsions:
REMARK  status: ('A' for Active; 'I' for Inactive)
REMARK    1  A    between atoms: C_1  and  O_2
REMARK    2  A    between atoms: O_2  and  C_3
REMARK    3  A    between atoms: C_6  and  C_7
REMARK    4  A    between atoms: C_19  and  O_20
REMARK    5  A    between atoms: O_20  and  C_21
REMARK    6  A    between atoms: N_24  and  C_25
REMARK    7  A    between atoms: C_25  and  C_26
REMARK    8  A    between atoms: C_25  and  C_27
REMARK                            x       y       z     vdW  Elec       q    Type
REMARK                         _______ _______ _______ _____ _____    ______ ____
ROOT
ATOM      1  C   UNL     1       0.405  10.311  21.290  0.00  0.00    +0.000 A 
ATOM      2  C   UNL     1       0.912   9.110  21.817  0.00  0.00    +0.000 A 
ATOM      3  C   UNL     1       1.497   8.155  20.999  0.00  0.00    +0.000 A 
ATOM      4  C   UNL     1       1.697   8.409  19.650  0.00  0.00    +0.000 A 
ATOM      5  C   UNL     1       1.119   9.579  19.097  0.00  0.00    +0.000 A 
ATOM      6  C   UNL     1       0.467  10.553  19.900  0.00  0.00    +0.000 A 
ENDROOT
BRANCH   4   7
ATOM      7  C   UNL     1       2.435   7.421  18.790  0.00  0.00    +0.000 C 
ATOM      8  O   UNL     1       2.911   7.848  17.737  0.00  0.00    +0.000 OA
ATOM      9  N   UNL     1       2.561   6.067  19.160  0.00  0.00    +0.000 N 
ATOM     10  C   UNL     1       2.324   5.490  20.507  0.00  0.00    +0.000 C 
ATOM     11  C   UNL     1       1.226   4.408  20.447  0.00  0.00    +0.000 C 
ATOM     12  C   UNL     1       1.577   3.457  19.363  0.00  0.00    +0.000 A 
ATOM     13  N   UNL     1       1.099   2.216  19.274  0.00  0.00    +0.000 NA
ATOM     14  N   UNL     1       1.692   1.738  18.166  0.00  0.00    +0.000 N 
ATOM     15  C   UNL     1       2.536   2.635  17.564  0.00  0.00    +0.000 A 
ATOM     16  C   UNL     1       2.461   3.790  18.311  0.00  0.00    +0.000 A 
ATOM     17  C   UNL     1       3.150   5.116  18.188  0.00  0.00    +0.000 C 
ATOM     18  H   UNL     1       1.482   0.785  17.882  0.00  0.00    +0.000 HD
ENDBRANCH   4   7
BRANCH   1  20
ATOM     19  C   UNL     1      -1.057  10.556  23.212  0.00  0.00    +0.000 C 
ATOM     20  O   UNL     1      -0.084  11.053  22.322  0.00  0.00    +0.000 OA
ENDBRANCH   1  20
BRANCH   6  21
ATOM     21  O   UNL     1      -0.138  11.687  19.381  0.00  0.00    +0.000 OA
BRANCH  21  22
ATOM     22  C   UNL     1       0.686  12.718  18.779  0.00  0.00    +0.000 C 
ATOM     23  C   UNL     1       1.830  13.096  19.718  0.00  0.00    +0.000 C 
ATOM     24  C   UNL     1       1.552  14.233  20.704  0.00  0.00    +0.000 C 
ATOM     25  N   UNL     1       0.934  15.442  20.131  0.00  0.00    +0.000 NA
ATOM     26  C   UNL     1      -0.263  15.091  19.351  0.00  0.00    +0.000 C 
ATOM     27  C   UNL     1      -0.121  13.942  18.336  0.00  0.00    +0.000 C 
BRANCH  25  28
ATOM     28  C   UNL     1       0.620  16.422  21.229  0.00  0.00    +0.000 C 
ATOM     29  C   UNL     1       1.891  17.003  21.873  0.00  0.00    +0.000 C 
ATOM     30  C   UNL     1      -0.259  17.620  20.815  0.00  0.00    +0.000 C 
ENDBRANCH  25  28
ENDBRANCH  21  22
ENDBRANCH   6  21
TORSDOF 5
ENDMDL
