MODEL 1
REMARK VINA RESULT:      -7.9      0.000      0.000
REMARK  Name = 
REMARK  4 active torsions:
REMARK  status: ('A' for Active; 'I' for Inactive)
REMARK    1  A    between atoms: C_2  and  C_3
REMARK    2  A    between atoms: C_2  and  C_8
REMARK    3  A    between atoms: C_9  and  C_10
REMARK    4  A    between atoms: C_19  and  C_20
REMARK                            x       y       z     vdW  Elec       q    Type
REMARK                         _______ _______ _______ _____ _____    ______ ____
ROOT
ATOM      1  C   UNL     1       1.057   9.447  19.237  0.00  0.00    +0.000 A 
ATOM      2  C   UNL     1       0.919   8.626  20.366  0.00  0.00    +0.000 A 
ATOM      3  N   UNL     1       1.665   7.465  20.460  0.00  0.00    +0.000 N 
ATOM      4  O   UNL     1       1.596   6.728  21.490  0.00  0.00    +0.000 OA
ATOM      5  C   UNL     1       2.521   7.083  19.398  0.00  0.00    +0.000 A 
ATOM      6  C   UNL     1       3.273   5.884  19.446  0.00  0.00    +0.000 A 
ATOM      7  C   UNL     1       4.120   5.516  18.397  0.00  0.00    +0.000 A 
ATOM      8  C   UNL     1       4.256   6.335  17.271  0.00  0.00    +0.000 A 
ATOM      9  C   UNL     1       3.529   7.532  17.229  0.00  0.00    +0.000 A 
ATOM     10  C   UNL     1       2.661   7.917  18.279  0.00  0.00    +0.000 A 
ATOM     11  N   UNL     1       1.963   9.134  18.226  0.00  0.00    +0.000 N 
ATOM     12  O   UNL     1       2.231   9.946  17.281  0.00  0.00    +0.000 OA
ENDROOT
BRANCH   2  13
ATOM     13  C   UNL     1       0.050   8.882  21.547  0.00  0.00    +0.000 C 
ATOM     14  F   UNL     1      -0.661  10.040  21.484  0.00  0.00    +0.000 F 
ATOM     15  F   UNL     1      -0.916   7.933  21.711  0.00  0.00    +0.000 F 
ATOM     16  F   UNL     1       0.744   8.941  22.718  0.00  0.00    +0.000 F 
ENDBRANCH   2  13
BRANCH   8  17
ATOM     17  C   UNL     1       5.152   5.961  16.117  0.00  0.00    +0.000 C 
ATOM     18  F   UNL     1       4.955   4.694  15.664  0.00  0.00    +0.000 F 
ATOM     19  F   UNL     1       4.977   6.778  15.038  0.00  0.00    +0.000 F 
ATOM     20  F   UNL     1       6.475   6.044  16.437  0.00  0.00    +0.000 F 
ENDBRANCH   8  17
BRANCH   1  22
ATOM     21  O   UNL     1       1.076  11.725  19.494  0.00  0.00    +0.000 OA
ATOM     22  C   UNL     1       0.410  10.766  19.107  0.00  0.00    +0.000 C 
BRANCH  22  23
ATOM     23  C   UNL     1      -0.891  10.884  18.481  0.00  0.00    +0.000 A 
ATOM     24  C   UNL     1      -1.496  10.096  17.522  0.00  0.00    +0.000 A 
ATOM     25  C   UNL     1      -2.830  10.552  17.398  0.00  0.00    +0.000 A 
ATOM     26  C   UNL     1      -2.944  11.631  18.241  0.00  0.00    +0.000 A 
ATOM     27  O   UNL     1      -1.765  11.865  18.880  0.00  0.00    +0.000 OA
ENDBRANCH  22  23
ENDBRANCH   1  22
TORSDOF 4
ENDMDL
MODEL 2
REMARK VINA RESULT:      -7.9      0.030      1.022
REMARK  Name = 
REMARK  4 active torsions:
REMARK  status: ('A' for Active; 'I' for Inactive)
REMARK    1  A    between atoms: C_2  and  C_3
REMARK    2  A    between atoms: C_2  and  C_8
REMARK    3  A    between atoms: C_9  and  C_10
REMARK    4  A    between atoms: C_19  and  C_20
REMARK                            x       y       z     vdW  Elec       q    Type
REMARK                         _______ _______ _______ _____ _____    ______ ____
ROOT
ATOM      1  C   UNL     1       1.042   9.447  19.242  0.00  0.00    +0.000 A 
ATOM      2  C   UNL     1       0.903   8.625  20.370  0.00  0.00    +0.000 A 
ATOM      3  N   UNL     1       1.650   7.464  20.464  0.00  0.00    +0.000 N 
ATOM      4  O   UNL     1       1.579   6.727  21.494  0.00  0.00    +0.000 OA
ATOM      5  C   UNL     1       2.509   7.085  19.404  0.00  0.00    +0.000 A 
ATOM      6  C   UNL     1       3.262   5.887  19.453  0.00  0.00    +0.000 A 
ATOM      7  C   UNL     1       4.113   5.521  18.406  0.00  0.00    +0.000 A 
ATOM      8  C   UNL     1       4.250   6.341  17.281  0.00  0.00    +0.000 A 
ATOM      9  C   UNL     1       3.522   7.537  17.238  0.00  0.00    +0.000 A 
ATOM     10  C   UNL     1       2.651   7.919  18.287  0.00  0.00    +0.000 A 
ATOM     11  N   UNL     1       1.951   9.136  18.233  0.00  0.00    +0.000 N 
ATOM     12  O   UNL     1       2.220   9.949  17.289  0.00  0.00    +0.000 OA
ENDROOT
BRANCH   2  13
ATOM     13  C   UNL     1       0.030   8.878  21.549  0.00  0.00    +0.000 C 
ATOM     14  F   UNL     1       0.692   8.957  22.735  0.00  0.00    +0.000 F 
ATOM     15  F   UNL     1      -0.625  10.072  21.478  0.00  0.00    +0.000 F 
ATOM     16  F   UNL     1      -0.922   7.919  21.724  0.00  0.00    +0.000 F 
ENDBRANCH   2  13
BRANCH   8  17
ATOM     17  C   UNL     1       5.150   5.969  16.129  0.00  0.00    +0.000 C 
ATOM     18  F   UNL     1       4.982   6.754  15.032  0.00  0.00    +0.000 F 
ATOM     19  F   UNL     1       6.472   6.057  16.455  0.00  0.00    +0.000 F 
ATOM     20  F   UNL     1       4.955   4.687  15.708  0.00  0.00    +0.000 F 
ENDBRANCH   8  17
BRANCH   1  22
ATOM     21  O   UNL     1       1.065  11.726  19.484  0.00  0.00    +0.000 OA
ATOM     22  C   UNL     1       0.394  10.765  19.111  0.00  0.00    +0.000 C 
BRANCH  22  23
ATOM     23  C   UNL     1      -0.915  10.880  18.501  0.00  0.00    +0.000 A 
ATOM     24  C   UNL     1      -1.523  10.098  17.538  0.00  0.00    +0.000 A 
ATOM     25  C   UNL     1      -2.862  10.543  17.434  0.00  0.00    +0.000 A 
ATOM     26  C   UNL     1      -2.976  11.610  18.292  0.00  0.00    +0.000 A 
ATOM     27  O   UNL     1      -1.793  11.847  18.921  0.00  0.00    +0.000 OA
ENDBRANCH  22  23
ENDBRANCH   1  22
TORSDOF 4
ENDMDL
MODEL 3
REMARK VINA RESULT:      -7.8      6.097      8.354
REMARK  Name = 
REMARK  4 active torsions:
REMARK  status: ('A' for Active; 'I' for Inactive)
REMARK    1  A    between atoms: C_2  and  C_3
REMARK    2  A    between atoms: C_2  and  C_8
REMARK    3  A    between atoms: C_9  and  C_10
REMARK    4  A    between atoms: C_19  and  C_20
REMARK                            x       y       z     vdW  Elec       q    Type
REMARK                         _______ _______ _______ _____ _____    ______ ____
ROOT
ATOM      1  C   UNL     1       6.293   4.439  17.716  0.00  0.00    +0.000 A 
ATOM      2  C   UNL     1       5.640   4.228  16.492  0.00  0.00    +0.000 A 
ATOM      3  N   UNL     1       4.324   3.800  16.486  0.00  0.00    +0.000 N 
ATOM      4  O   UNL     1       3.695   3.647  15.395  0.00  0.00    +0.000 OA
ATOM      5  C   UNL     1       3.661   3.528  17.707  0.00  0.00    +0.000 A 
ATOM      6  C   UNL     1       2.326   3.056  17.735  0.00  0.00    +0.000 A 
ATOM      7  C   UNL     1       1.675   2.794  18.944  0.00  0.00    +0.000 A 
ATOM      8  C   UNL     1       2.326   3.003  20.164  0.00  0.00    +0.000 A 
ATOM      9  C   UNL     1       3.640   3.489  20.140  0.00  0.00    +0.000 A 
ATOM     10  C   UNL     1       4.317   3.753  18.925  0.00  0.00    +0.000 A 
ATOM     11  N   UNL     1       5.625   4.264  18.927  0.00  0.00    +0.000 N 
ATOM     12  O   UNL     1       6.138   4.613  20.040  0.00  0.00    +0.000 OA
ENDROOT
BRANCH   2  13
ATOM     13  C   UNL     1       6.209   4.450  15.135  0.00  0.00    +0.000 C 
ATOM     14  F   UNL     1       5.957   3.451  14.247  0.00  0.00    +0.000 F 
ATOM     15  F   UNL     1       5.695   5.552  14.517  0.00  0.00    +0.000 F 
ATOM     16  F   UNL     1       7.563   4.601  15.142  0.00  0.00    +0.000 F 
ENDBRANCH   2  13
BRANCH   8  17
ATOM     17  C   UNL     1       1.656   2.719  21.485  0.00  0.00    +0.000 C 
ATOM     18  F   UNL     1       1.983   1.509  22.011  0.00  0.00    +0.000 F 
ATOM     19  F   UNL     1       1.975   3.643  22.437  0.00  0.00    +0.000 F 
ATOM     20  F   UNL     1       0.296   2.733  21.392  0.00  0.00    +0.000 F 
ENDBRANCH   8  17
BRANCH   1  22
ATOM     21  O   UNL     1       8.571   4.212  17.826  0.00  0.00    +0.000 OA
ATOM     22  C   UNL     1       7.643   5.020  17.828  0.00  0.00    +0.000 C 
BRANCH  22  23
ATOM     23  C   UNL     1       7.822   6.457  17.851  0.00  0.00    +0.000 A 
ATOM     24  C   UNL     1       7.313   7.434  17.018  0.00  0.00    +0.000 A 
ATOM     25  C   UNL     1       7.654   8.681  17.593  0.00  0.00    +0.000 A 
ATOM     26  C   UNL     1       8.404   8.395  18.708  0.00  0.00    +0.000 A 
ATOM     27  O   UNL     1       8.543   7.049  18.857  0.00  0.00    +0.000 OA
ENDBRANCH  22  23
ENDBRANCH   1  22
TORSDOF 4
ENDMDL
MODEL 4
REMARK VINA RESULT:      -7.8      6.025      8.342
REMARK  Name = 
REMARK  4 active torsions:
REMARK  status: ('A' for Active; 'I' for Inactive)
REMARK    1  A    between atoms: C_2  and  C_3
REMARK    2  A    between atoms: C_2  and  C_8
REMARK    3  A    between atoms: C_9  and  C_10
REMARK    4  A    between atoms: C_19  and  C_20
REMARK                            x       y       z     vdW  Elec       q    Type
REMARK                         _______ _______ _______ _____ _____    ______ ____
ROOT
ATOM      1  C   UNL     1       6.249   4.461  17.675  0.00  0.00    +0.000 A 
ATOM      2  C   UNL     1       5.578   4.249  16.461  0.00  0.00    +0.000 A 
ATOM      3  N   UNL     1       4.268   3.806  16.475  0.00  0.00    +0.000 N 
ATOM      4  O   UNL     1       3.622   3.652  15.394  0.00  0.00    +0.000 OA
ATOM      5  C   UNL     1       3.628   3.520  17.705  0.00  0.00    +0.000 A 
ATOM      6  C   UNL     1       2.299   3.033  17.754  0.00  0.00    +0.000 A 
ATOM      7  C   UNL     1       1.671   2.757  18.972  0.00  0.00    +0.000 A 
ATOM      8  C   UNL     1       2.341   2.968  20.182  0.00  0.00    +0.000 A 
ATOM      9  C   UNL     1       3.649   3.469  20.138  0.00  0.00    +0.000 A 
ATOM     10  C   UNL     1       4.302   3.746  18.913  0.00  0.00    +0.000 A 
ATOM     11  N   UNL     1       5.604   4.272  18.896  0.00  0.00    +0.000 N 
ATOM     12  O   UNL     1       6.131   4.622  20.002  0.00  0.00    +0.000 OA
ENDROOT
BRANCH   2  13
ATOM     13  C   UNL     1       6.122   4.485  15.096  0.00  0.00    +0.000 C 
ATOM     14  F   UNL     1       7.467   4.686  15.051  0.00  0.00    +0.000 F 
ATOM     15  F   UNL     1       5.938   3.423  14.260  0.00  0.00    +0.000 F 
ATOM     16  F   UNL     1       5.569   5.567  14.481  0.00  0.00    +0.000 F 
ENDBRANCH   2  13
BRANCH   8  17
ATOM     17  C   UNL     1       1.696   2.669  21.512  0.00  0.00    +0.000 C 
ATOM     18  F   UNL     1       2.028   1.451  22.016  0.00  0.00    +0.000 F 
ATOM     19  F   UNL     1       2.039   3.579  22.470  0.00  0.00    +0.000 F 
ATOM     20  F   UNL     1       0.334   2.691  21.447  0.00  0.00    +0.000 F 
ENDBRANCH   8  17
BRANCH   1  22
ATOM     21  O   UNL     1       8.533   4.273  17.632  0.00  0.00    +0.000 OA
ATOM     22  C   UNL     1       7.595   5.057  17.768  0.00  0.00    +0.000 C 
BRANCH  22  23
ATOM     23  C   UNL     1       7.752   6.488  17.925  0.00  0.00    +0.000 A 
ATOM     24  C   UNL     1       8.427   7.212  18.888  0.00  0.00    +0.000 A 
ATOM     25  C   UNL     1       8.413   8.564  18.470  0.00  0.00    +0.000 A 
ATOM     26  C   UNL     1       7.677   8.596  17.311  0.00  0.00    +0.000 A 
ATOM     27  O   UNL     1       7.240   7.348  16.986  0.00  0.00    +0.000 OA
ENDBRANCH  22  23
ENDBRANCH   1  22
TORSDOF 4
ENDMDL
MODEL 5
REMARK VINA RESULT:      -7.8      4.996      7.147
REMARK  Name = 
REMARK  4 active torsions:
REMARK  status: ('A' for Active; 'I' for Inactive)
REMARK    1  A    between atoms: C_2  and  C_3
REMARK    2  A    between atoms: C_2  and  C_8
REMARK    3  A    between atoms: C_9  and  C_10
REMARK    4  A    between atoms: C_19  and  C_20
REMARK                            x       y       z     vdW  Elec       q    Type
REMARK                         _______ _______ _______ _____ _____    ______ ____
ROOT
ATOM      1  C   UNL     1       5.440   4.309  17.765  0.00  0.00    +0.000 A 
ATOM      2  C   UNL     1       6.564   5.144  17.687  0.00  0.00    +0.000 A 
ATOM      3  N   UNL     1       7.103   5.449  16.449  0.00  0.00    +0.000 N 
ATOM      4  O   UNL     1       8.090   6.239  16.346  0.00  0.00    +0.000 OA
ATOM      5  C   UNL     1       6.553   4.877  15.276  0.00  0.00    +0.000 A 
ATOM      6  C   UNL     1       7.101   5.140  13.996  0.00  0.00    +0.000 A 
ATOM      7  C   UNL     1       6.551   4.577  12.842  0.00  0.00    +0.000 A 
ATOM      8  C   UNL     1       5.431   3.742  12.921  0.00  0.00    +0.000 A 
ATOM      9  C   UNL     1       4.874   3.496  14.183  0.00  0.00    +0.000 A 
ATOM     10  C   UNL     1       5.423   4.053  15.363  0.00  0.00    +0.000 A 
ATOM     11  N   UNL     1       4.832   3.812  16.613  0.00  0.00    +0.000 N 
ATOM     12  O   UNL     1       3.716   3.198  16.648  0.00  0.00    +0.000 OA
ENDROOT
BRANCH   2  13
ATOM     13  C   UNL     1       7.261   5.801  18.826  0.00  0.00    +0.000 C 
ATOM     14  F   UNL     1       6.562   5.797  19.993  0.00  0.00    +0.000 F 
ATOM     15  F   UNL     1       8.429   5.182  19.162  0.00  0.00    +0.000 F 
ATOM     16  F   UNL     1       7.565   7.107  18.585  0.00  0.00    +0.000 F 
ENDBRANCH   2  13
BRANCH   8  17
ATOM     17  C   UNL     1       4.821   3.110  11.695  0.00  0.00    +0.000 C 
ATOM     18  F   UNL     1       5.407   1.935  11.340  0.00  0.00    +0.000 F 
ATOM     19  F   UNL     1       3.495   2.833  11.860  0.00  0.00    +0.000 F 
ATOM     20  F   UNL     1       4.900   3.916  10.598  0.00  0.00    +0.000 F 
ENDBRANCH   8  17
BRANCH   1  22
ATOM     21  O   UNL     1       5.160   3.112  19.699  0.00  0.00    +0.000 OA
ATOM     22  C   UNL     1       4.715   4.036  19.019  0.00  0.00    +0.000 C 
BRANCH  22  23
ATOM     23  C   UNL     1       3.610   4.879  19.425  0.00  0.00    +0.000 A 
ATOM     24  C   UNL     1       2.599   4.649  20.337  0.00  0.00    +0.000 A 
ATOM     25  C   UNL     1       1.891   5.866  20.480  0.00  0.00    +0.000 A 
ATOM     26  C   UNL     1       2.470   6.749  19.601  0.00  0.00    +0.000 A 
ATOM     27  O   UNL     1       3.493   6.153  18.929  0.00  0.00    +0.000 OA
ENDBRANCH  22  23
ENDBRANCH   1  22
TORSDOF 4
ENDMDL
MODEL 6
REMARK VINA RESULT:      -7.8      5.007      7.127
REMARK  Name = 
REMARK  4 active torsions:
REMARK  status: ('A' for Active; 'I' for Inactive)
REMARK    1  A    between atoms: C_2  and  C_3
REMARK    2  A    between atoms: C_2  and  C_8
REMARK    3  A    between atoms: C_9  and  C_10
REMARK    4  A    between atoms: C_19  and  C_20
REMARK                            x       y       z     vdW  Elec       q    Type
REMARK                         _______ _______ _______ _____ _____    ______ ____
ROOT
ATOM      1  C   UNL     1       5.452   4.290  17.789  0.00  0.00    +0.000 A 
ATOM      2  C   UNL     1       6.575   5.127  17.711  0.00  0.00    +0.000 A 
ATOM      3  N   UNL     1       7.110   5.437  16.474  0.00  0.00    +0.000 N 
ATOM      4  O   UNL     1       8.096   6.229  16.371  0.00  0.00    +0.000 OA
ATOM      5  C   UNL     1       6.559   4.869  15.299  0.00  0.00    +0.000 A 
ATOM      6  C   UNL     1       7.103   5.138  14.020  0.00  0.00    +0.000 A 
ATOM      7  C   UNL     1       6.551   4.578  12.864  0.00  0.00    +0.000 A 
ATOM      8  C   UNL     1       5.432   3.742  12.943  0.00  0.00    +0.000 A 
ATOM      9  C   UNL     1       4.878   3.491  14.205  0.00  0.00    +0.000 A 
ATOM     10  C   UNL     1       5.429   4.043  15.386  0.00  0.00    +0.000 A 
ATOM     11  N   UNL     1       4.841   3.797  16.637  0.00  0.00    +0.000 N 
ATOM     12  O   UNL     1       3.726   3.181  16.672  0.00  0.00    +0.000 OA
ENDROOT
BRANCH   2  13
ATOM     13  C   UNL     1       7.274   5.780  18.852  0.00  0.00    +0.000 C 
ATOM     14  F   UNL     1       7.602   7.083  18.642  0.00  0.00    +0.000 F 
ATOM     15  F   UNL     1       6.514   5.828  19.983  0.00  0.00    +0.000 F 
ATOM     16  F   UNL     1       8.439   5.159  19.189  0.00  0.00    +0.000 F 
ENDBRANCH   2  13
BRANCH   8  17
ATOM     17  C   UNL     1       4.819   3.114  11.716  0.00  0.00    +0.000 C 
ATOM     18  F   UNL     1       3.488   2.866  11.839  0.00  0.00    +0.000 F 
ATOM     19  F   UNL     1       4.955   3.900  10.608  0.00  0.00    +0.000 F 
ATOM     20  F   UNL     1       5.396   1.920  11.399  0.00  0.00    +0.000 F 
ENDBRANCH   8  17
BRANCH   1  22
ATOM     21  O   UNL     1       5.185   3.092  19.725  0.00  0.00    +0.000 OA
ATOM     22  C   UNL     1       4.730   4.011  19.044  0.00  0.00    +0.000 C 
BRANCH  22  23
ATOM     23  C   UNL     1       3.616   4.844  19.449  0.00  0.00    +0.000 A 
ATOM     24  C   UNL     1       2.602   4.600  20.354  0.00  0.00    +0.000 A 
ATOM     25  C   UNL     1       1.884   5.811  20.500  0.00  0.00    +0.000 A 
ATOM     26  C   UNL     1       2.461   6.703  19.630  0.00  0.00    +0.000 A 
ATOM     27  O   UNL     1       3.492   6.120  18.960  0.00  0.00    +0.000 OA
ENDBRANCH  22  23
ENDBRANCH   1  22
TORSDOF 4
ENDMDL
MODEL 7
REMARK VINA RESULT:      -7.8      0.556      1.256
REMARK  Name = 
REMARK  4 active torsions:
REMARK  status: ('A' for Active; 'I' for Inactive)
REMARK    1  A    between atoms: C_2  and  C_3
REMARK    2  A    between atoms: C_2  and  C_8
REMARK    3  A    between atoms: C_9  and  C_10
REMARK    4  A    between atoms: C_19  and  C_20
REMARK                            x       y       z     vdW  Elec       q    Type
REMARK                         _______ _______ _______ _____ _____    ______ ____
ROOT
ATOM      1  C   UNL     1       1.084   9.385  19.211  0.00  0.00    +0.000 A 
ATOM      2  C   UNL     1       0.941   8.580  20.351  0.00  0.00    +0.000 A 
ATOM      3  N   UNL     1       1.684   7.418  20.462  0.00  0.00    +0.000 N 
ATOM      4  O   UNL     1       1.610   6.696  21.503  0.00  0.00    +0.000 OA
ATOM      5  C   UNL     1       2.542   7.020  19.408  0.00  0.00    +0.000 A 
ATOM      6  C   UNL     1       3.290   5.820  19.475  0.00  0.00    +0.000 A 
ATOM      7  C   UNL     1       4.139   5.435  18.434  0.00  0.00    +0.000 A 
ATOM      8  C   UNL     1       4.280   6.238  17.297  0.00  0.00    +0.000 A 
ATOM      9  C   UNL     1       3.557   7.436  17.236  0.00  0.00    +0.000 A 
ATOM     10  C   UNL     1       2.687   7.837  18.278  0.00  0.00    +0.000 A 
ATOM     11  N   UNL     1       1.992   9.055  18.206  0.00  0.00    +0.000 N 
ATOM     12  O   UNL     1       2.264   9.853  17.251  0.00  0.00    +0.000 OA
ENDROOT
BRANCH   2  13
ATOM     13  C   UNL     1       0.069   8.854  21.526  0.00  0.00    +0.000 C 
ATOM     14  F   UNL     1       0.730   8.932  22.712  0.00  0.00    +0.000 F 
ATOM     15  F   UNL     1      -0.568  10.057  21.445  0.00  0.00    +0.000 F 
ATOM     16  F   UNL     1      -0.896   7.910  21.705  0.00  0.00    +0.000 F 
ENDBRANCH   2  13
BRANCH   8  17
ATOM     17  C   UNL     1       5.179   5.846  16.151  0.00  0.00    +0.000 C 
ATOM     18  F   UNL     1       6.499   5.834  16.474  0.00  0.00    +0.000 F 
ATOM     19  F   UNL     1       4.897   4.597  15.675  0.00  0.00    +0.000 F 
ATOM     20  F   UNL     1       5.060   6.686  15.084  0.00  0.00    +0.000 F 
ENDBRANCH   8  17
BRANCH   1  22
ATOM     21  O   UNL     1       1.110  11.667  19.430  0.00  0.00    +0.000 OA
ATOM     22  C   UNL     1       0.440  10.703  19.060  0.00  0.00    +0.000 C 
BRANCH  22  23
ATOM     23  C   UNL     1      -0.862  10.815  18.436  0.00  0.00    +0.000 A 
ATOM     24  C   UNL     1      -1.883  11.719  18.656  0.00  0.00    +0.000 A 
ATOM     25  C   UNL     1      -2.857  11.488  17.656  0.00  0.00    +0.000 A 
ATOM     26  C   UNL     1      -2.405  10.418  16.923  0.00  0.00    +0.000 A 
ATOM     27  O   UNL     1      -1.211   9.977  17.407  0.00  0.00    +0.000 OA
ENDBRANCH  22  23
ENDBRANCH   1  22
TORSDOF 4
ENDMDL
MODEL 8
REMARK VINA RESULT:      -7.7      5.196      7.190
REMARK  Name = 
REMARK  4 active torsions:
REMARK  status: ('A' for Active; 'I' for Inactive)
REMARK    1  A    between atoms: C_2  and  C_3
REMARK    2  A    between atoms: C_2  and  C_8
REMARK    3  A    between atoms: C_9  and  C_10
REMARK    4  A    between atoms: C_19  and  C_20
REMARK                            x       y       z     vdW  Elec       q    Type
REMARK                         _______ _______ _______ _____ _____    ______ ____
ROOT
ATOM      1  C   UNL     1       5.478   4.300  17.788  0.00  0.00    +0.000 A 
ATOM      2  C   UNL     1       6.602   5.134  17.696  0.00  0.00    +0.000 A 
ATOM      3  N   UNL     1       7.122   5.444  16.451  0.00  0.00    +0.000 N 
ATOM      4  O   UNL     1       8.108   6.234  16.336  0.00  0.00    +0.000 OA
ATOM      5  C   UNL     1       6.553   4.879  15.284  0.00  0.00    +0.000 A 
ATOM      6  C   UNL     1       7.081   5.147  13.998  0.00  0.00    +0.000 A 
ATOM      7  C   UNL     1       6.511   4.591  12.849  0.00  0.00    +0.000 A 
ATOM      8  C   UNL     1       5.391   3.757  12.942  0.00  0.00    +0.000 A 
ATOM      9  C   UNL     1       4.854   3.506  14.211  0.00  0.00    +0.000 A 
ATOM     10  C   UNL     1       5.423   4.055  15.385  0.00  0.00    +0.000 A 
ATOM     11  N   UNL     1       4.851   3.810  16.644  0.00  0.00    +0.000 N 
ATOM     12  O   UNL     1       3.735   3.197  16.694  0.00  0.00    +0.000 OA
ENDROOT
BRANCH   2  13
ATOM     13  C   UNL     1       7.319   5.784  18.828  0.00  0.00    +0.000 C 
ATOM     14  F   UNL     1       7.628   7.093  18.622  0.00  0.00    +0.000 F 
ATOM     15  F   UNL     1       6.582   5.814  19.974  0.00  0.00    +0.000 F 
ATOM     16  F   UNL     1       8.496   5.173  19.135  0.00  0.00    +0.000 F 
ENDBRANCH   2  13
BRANCH   8  17
ATOM     17  C   UNL     1       4.761   3.132  11.723  0.00  0.00    +0.000 C 
ATOM     18  F   UNL     1       4.836   3.911  10.611  0.00  0.00    +0.000 F 
ATOM     19  F   UNL     1       5.345   1.944  11.389  0.00  0.00    +0.000 F 
ATOM     20  F   UNL     1       3.438   2.859  11.902  0.00  0.00    +0.000 F 
ENDBRANCH   8  17
BRANCH   1  22
ATOM     21  O   UNL     1       5.191   3.058  19.693  0.00  0.00    +0.000 OA
ATOM     22  C   UNL     1       4.773   4.022  19.052  0.00  0.00    +0.000 C 
BRANCH  22  23
ATOM     23  C   UNL     1       3.719   4.902  19.512  0.00  0.00    +0.000 A 
ATOM     24  C   UNL     1       3.372   6.173  19.096  0.00  0.00    +0.000 A 
ATOM     25  C   UNL     1       2.161   6.502  19.750  0.00  0.00    +0.000 A 
ATOM     26  C   UNL     1       1.872   5.441  20.573  0.00  0.00    +0.000 A 
ATOM     27  O   UNL     1       2.827   4.477  20.464  0.00  0.00    +0.000 OA
ENDBRANCH  22  23
ENDBRANCH   1  22
TORSDOF 4
ENDMDL
MODEL 9
REMARK VINA RESULT:      -7.7      3.485      7.224
REMARK  Name = 
REMARK  4 active torsions:
REMARK  status: ('A' for Active; 'I' for Inactive)
REMARK    1  A    between atoms: C_2  and  C_3
REMARK    2  A    between atoms: C_2  and  C_8
REMARK    3  A    between atoms: C_9  and  C_10
REMARK    4  A    between atoms: C_19  and  C_20
REMARK                            x       y       z     vdW  Elec       q    Type
REMARK                         _______ _______ _______ _____ _____    ______ ____
ROOT
ATOM      1  C   UNL     1       3.454   4.738  18.521  0.00  0.00    +0.000 A 
ATOM      2  C   UNL     1       2.991   4.098  19.681  0.00  0.00    +0.000 A 
ATOM      3  N   UNL     1       2.211   4.801  20.582  0.00  0.00    +0.000 N 
ATOM      4  O   UNL     1       1.740   4.235  21.614  0.00  0.00    +0.000 OA
ATOM      5  C   UNL     1       1.927   6.170  20.358  0.00  0.00    +0.000 A 
ATOM      6  C   UNL     1       1.160   6.928  21.276  0.00  0.00    +0.000 A 
ATOM      7  C   UNL     1       0.878   8.277  21.046  0.00  0.00    +0.000 A 
ATOM      8  C   UNL     1       1.341   8.915  19.890  0.00  0.00    +0.000 A 
ATOM      9  C   UNL     1       2.083   8.163  18.970  0.00  0.00    +0.000 A 
ATOM     10  C   UNL     1       2.383   6.797  19.190  0.00  0.00    +0.000 A 
ATOM     11  N   UNL     1       3.107   6.058  18.240  0.00  0.00    +0.000 N 
ATOM     12  O   UNL     1       3.368   6.603  17.118  0.00  0.00    +0.000 OA
ENDROOT
BRANCH   2  13
ATOM     13  C   UNL     1       3.223   2.678  20.062  0.00  0.00    +0.000 C 
ATOM     14  F   UNL     1       4.409   2.166  19.637  0.00  0.00    +0.000 F 
ATOM     15  F   UNL     1       3.269   2.492  21.412  0.00  0.00    +0.000 F 
ATOM     16  F   UNL     1       2.267   1.835  19.582  0.00  0.00    +0.000 F 
ENDBRANCH   2  13
BRANCH   8  17
ATOM     17  C   UNL     1       1.065  10.372  19.619  0.00  0.00    +0.000 C 
ATOM     18  F   UNL     1       1.358  11.186  20.668  0.00  0.00    +0.000 F 
ATOM     19  F   UNL     1       1.784  10.848  18.561  0.00  0.00    +0.000 F 
ATOM     20  F   UNL     1      -0.244  10.607  19.315  0.00  0.00    +0.000 F 
ENDBRANCH   8  17
BRANCH   1  22
ATOM     21  O   UNL     1       3.477   3.363  16.687  0.00  0.00    +0.000 OA
ATOM     22  C   UNL     1       4.175   4.040  17.441  0.00  0.00    +0.000 C 
BRANCH  22  23
ATOM     23  C   UNL     1       5.600   4.236  17.267  0.00  0.00    +0.000 A 
ATOM     24  C   UNL     1       6.343   4.418  16.116  0.00  0.00    +0.000 A 
ATOM     25  C   UNL     1       7.659   4.738  16.525  0.00  0.00    +0.000 A 
ATOM     26  C   UNL     1       7.659   4.671  17.897  0.00  0.00    +0.000 A 
ATOM     27  O   UNL     1       6.424   4.334  18.359  0.00  0.00    +0.000 OA
ENDBRANCH  22  23
ENDBRANCH   1  22
TORSDOF 4
ENDMDL
