MODEL 1
REMARK VINA RESULT:      -8.2      0.000      0.000
REMARK  Name = 
REMARK  9 active torsions:
REMARK  status: ('A' for Active; 'I' for Inactive)
REMARK    1  A    between atoms: C_1  and  O_2
REMARK    2  A    between atoms: O_2  and  C_3
REMARK    3  A    between atoms: C_6  and  N_7
REMARK    4  A    between atoms: C_8  and  C_10
REMARK    5  A    between atoms: C_10  and  N_11
REMARK    6  A    between atoms: N_11  and  C_12
REMARK    7  A    between atoms: N_11  and  S_19
REMARK    8  A    between atoms: S_19  and  C_22
REMARK    9  A    between atoms: C_25  and  C_26
REMARK                            x       y       z     vdW  Elec       q    Type
REMARK                         _______ _______ _______ _____ _____    ______ ____
ROOT
ATOM      1  N   UNL     1       3.517   5.209  18.713  0.00  0.00    +0.000 N 
ENDROOT
BRANCH   1   2
ATOM      2  C   UNL     1       2.488   4.304  19.146  0.00  0.00    +0.000 A 
ATOM      3  C   UNL     1       1.868   3.503  18.184  0.00  0.00    +0.000 A 
ATOM      4  C   UNL     1       0.871   2.598  18.557  0.00  0.00    +0.000 A 
ATOM      5  C   UNL     1       0.480   2.495  19.892  0.00  0.00    +0.000 A 
ATOM      6  C   UNL     1       1.093   3.291  20.860  0.00  0.00    +0.000 A 
ATOM      7  C   UNL     1       2.093   4.187  20.482  0.00  0.00    +0.000 A 
ATOM      8  F   UNL     1       2.686   4.928  21.431  0.00  0.00    +0.000 F 
ENDBRANCH   1   2
BRANCH   1   9
ATOM      9  S   UNL     1       5.133   4.752  18.871  0.00  0.00    +0.000 S 
ATOM     10  O   UNL     1       5.790   5.802  19.628  0.00  0.00    +0.000 OA
ATOM     11  O   UNL     1       5.189   3.378  19.327  0.00  0.00    +0.000 OA
BRANCH   9  12
ATOM     12  C   UNL     1       5.796   4.791  17.216  0.00  0.00    +0.000 A 
ATOM     13  C   UNL     1       6.854   5.649  16.904  0.00  0.00    +0.000 A 
ATOM     14  C   UNL     1       7.397   5.641  15.613  0.00  0.00    +0.000 A 
ATOM     15  C   UNL     1       6.895   4.773  14.634  0.00  0.00    +0.000 A 
ATOM     16  C   UNL     1       7.451   4.778  13.239  0.00  0.00    +0.000 C 
ATOM     17  C   UNL     1       5.879   3.872  14.980  0.00  0.00    +0.000 A 
ATOM     18  C   UNL     1       5.331   3.876  16.265  0.00  0.00    +0.000 A 
ENDBRANCH   9  12
ENDBRANCH   1   9
BRANCH   1  19
ATOM     19  C   UNL     1       3.168   6.242  17.721  0.00  0.00    +0.000 C 
BRANCH  19  21
ATOM     20  N   UNL     1       2.007   8.415  17.648  0.00  0.00    +0.000 N 
ATOM     21  C   UNL     1       2.543   7.423  18.462  0.00  0.00    +0.000 C 
ATOM     22  O   UNL     1       2.531   7.424  19.696  0.00  0.00    +0.000 OA
ATOM     23  H   UNL     1       2.033   8.262  16.644  0.00  0.00    +0.000 HD
BRANCH  20  27
ATOM     24  C   UNL     1       0.138  12.008  18.925  0.00  0.00    +0.000 A 
ATOM     25  C   UNL     1      -0.627  10.867  18.701  0.00  0.00    +0.000 A 
ATOM     26  C   UNL     1      -0.025   9.668  18.298  0.00  0.00    +0.000 A 
ATOM     27  C   UNL     1       1.355   9.592  18.097  0.00  0.00    +0.000 A 
ATOM     28  C   UNL     1       2.124  10.738  18.343  0.00  0.00    +0.000 A 
ATOM     29  C   UNL     1       1.517  11.945  18.739  0.00  0.00    +0.000 A 
BRANCH  24  31
ATOM     30  C   UNL     1      -0.107  14.361  18.770  0.00  0.00    +0.000 C 
ATOM     31  O   UNL     1      -0.580  13.118  19.271  0.00  0.00    +0.000 OA
ENDBRANCH  24  31
ENDBRANCH  20  27
ENDBRANCH  19  21
ENDBRANCH   1  19
TORSDOF 7
ENDMDL
MODEL 2
REMARK VINA RESULT:      -8.1      1.787      2.156
REMARK  Name = 
REMARK  9 active torsions:
REMARK  status: ('A' for Active; 'I' for Inactive)
REMARK    1  A    between atoms: C_1  and  O_2
REMARK    2  A    between atoms: O_2  and  C_3
REMARK    3  A    between atoms: C_6  and  N_7
REMARK    4  A    between atoms: C_8  and  C_10
REMARK    5  A    between atoms: C_10  and  N_11
REMARK    6  A    between atoms: N_11  and  C_12
REMARK    7  A    between atoms: N_11  and  S_19
REMARK    8  A    between atoms: S_19  and  C_22
REMARK    9  A    between atoms: C_25  and  C_26
REMARK                            x       y       z     vdW  Elec       q    Type
REMARK                         _______ _______ _______ _____ _____    ______ ____
ROOT
ATOM      1  N   UNL     1       3.540   5.120  18.659  0.00  0.00    +0.000 N 
ENDROOT
BRANCH   1   2
ATOM      2  C   UNL     1       2.515   4.215  19.104  0.00  0.00    +0.000 A 
ATOM      3  C   UNL     1       1.919   3.379  18.158  0.00  0.00    +0.000 A 
ATOM      4  C   UNL     1       0.927   2.474  18.544  0.00  0.00    +0.000 A 
ATOM      5  C   UNL     1       0.519   2.404  19.876  0.00  0.00    +0.000 A 
ATOM      6  C   UNL     1       1.109   3.236  20.828  0.00  0.00    +0.000 A 
ATOM      7  C   UNL     1       2.104   4.133  20.438  0.00  0.00    +0.000 A 
ATOM      8  F   UNL     1       2.675   4.908  21.373  0.00  0.00    +0.000 F 
ENDBRANCH   1   2
BRANCH   1   9
ATOM      9  S   UNL     1       5.159   4.690  18.858  0.00  0.00    +0.000 S 
ATOM     10  O   UNL     1       5.789   5.769  19.598  0.00  0.00    +0.000 OA
ATOM     11  O   UNL     1       5.225   3.329  19.353  0.00  0.00    +0.000 OA
BRANCH   9  12
ATOM     12  C   UNL     1       5.852   4.693  17.215  0.00  0.00    +0.000 A 
ATOM     13  C   UNL     1       5.318   3.861  16.227  0.00  0.00    +0.000 A 
ATOM     14  C   UNL     1       5.840   3.902  14.928  0.00  0.00    +0.000 A 
ATOM     15  C   UNL     1       6.886   4.777  14.608  0.00  0.00    +0.000 A 
ATOM     16  C   UNL     1       7.473   4.806  13.226  0.00  0.00    +0.000 C 
ATOM     17  C   UNL     1       7.367   5.652  15.592  0.00  0.00    +0.000 A 
ATOM     18  C   UNL     1       6.853   5.615  16.889  0.00  0.00    +0.000 A 
ENDBRANCH   9  12
ENDBRANCH   1   9
BRANCH   1  19
ATOM     19  C   UNL     1       3.195   6.116  17.629  0.00  0.00    +0.000 C 
BRANCH  19  21
ATOM     20  N   UNL     1       1.934   7.278  19.399  0.00  0.00    +0.000 N 
ATOM     21  C   UNL     1       2.816   7.418  18.333  0.00  0.00    +0.000 C 
ATOM     22  O   UNL     1       3.308   8.480  17.945  0.00  0.00    +0.000 OA
ATOM     23  H   UNL     1       1.649   6.336  19.651  0.00  0.00    +0.000 HD
BRANCH  20  27
ATOM     24  C   UNL     1       0.405  10.450  21.773  0.00  0.00    +0.000 A 
ATOM     25  C   UNL     1       0.963   9.330  22.383  0.00  0.00    +0.000 A 
ATOM     26  C   UNL     1       1.489   8.283  21.615  0.00  0.00    +0.000 A 
ATOM     27  C   UNL     1       1.454   8.330  20.221  0.00  0.00    +0.000 A 
ATOM     28  C   UNL     1       0.910   9.468  19.610  0.00  0.00    +0.000 A 
ATOM     29  C   UNL     1       0.372  10.516  20.382  0.00  0.00    +0.000 A 
BRANCH  24  31
ATOM     30  C   UNL     1      -1.431  11.139  23.105  0.00  0.00    +0.000 C 
ATOM     31  O   UNL     1      -0.110  11.375  22.638  0.00  0.00    +0.000 OA
ENDBRANCH  24  31
ENDBRANCH  20  27
ENDBRANCH  19  21
ENDBRANCH   1  19
TORSDOF 7
ENDMDL
MODEL 3
REMARK VINA RESULT:      -8.1      1.011      1.602
REMARK  Name = 
REMARK  9 active torsions:
REMARK  status: ('A' for Active; 'I' for Inactive)
REMARK    1  A    between atoms: C_1  and  O_2
REMARK    2  A    between atoms: O_2  and  C_3
REMARK    3  A    between atoms: C_6  and  N_7
REMARK    4  A    between atoms: C_8  and  C_10
REMARK    5  A    between atoms: C_10  and  N_11
REMARK    6  A    between atoms: N_11  and  C_12
REMARK    7  A    between atoms: N_11  and  S_19
REMARK    8  A    between atoms: S_19  and  C_22
REMARK    9  A    between atoms: C_25  and  C_26
REMARK                            x       y       z     vdW  Elec       q    Type
REMARK                         _______ _______ _______ _____ _____    ______ ____
ROOT
ATOM      1  N   UNL     1       3.752   5.346  18.692  0.00  0.00    +0.000 N 
ENDROOT
BRANCH   1   2
ATOM      2  C   UNL     1       2.725   4.492  19.225  0.00  0.00    +0.000 A 
ATOM      3  C   UNL     1       2.551   4.460  20.610  0.00  0.00    +0.000 A 
ATOM      4  C   UNL     1       1.558   3.656  21.177  0.00  0.00    +0.000 A 
ATOM      5  C   UNL     1       0.739   2.873  20.363  0.00  0.00    +0.000 A 
ATOM      6  C   UNL     1       0.907   2.899  18.978  0.00  0.00    +0.000 A 
ATOM      7  C   UNL     1       1.895   3.709  18.418  0.00  0.00    +0.000 A 
ATOM      8  F   UNL     1       2.025   3.737  17.083  0.00  0.00    +0.000 F 
ENDBRANCH   1   2
BRANCH   1   9
ATOM      9  S   UNL     1       5.357   4.831  18.742  0.00  0.00    +0.000 S 
ATOM     10  O   UNL     1       6.131   5.932  19.284  0.00  0.00    +0.000 OA
ATOM     11  O   UNL     1       5.411   3.524  19.366  0.00  0.00    +0.000 OA
BRANCH   9  12
ATOM     12  C   UNL     1       5.839   4.626  17.037  0.00  0.00    +0.000 A 
ATOM     13  C   UNL     1       5.051   3.862  16.172  0.00  0.00    +0.000 A 
ATOM     14  C   UNL     1       5.413   3.743  14.825  0.00  0.00    +0.000 A 
ATOM     15  C   UNL     1       6.555   4.390  14.335  0.00  0.00    +0.000 A 
ATOM     16  C   UNL     1       6.969   4.244  12.899  0.00  0.00    +0.000 C 
ATOM     17  C   UNL     1       7.300   5.205  15.198  0.00  0.00    +0.000 A 
ATOM     18  C   UNL     1       6.945   5.328  16.543  0.00  0.00    +0.000 A 
ENDBRANCH   9  12
ENDBRANCH   1   9
BRANCH   1  19
ATOM     19  C   UNL     1       3.368   6.366  17.699  0.00  0.00    +0.000 C 
BRANCH  19  21
ATOM     20  N   UNL     1       2.240   8.556  17.629  0.00  0.00    +0.000 N 
ATOM     21  C   UNL     1       2.669   7.507  18.436  0.00  0.00    +0.000 C 
ATOM     22  O   UNL     1       2.512   7.432  19.657  0.00  0.00    +0.000 OA
ATOM     23  H   UNL     1       2.383   8.465  16.628  0.00  0.00    +0.000 HD
BRANCH  20  27
ATOM     24  C   UNL     1       0.243  12.089  18.879  0.00  0.00    +0.000 A 
ATOM     25  C   UNL     1      -0.460  10.892  18.773  0.00  0.00    +0.000 A 
ATOM     26  C   UNL     1       0.187   9.714  18.381  0.00  0.00    +0.000 A 
ATOM     27  C   UNL     1       1.548   9.712  18.072  0.00  0.00    +0.000 A 
ATOM     28  C   UNL     1       2.257  10.915  18.199  0.00  0.00    +0.000 A 
ATOM     29  C   UNL     1       1.604  12.102  18.585  0.00  0.00    +0.000 A 
BRANCH  24  31
ATOM     30  C   UNL     1      -1.420  12.986  20.311  0.00  0.00    +0.000 C 
ATOM     31  O   UNL     1      -0.518  13.170  19.229  0.00  0.00    +0.000 OA
ENDBRANCH  24  31
ENDBRANCH  20  27
ENDBRANCH  19  21
ENDBRANCH   1  19
TORSDOF 7
ENDMDL
MODEL 4
REMARK VINA RESULT:      -8.0      1.923      2.407
REMARK  Name = 
REMARK  9 active torsions:
REMARK  status: ('A' for Active; 'I' for Inactive)
REMARK    1  A    between atoms: C_1  and  O_2
REMARK    2  A    between atoms: O_2  and  C_3
REMARK    3  A    between atoms: C_6  and  N_7
REMARK    4  A    between atoms: C_8  and  C_10
REMARK    5  A    between atoms: C_10  and  N_11
REMARK    6  A    between atoms: N_11  and  C_12
REMARK    7  A    between atoms: N_11  and  S_19
REMARK    8  A    between atoms: S_19  and  C_22
REMARK    9  A    between atoms: C_25  and  C_26
REMARK                            x       y       z     vdW  Elec       q    Type
REMARK                         _______ _______ _______ _____ _____    ______ ____
ROOT
ATOM      1  N   UNL     1       3.774   5.171  18.664  0.00  0.00    +0.000 N 
ENDROOT
BRANCH   1   2
ATOM      2  C   UNL     1       2.844   4.302  19.333  0.00  0.00    +0.000 A 
ATOM      3  C   UNL     1       2.721   4.413  20.719  0.00  0.00    +0.000 A 
ATOM      4  C   UNL     1       1.821   3.600  21.414  0.00  0.00    +0.000 A 
ATOM      5  C   UNL     1       1.046   2.665  20.728  0.00  0.00    +0.000 A 
ATOM      6  C   UNL     1       1.163   2.547  19.342  0.00  0.00    +0.000 A 
ATOM      7  C   UNL     1       2.058   3.367  18.654  0.00  0.00    +0.000 A 
ATOM      8  F   UNL     1       2.139   3.254  17.319  0.00  0.00    +0.000 F 
ENDBRANCH   1   2
BRANCH   1   9
ATOM      9  S   UNL     1       5.415   4.779  18.670  0.00  0.00    +0.000 S 
ATOM     10  O   UNL     1       6.120   5.949  19.161  0.00  0.00    +0.000 OA
ATOM     11  O   UNL     1       5.588   3.496  19.321  0.00  0.00    +0.000 OA
BRANCH   9  12
ATOM     12  C   UNL     1       5.855   4.569  16.955  0.00  0.00    +0.000 A 
ATOM     13  C   UNL     1       5.152   3.663  16.156  0.00  0.00    +0.000 A 
ATOM     14  C   UNL     1       5.476   3.536  14.800  0.00  0.00    +0.000 A 
ATOM     15  C   UNL     1       6.492   4.318  14.234  0.00  0.00    +0.000 A 
ATOM     16  C   UNL     1       6.867   4.168  12.788  0.00  0.00    +0.000 C 
ATOM     17  C   UNL     1       7.144   5.269  15.031  0.00  0.00    +0.000 A 
ATOM     18  C   UNL     1       6.827   5.399  16.385  0.00  0.00    +0.000 A 
ENDBRANCH   9  12
ENDBRANCH   1   9
BRANCH   1  19
ATOM     19  C   UNL     1       3.264   6.059  17.604  0.00  0.00    +0.000 C 
BRANCH  19  21
ATOM     20  N   UNL     1       1.958   7.319  19.272  0.00  0.00    +0.000 N 
ATOM     21  C   UNL     1       2.890   7.396  18.243  0.00  0.00    +0.000 C 
ATOM     22  O   UNL     1       3.426   8.430  17.839  0.00  0.00    +0.000 OA
ATOM     23  H   UNL     1       1.637   6.394  19.545  0.00  0.00    +0.000 HD
BRANCH  20  27
ATOM     24  C   UNL     1       0.417  10.619  21.456  0.00  0.00    +0.000 A 
ATOM     25  C   UNL     1       0.869   9.487  22.130  0.00  0.00    +0.000 A 
ATOM     26  C   UNL     1       1.397   8.398  21.427  0.00  0.00    +0.000 A 
ATOM     27  C   UNL     1       1.472   8.413  20.033  0.00  0.00    +0.000 A 
ATOM     28  C   UNL     1       1.035   9.562  19.359  0.00  0.00    +0.000 A 
ATOM     29  C   UNL     1       0.495  10.653  20.066  0.00  0.00    +0.000 A 
BRANCH  24  31
ATOM     30  C   UNL     1      -1.252  11.223  23.027  0.00  0.00    +0.000 C 
ATOM     31  O   UNL     1      -0.114  11.589  22.260  0.00  0.00    +0.000 OA
ENDBRANCH  24  31
ENDBRANCH  20  27
ENDBRANCH  19  21
ENDBRANCH   1  19
TORSDOF 7
ENDMDL
MODEL 5
REMARK VINA RESULT:      -8.0      0.935      1.502
REMARK  Name = 
REMARK  9 active torsions:
REMARK  status: ('A' for Active; 'I' for Inactive)
REMARK    1  A    between atoms: C_1  and  O_2
REMARK    2  A    between atoms: O_2  and  C_3
REMARK    3  A    between atoms: C_6  and  N_7
REMARK    4  A    between atoms: C_8  and  C_10
REMARK    5  A    between atoms: C_10  and  N_11
REMARK    6  A    between atoms: N_11  and  C_12
REMARK    7  A    between atoms: N_11  and  S_19
REMARK    8  A    between atoms: S_19  and  C_22
REMARK    9  A    between atoms: C_25  and  C_26
REMARK                            x       y       z     vdW  Elec       q    Type
REMARK                         _______ _______ _______ _____ _____    ______ ____
ROOT
ATOM      1  N   UNL     1       3.657   5.352  18.826  0.00  0.00    +0.000 N 
ENDROOT
BRANCH   1   2
ATOM      2  C   UNL     1       2.565   4.469  19.135  0.00  0.00    +0.000 A 
ATOM      3  C   UNL     1       1.919   3.827  18.077  0.00  0.00    +0.000 A 
ATOM      4  C   UNL     1       0.860   2.949  18.326  0.00  0.00    +0.000 A 
ATOM      5  C   UNL     1       0.436   2.714  19.634  0.00  0.00    +0.000 A 
ATOM      6  C   UNL     1       1.076   3.352  20.697  0.00  0.00    +0.000 A 
ATOM      7  C   UNL     1       2.136   4.221  20.443  0.00  0.00    +0.000 A 
ATOM      8  F   UNL     1       2.753   4.807  21.480  0.00  0.00    +0.000 F 
ENDBRANCH   1   2
BRANCH   1   9
ATOM      9  S   UNL     1       5.237   4.771  18.922  0.00  0.00    +0.000 S 
ATOM     10  O   UNL     1       6.023   5.805  19.570  0.00  0.00    +0.000 OA
ATOM     11  O   UNL     1       5.209   3.427  19.464  0.00  0.00    +0.000 OA
BRANCH   9  12
ATOM     12  C   UNL     1       5.797   4.652  17.233  0.00  0.00    +0.000 A 
ATOM     13  C   UNL     1       5.007   4.010  16.275  0.00  0.00    +0.000 A 
ATOM     14  C   UNL     1       5.435   3.960  14.943  0.00  0.00    +0.000 A 
ATOM     15  C   UNL     1       6.644   4.556  14.560  0.00  0.00    +0.000 A 
ATOM     16  C   UNL     1       7.125   4.482  13.139  0.00  0.00    +0.000 C 
ATOM     17  C   UNL     1       7.393   5.253  15.518  0.00  0.00    +0.000 A 
ATOM     18  C   UNL     1       6.974   5.305  16.849  0.00  0.00    +0.000 A 
ENDBRANCH   9  12
ENDBRANCH   1   9
BRANCH   1  19
ATOM     19  C   UNL     1       3.387   6.529  17.981  0.00  0.00    +0.000 C 
BRANCH  19  21
ATOM     20  N   UNL     1       1.823   8.434  18.002  0.00  0.00    +0.000 N 
ATOM     21  C   UNL     1       2.492   7.486  18.768  0.00  0.00    +0.000 C 
ATOM     22  O   UNL     1       2.400   7.359  19.991  0.00  0.00    +0.000 OA
ATOM     23  H   UNL     1       1.943   8.392  16.994  0.00  0.00    +0.000 HD
BRANCH  20  27
ATOM     24  C   UNL     1      -0.974  11.288  19.440  0.00  0.00    +0.000 A 
ATOM     25  C   UNL     1       0.224  11.084  20.118  0.00  0.00    +0.000 A 
ATOM     26  C   UNL     1       1.166  10.160  19.648  0.00  0.00    +0.000 A 
ATOM     27  C   UNL     1       0.921   9.412  18.495  0.00  0.00    +0.000 A 
ATOM     28  C   UNL     1      -0.277   9.635  17.803  0.00  0.00    +0.000 A 
ATOM     29  C   UNL     1      -1.228  10.556  18.282  0.00  0.00    +0.000 A 
BRANCH  24  31
ATOM     30  C   UNL     1      -1.772  12.261  21.448  0.00  0.00    +0.000 C 
ATOM     31  O   UNL     1      -1.821  12.184  20.030  0.00  0.00    +0.000 OA
ENDBRANCH  24  31
ENDBRANCH  20  27
ENDBRANCH  19  21
ENDBRANCH   1  19
TORSDOF 7
ENDMDL
MODEL 6
REMARK VINA RESULT:      -7.9      1.787      2.080
REMARK  Name = 
REMARK  9 active torsions:
REMARK  status: ('A' for Active; 'I' for Inactive)
REMARK    1  A    between atoms: C_1  and  O_2
REMARK    2  A    between atoms: O_2  and  C_3
REMARK    3  A    between atoms: C_6  and  N_7
REMARK    4  A    between atoms: C_8  and  C_10
REMARK    5  A    between atoms: C_10  and  N_11
REMARK    6  A    between atoms: N_11  and  C_12
REMARK    7  A    between atoms: N_11  and  S_19
REMARK    8  A    between atoms: S_19  and  C_22
REMARK    9  A    between atoms: C_25  and  C_26
REMARK                            x       y       z     vdW  Elec       q    Type
REMARK                         _______ _______ _______ _____ _____    ______ ____
ROOT
ATOM      1  N   UNL     1       3.772   5.083  18.711  0.00  0.00    +0.000 N 
ENDROOT
BRANCH   1   2
ATOM      2  C   UNL     1       2.868   4.234  19.438  0.00  0.00    +0.000 A 
ATOM      3  C   UNL     1       2.800   4.380  20.826  0.00  0.00    +0.000 A 
ATOM      4  C   UNL     1       1.928   3.586  21.576  0.00  0.00    +0.000 A 
ATOM      5  C   UNL     1       1.125   2.636  20.945  0.00  0.00    +0.000 A 
ATOM      6  C   UNL     1       1.186   2.484  19.559  0.00  0.00    +0.000 A 
ATOM      7  C   UNL     1       2.053   3.284  18.815  0.00  0.00    +0.000 A 
ATOM      8  F   UNL     1       2.081   3.138  17.482  0.00  0.00    +0.000 F 
ENDBRANCH   1   2
BRANCH   1   9
ATOM      9  S   UNL     1       5.413   4.695  18.671  0.00  0.00    +0.000 S 
ATOM     10  O   UNL     1       6.124   5.835  19.221  0.00  0.00    +0.000 OA
ATOM     11  O   UNL     1       5.595   3.375  19.243  0.00  0.00    +0.000 OA
BRANCH   9  12
ATOM     12  C   UNL     1       5.828   4.587  16.941  0.00  0.00    +0.000 A 
ATOM     13  C   UNL     1       6.970   5.229  16.452  0.00  0.00    +0.000 A 
ATOM     14  C   UNL     1       7.312   5.103  15.100  0.00  0.00    +0.000 A 
ATOM     15  C   UNL     1       6.526   4.331  14.235  0.00  0.00    +0.000 A 
ATOM     16  C   UNL     1       6.868   4.215  12.777  0.00  0.00    +0.000 C 
ATOM     17  C   UNL     1       5.421   3.641  14.752  0.00  0.00    +0.000 A 
ATOM     18  C   UNL     1       5.073   3.763  16.099  0.00  0.00    +0.000 A 
ENDBRANCH   9  12
ENDBRANCH   1   9
BRANCH   1  19
ATOM     19  C   UNL     1       3.222   5.939  17.644  0.00  0.00    +0.000 C 
BRANCH  19  21
ATOM     20  N   UNL     1       1.887   7.286  19.218  0.00  0.00    +0.000 N 
ATOM     21  C   UNL     1       2.886   7.300  18.251  0.00  0.00    +0.000 C 
ATOM     22  O   UNL     1       3.507   8.298  17.878  0.00  0.00    +0.000 OA
ATOM     23  H   UNL     1       1.495   6.384  19.473  0.00  0.00    +0.000 HD
BRANCH  20  27
ATOM     24  C   UNL     1       0.565  10.633  21.472  0.00  0.00    +0.000 A 
ATOM     25  C   UNL     1       0.558  10.683  20.081  0.00  0.00    +0.000 A 
ATOM     26  C   UNL     1       0.972   9.583  19.322  0.00  0.00    +0.000 A 
ATOM     27  C   UNL     1       1.416   8.412  19.940  0.00  0.00    +0.000 A 
ATOM     28  C   UNL     1       1.403   8.358  21.341  0.00  0.00    +0.000 A 
ATOM     29  C   UNL     1       0.995   9.469  22.104  0.00  0.00    +0.000 A 
BRANCH  24  31
ATOM     30  C   UNL     1      -0.313  12.824  21.245  0.00  0.00    +0.000 C 
ATOM     31  O   UNL     1       0.177  11.790  22.088  0.00  0.00    +0.000 OA
ENDBRANCH  24  31
ENDBRANCH  20  27
ENDBRANCH  19  21
ENDBRANCH   1  19
TORSDOF 7
ENDMDL
MODEL 7
REMARK VINA RESULT:      -7.9      0.955      1.293
REMARK  Name = 
REMARK  9 active torsions:
REMARK  status: ('A' for Active; 'I' for Inactive)
REMARK    1  A    between atoms: C_1  and  O_2
REMARK    2  A    between atoms: O_2  and  C_3
REMARK    3  A    between atoms: C_6  and  N_7
REMARK    4  A    between atoms: C_8  and  C_10
REMARK    5  A    between atoms: C_10  and  N_11
REMARK    6  A    between atoms: N_11  and  C_12
REMARK    7  A    between atoms: N_11  and  S_19
REMARK    8  A    between atoms: S_19  and  C_22
REMARK    9  A    between atoms: C_25  and  C_26
REMARK                            x       y       z     vdW  Elec       q    Type
REMARK                         _______ _______ _______ _____ _____    ______ ____
ROOT
ATOM      1  N   UNL     1       3.632   5.430  18.654  0.00  0.00    +0.000 N 
ENDROOT
BRANCH   1   2
ATOM      2  C   UNL     1       2.625   4.549  19.182  0.00  0.00    +0.000 A 
ATOM      3  C   UNL     1       2.490   4.459  20.569  0.00  0.00    +0.000 A 
ATOM      4  C   UNL     1       1.519   3.626  21.130  0.00  0.00    +0.000 A 
ATOM      5  C   UNL     1       0.682   2.871  20.308  0.00  0.00    +0.000 A 
ATOM      6  C   UNL     1       0.810   2.954  18.921  0.00  0.00    +0.000 A 
ATOM      7  C   UNL     1       1.777   3.793  18.367  0.00  0.00    +0.000 A 
ATOM      8  F   UNL     1       1.869   3.876  17.031  0.00  0.00    +0.000 F 
ENDBRANCH   1   2
BRANCH   1   9
ATOM      9  S   UNL     1       5.245   4.937  18.668  0.00  0.00    +0.000 S 
ATOM     10  O   UNL     1       6.016   6.054  19.184  0.00  0.00    +0.000 OA
ATOM     11  O   UNL     1       5.331   3.636  19.300  0.00  0.00    +0.000 OA
BRANCH   9  12
ATOM     12  C   UNL     1       5.687   4.727  16.954  0.00  0.00    +0.000 A 
ATOM     13  C   UNL     1       6.676   5.531  16.381  0.00  0.00    +0.000 A 
ATOM     14  C   UNL     1       7.047   5.329  15.046  0.00  0.00    +0.000 A 
ATOM     15  C   UNL     1       6.443   4.321  14.282  0.00  0.00    +0.000 A 
ATOM     16  C   UNL     1       6.813   4.117  12.841  0.00  0.00    +0.000 C 
ATOM     17  C   UNL     1       5.500   3.480  14.889  0.00  0.00    +0.000 A 
ATOM     18  C   UNL     1       5.124   3.677  16.220  0.00  0.00    +0.000 A 
ENDBRANCH   9  12
ENDBRANCH   1   9
BRANCH   1  19
ATOM     19  C   UNL     1       3.218   6.468  17.693  0.00  0.00    +0.000 C 
BRANCH  19  21
ATOM     20  N   UNL     1       2.113   8.671  17.705  0.00  0.00    +0.000 N 
ATOM     21  C   UNL     1       2.623   7.635  18.480  0.00  0.00    +0.000 C 
ATOM     22  O   UNL     1       2.611   7.590  19.712  0.00  0.00    +0.000 OA
ATOM     23  H   UNL     1       2.135   8.556  16.696  0.00  0.00    +0.000 HD
BRANCH  20  27
ATOM     24  C   UNL     1       0.311  12.257  19.094  0.00  0.00    +0.000 A 
ATOM     25  C   UNL     1      -0.399  11.061  19.132  0.00  0.00    +0.000 A 
ATOM     26  C   UNL     1       0.186   9.866  18.696  0.00  0.00    +0.000 A 
ATOM     27  C   UNL     1       1.490   9.846  18.199  0.00  0.00    +0.000 A 
ATOM     28  C   UNL     1       2.210  11.049  18.180  0.00  0.00    +0.000 A 
ATOM     29  C   UNL     1       1.618  12.253  18.611  0.00  0.00    +0.000 A 
BRANCH  24  31
ATOM     30  C   UNL     1      -0.231  14.538  18.739  0.00  0.00    +0.000 C 
ATOM     31  O   UNL     1      -0.392  13.353  19.508  0.00  0.00    +0.000 OA
ENDBRANCH  24  31
ENDBRANCH  20  27
ENDBRANCH  19  21
ENDBRANCH   1  19
TORSDOF 7
ENDMDL
MODEL 8
REMARK VINA RESULT:      -7.8      1.942      2.042
REMARK  Name = 
REMARK  9 active torsions:
REMARK  status: ('A' for Active; 'I' for Inactive)
REMARK    1  A    between atoms: C_1  and  O_2
REMARK    2  A    between atoms: O_2  and  C_3
REMARK    3  A    between atoms: C_6  and  N_7
REMARK    4  A    between atoms: C_8  and  C_10
REMARK    5  A    between atoms: C_10  and  N_11
REMARK    6  A    between atoms: N_11  and  C_12
REMARK    7  A    between atoms: N_11  and  S_19
REMARK    8  A    between atoms: S_19  and  C_22
REMARK    9  A    between atoms: C_25  and  C_26
REMARK                            x       y       z     vdW  Elec       q    Type
REMARK                         _______ _______ _______ _____ _____    ______ ____
ROOT
ATOM      1  N   UNL     1       3.735   5.389  18.838  0.00  0.00    +0.000 N 
ENDROOT
BRANCH   1   2
ATOM      2  C   UNL     1       2.611   4.543  19.135  0.00  0.00    +0.000 A 
ATOM      3  C   UNL     1       2.031   3.826  18.086  0.00  0.00    +0.000 A 
ATOM      4  C   UNL     1       0.945   2.981  18.327  0.00  0.00    +0.000 A 
ATOM      5  C   UNL     1       0.426   2.853  19.616  0.00  0.00    +0.000 A 
ATOM      6  C   UNL     1       1.000   3.565  20.670  0.00  0.00    +0.000 A 
ATOM      7  C   UNL     1       2.088   4.402  20.424  0.00  0.00    +0.000 A 
ATOM      8  F   UNL     1       2.640   5.061  21.455  0.00  0.00    +0.000 F 
ENDBRANCH   1   2
BRANCH   1   9
ATOM      9  S   UNL     1       5.291   4.741  18.902  0.00  0.00    +0.000 S 
ATOM     10  O   UNL     1       6.118   5.712  19.596  0.00  0.00    +0.000 OA
ATOM     11  O   UNL     1       5.211   3.375  19.380  0.00  0.00    +0.000 OA
BRANCH   9  12
ATOM     12  C   UNL     1       5.845   4.680  17.208  0.00  0.00    +0.000 A 
ATOM     13  C   UNL     1       7.078   5.233  16.852  0.00  0.00    +0.000 A 
ATOM     14  C   UNL     1       7.524   5.142  15.528  0.00  0.00    +0.000 A 
ATOM     15  C   UNL     1       6.750   4.492  14.558  0.00  0.00    +0.000 A 
ATOM     16  C   UNL     1       7.206   4.415  13.130  0.00  0.00    +0.000 C 
ATOM     17  C   UNL     1       5.546   3.884  14.943  0.00  0.00    +0.000 A 
ATOM     18  C   UNL     1       5.094   3.973  16.261  0.00  0.00    +0.000 A 
ENDBRANCH   9  12
ENDBRANCH   1   9
BRANCH   1  19
ATOM     19  C   UNL     1       3.505   6.597  18.025  0.00  0.00    +0.000 C 
BRANCH  19  21
ATOM     20  N   UNL     1       2.474   7.769  19.931  0.00  0.00    +0.000 N 
ATOM     21  C   UNL     1       2.313   7.348  18.616  0.00  0.00    +0.000 C 
ATOM     22  O   UNL     1       1.318   7.549  17.916  0.00  0.00    +0.000 OA
ATOM     23  H   UNL     1       3.369   7.588  20.376  0.00  0.00    +0.000 HD
BRANCH  20  27
ATOM     24  C   UNL     1      -0.387  10.043  22.096  0.00  0.00    +0.000 A 
ATOM     25  C   UNL     1      -0.281   8.671  22.309  0.00  0.00    +0.000 A 
ATOM     26  C   UNL     1       0.669   7.909  21.618  0.00  0.00    +0.000 A 
ATOM     27  C   UNL     1       1.524   8.503  20.688  0.00  0.00    +0.000 A 
ATOM     28  C   UNL     1       1.429   9.887  20.491  0.00  0.00    +0.000 A 
ATOM     29  C   UNL     1       0.467  10.652  21.179  0.00  0.00    +0.000 A 
BRANCH  24  31
ATOM     30  C   UNL     1      -1.313  12.072  22.898  0.00  0.00    +0.000 C 
ATOM     31  O   UNL     1      -1.383  10.656  22.802  0.00  0.00    +0.000 OA
ENDBRANCH  24  31
ENDBRANCH  20  27
ENDBRANCH  19  21
ENDBRANCH   1  19
TORSDOF 7
ENDMDL
MODEL 9
REMARK VINA RESULT:      -7.8      1.297      1.689
REMARK  Name = 
REMARK  9 active torsions:
REMARK  status: ('A' for Active; 'I' for Inactive)
REMARK    1  A    between atoms: C_1  and  O_2
REMARK    2  A    between atoms: O_2  and  C_3
REMARK    3  A    between atoms: C_6  and  N_7
REMARK    4  A    between atoms: C_8  and  C_10
REMARK    5  A    between atoms: C_10  and  N_11
REMARK    6  A    between atoms: N_11  and  C_12
REMARK    7  A    between atoms: N_11  and  S_19
REMARK    8  A    between atoms: S_19  and  C_22
REMARK    9  A    between atoms: C_25  and  C_26
REMARK                            x       y       z     vdW  Elec       q    Type
REMARK                         _______ _______ _______ _____ _____    ______ ____
ROOT
ATOM      1  N   UNL     1       3.712   5.219  19.004  0.00  0.00    +0.000 N 
ENDROOT
BRANCH   1   2
ATOM      2  C   UNL     1       2.646   4.304  19.309  0.00  0.00    +0.000 A 
ATOM      3  C   UNL     1       2.373   4.036  20.652  0.00  0.00    +0.000 A 
ATOM      4  C   UNL     1       1.339   3.163  21.000  0.00  0.00    +0.000 A 
ATOM      5  C   UNL     1       0.577   2.546  20.008  0.00  0.00    +0.000 A 
ATOM      6  C   UNL     1       0.843   2.808  18.664  0.00  0.00    +0.000 A 
ATOM      7  C   UNL     1       1.872   3.685  18.323  0.00  0.00    +0.000 A 
ATOM      8  F   UNL     1       2.097   3.941  17.025  0.00  0.00    +0.000 F 
ENDBRANCH   1   2
BRANCH   1   9
ATOM      9  S   UNL     1       5.302   4.656  18.999  0.00  0.00    +0.000 S 
ATOM     10  O   UNL     1       6.102   5.664  19.671  0.00  0.00    +0.000 OA
ATOM     11  O   UNL     1       5.315   3.284  19.464  0.00  0.00    +0.000 OA
BRANCH   9  12
ATOM     12  C   UNL     1       5.790   4.642  17.284  0.00  0.00    +0.000 A 
ATOM     13  C   UNL     1       6.910   5.366  16.867  0.00  0.00    +0.000 A 
ATOM     14  C   UNL     1       7.311   5.314  15.526  0.00  0.00    +0.000 A 
ATOM     15  C   UNL     1       6.606   4.533  14.601  0.00  0.00    +0.000 A 
ATOM     16  C   UNL     1       7.010   4.494  13.156  0.00  0.00    +0.000 C 
ATOM     17  C   UNL     1       5.525   3.760  15.047  0.00  0.00    +0.000 A 
ATOM     18  C   UNL     1       5.118   3.809  16.382  0.00  0.00    +0.000 A 
ENDBRANCH   9  12
ENDBRANCH   1   9
BRANCH   1  19
ATOM     19  C   UNL     1       3.391   6.436  18.237  0.00  0.00    +0.000 C 
BRANCH  19  21
ATOM     20  N   UNL     1       1.877   8.370  18.442  0.00  0.00    +0.000 N 
ATOM     21  C   UNL     1       2.517   7.333  19.112  0.00  0.00    +0.000 C 
ATOM     22  O   UNL     1       2.415   7.089  20.317  0.00  0.00    +0.000 OA
ATOM     23  H   UNL     1       2.002   8.425  17.435  0.00  0.00    +0.000 HD
BRANCH  20  27
ATOM     24  C   UNL     1      -0.845  11.171  20.110  0.00  0.00    +0.000 A 
ATOM     25  C   UNL     1       0.074  10.520  20.929  0.00  0.00    +0.000 A 
ATOM     26  C   UNL     1       0.991   9.608  20.393  0.00  0.00    +0.000 A 
ATOM     27  C   UNL     1       0.998   9.317  19.028  0.00  0.00    +0.000 A 
ATOM     28  C   UNL     1       0.085   9.990  18.203  0.00  0.00    +0.000 A 
ATOM     29  C   UNL     1      -0.844  10.900  18.744  0.00  0.00    +0.000 A 
BRANCH  24  31
ATOM     30  C   UNL     1      -2.097  13.184  20.082  0.00  0.00    +0.000 C 
ATOM     31  O   UNL     1      -1.709  12.001  20.768  0.00  0.00    +0.000 OA
ENDBRANCH  24  31
ENDBRANCH  20  27
ENDBRANCH  19  21
ENDBRANCH   1  19
TORSDOF 7
ENDMDL
