MODEL 1
REMARK VINA RESULT:      -7.6      0.000      0.000
REMARK  Name = 
REMARK  5 active torsions:
REMARK  status: ('A' for Active; 'I' for Inactive)
REMARK    1  A    between atoms: C_2  and  C_11
REMARK    2  A    between atoms: N_3  and  C_4
REMARK    3  A    between atoms: C_4  and  C_5
REMARK    4  A    between atoms: N_14  and  S_15
REMARK    5  A    between atoms: S_15  and  N_18
REMARK                            x       y       z     vdW  Elec       q    Type
REMARK                         _______ _______ _______ _____ _____    ______ ____
ROOT
ATOM      1  C   UNL     1       7.820   6.145  19.008  0.00  0.00    +0.000 C 
ATOM      2  C   UNL     1       8.286   4.861  18.314  0.00  0.00    +0.000 C 
ATOM      3  C   UNL     1       7.405   4.512  17.120  0.00  0.00    +0.000 C 
ATOM      4  N   UNL     1       5.986   4.373  17.539  0.00  0.00    +0.000 NA
ATOM      5  C   UNL     1       5.465   5.588  18.239  0.00  0.00    +0.000 C 
ATOM      6  C   UNL     1       6.353   5.969  19.421  0.00  0.00    +0.000 C 
ENDROOT
BRANCH   1   8
ATOM      7  O   UNL     1       7.687   7.464  16.974  0.00  0.00    +0.000 OA
ATOM      8  C   UNL     1       8.007   7.405  18.157  0.00  0.00    +0.000 C 
ATOM      9  N   UNL     1       8.510   8.491  18.839  0.00  0.00    +0.000 N 
ATOM     10  H   UNL     1       8.634   8.444  19.840  0.00  0.00    +0.000 HD
BRANCH   9  11
ATOM     11  C   UNL     1       8.735   9.760  18.185  0.00  0.00    +0.000 C 
BRANCH  11  12
ATOM     12  C   UNL     1       9.616  10.649  19.011  0.00  0.00    +0.000 A 
ATOM     13  C   UNL     1      10.773  11.228  18.486  0.00  0.00    +0.000 A 
ATOM     14  C   UNL     1      11.572  12.035  19.291  0.00  0.00    +0.000 A 
ATOM     15  C   UNL     1      11.173  12.250  20.599  0.00  0.00    +0.000 A 
ATOM     16  N   UNL     1      10.053  11.726  21.138  0.00  0.00    +0.000 NA
ATOM     17  C   UNL     1       9.302  10.938  20.335  0.00  0.00    +0.000 A 
ENDBRANCH  11  12
ENDBRANCH   9  11
ENDBRANCH   1   8
BRANCH   4  18
ATOM     18  S   UNL     1       4.962   3.955  16.234  0.00  0.00    +0.000 S 
ATOM     19  O   UNL     1       4.271   5.143  15.799  0.00  0.00    +0.000 OA
ATOM     20  O   UNL     1       5.732   3.163  15.307  0.00  0.00    +0.000 OA
BRANCH  18  21
ATOM     21  N   UNL     1       3.830   2.924  17.012  0.00  0.00    +0.000 NA
ATOM     22  C   UNL     1       4.373   2.327  18.270  0.00  0.00    +0.000 C 
ATOM     23  C   UNL     1       3.291   1.676  19.123  0.00  0.00    +0.000 C 
ATOM     24  C   UNL     1       2.237   2.731  19.436  0.00  0.00    +0.000 C 
ATOM     25  C   UNL     1       1.547   3.056  18.124  0.00  0.00    +0.000 C 
ATOM     26  C   UNL     1       2.522   3.653  17.133  0.00  0.00    +0.000 C 
ATOM     27  O   UNL     1       2.895   3.878  20.007  0.00  0.00    +0.000 OA
ATOM     28  C   UNL     1       2.727   3.687  21.411  0.00  0.00    +0.000 C 
ATOM     29  C   UNL     1       1.295   3.242  21.436  0.00  0.00    +0.000 C 
ATOM     30  O   UNL     1       1.268   2.256  20.387  0.00  0.00    +0.000 OA
ENDBRANCH  18  21
ENDBRANCH   4  18
TORSDOF 5
ENDMDL
MODEL 2
REMARK VINA RESULT:      -7.4      8.907     11.285
REMARK  Name = 
REMARK  5 active torsions:
REMARK  status: ('A' for Active; 'I' for Inactive)
REMARK    1  A    between atoms: C_2  and  C_11
REMARK    2  A    between atoms: N_3  and  C_4
REMARK    3  A    between atoms: C_4  and  C_5
REMARK    4  A    between atoms: N_14  and  S_15
REMARK    5  A    between atoms: S_15  and  N_18
REMARK                            x       y       z     vdW  Elec       q    Type
REMARK                         _______ _______ _______ _____ _____    ______ ____
ROOT
ATOM      1  C   UNL     1       0.951   9.713  18.348  0.00  0.00    +0.000 C 
ATOM      2  C   UNL     1       1.538  11.109  18.582  0.00  0.00    +0.000 C 
ATOM      3  C   UNL     1       1.313  11.583  20.013  0.00  0.00    +0.000 C 
ATOM      4  N   UNL     1      -0.135  11.581  20.345  0.00  0.00    +0.000 NA
ATOM      5  C   UNL     1      -0.779  10.248  20.127  0.00  0.00    +0.000 C 
ATOM      6  C   UNL     1      -0.539   9.745  18.706  0.00  0.00    +0.000 C 
ENDROOT
BRANCH   1   8
ATOM      7  O   UNL     1       1.576   8.455  20.330  0.00  0.00    +0.000 OA
ATOM      8  C   UNL     1       1.680   8.605  19.116  0.00  0.00    +0.000 C 
ATOM      9  N   UNL     1       2.418   7.748  18.330  0.00  0.00    +0.000 N 
ATOM     10  H   UNL     1       2.371   7.821  17.324  0.00  0.00    +0.000 HD
BRANCH   9  11
ATOM     11  C   UNL     1       3.156   6.642  18.897  0.00  0.00    +0.000 C 
BRANCH  11  12
ATOM     12  C   UNL     1       2.312   5.405  18.967  0.00  0.00    +0.000 A 
ATOM     13  C   UNL     1       1.799   4.933  20.177  0.00  0.00    +0.000 A 
ATOM     14  C   UNL     1       1.032   3.772  20.201  0.00  0.00    +0.000 A 
ATOM     15  C   UNL     1       0.788   3.127  19.000  0.00  0.00    +0.000 A 
ATOM     16  N   UNL     1       1.247   3.561  17.809  0.00  0.00    +0.000 NA
ATOM     17  C   UNL     1       1.998   4.685  17.818  0.00  0.00    +0.000 A 
ENDBRANCH  11  12
ENDBRANCH   9  11
ENDBRANCH   1   8
BRANCH   4  18
ATOM     18  S   UNL     1      -0.436  12.132  21.936  0.00  0.00    +0.000 S 
ATOM     19  O   UNL     1      -0.197  11.042  22.849  0.00  0.00    +0.000 OA
ATOM     20  O   UNL     1       0.237  13.397  22.099  0.00  0.00    +0.000 OA
BRANCH  18  21
ATOM     21  N   UNL     1      -2.127  12.426  21.875  0.00  0.00    +0.000 NA
ATOM     22  C   UNL     1      -2.775  12.309  23.217  0.00  0.00    +0.000 C 
ATOM     23  C   UNL     1      -4.191  12.869  23.234  0.00  0.00    +0.000 C 
ATOM     24  C   UNL     1      -4.129  14.325  22.788  0.00  0.00    +0.000 C 
ATOM     25  C   UNL     1      -3.739  14.312  21.322  0.00  0.00    +0.000 C 
ATOM     26  C   UNL     1      -2.364  13.710  21.132  0.00  0.00    +0.000 C 
ATOM     27  O   UNL     1      -3.163  15.011  23.607  0.00  0.00    +0.000 OA
ATOM     28  C   UNL     1      -3.965  15.637  24.607  0.00  0.00    +0.000 C 
ATOM     29  C   UNL     1      -5.088  16.142  23.751  0.00  0.00    +0.000 C 
ATOM     30  O   UNL     1      -5.396  14.989  22.946  0.00  0.00    +0.000 OA
ENDBRANCH  18  21
ENDBRANCH   4  18
TORSDOF 5
ENDMDL
MODEL 3
REMARK VINA RESULT:      -7.3      7.523     11.035
REMARK  Name = 
REMARK  5 active torsions:
REMARK  status: ('A' for Active; 'I' for Inactive)
REMARK    1  A    between atoms: C_2  and  C_11
REMARK    2  A    between atoms: N_3  and  C_4
REMARK    3  A    between atoms: C_4  and  C_5
REMARK    4  A    between atoms: N_14  and  S_15
REMARK    5  A    between atoms: S_15  and  N_18
REMARK                            x       y       z     vdW  Elec       q    Type
REMARK                         _______ _______ _______ _____ _____    ______ ____
ROOT
ATOM      1  C   UNL     1       1.293   9.509  18.015  0.00  0.00    +0.000 C 
ATOM      2  C   UNL     1       1.925  10.890  18.222  0.00  0.00    +0.000 C 
ATOM      3  C   UNL     1       1.457  11.537  19.520  0.00  0.00    +0.000 C 
ATOM      4  N   UNL     1      -0.025  11.650  19.545  0.00  0.00    +0.000 NA
ATOM      5  C   UNL     1      -0.712  10.337  19.335  0.00  0.00    +0.000 C 
ATOM      6  C   UNL     1      -0.232   9.662  18.052  0.00  0.00    +0.000 C 
ENDROOT
BRANCH   1   8
ATOM      7  O   UNL     1       1.439   8.475  20.207  0.00  0.00    +0.000 OA
ATOM      8  C   UNL     1       1.769   8.460  19.025  0.00  0.00    +0.000 C 
ATOM      9  N   UNL     1       2.550   7.459  18.491  0.00  0.00    +0.000 N 
ATOM     10  H   UNL     1       2.687   7.406  17.492  0.00  0.00    +0.000 HD
BRANCH   9  11
ATOM     11  C   UNL     1       3.070   6.385  19.307  0.00  0.00    +0.000 C 
BRANCH  11  12
ATOM     12  C   UNL     1       2.267   5.131  19.130  0.00  0.00    +0.000 A 
ATOM     13  C   UNL     1       1.577   4.545  20.194  0.00  0.00    +0.000 A 
ATOM     14  C   UNL     1       0.855   3.373  19.991  0.00  0.00    +0.000 A 
ATOM     15  C   UNL     1       0.834   2.832  18.717  0.00  0.00    +0.000 A 
ATOM     16  N   UNL     1       1.469   3.377  17.660  0.00  0.00    +0.000 NA
ATOM     17  C   UNL     1       2.171   4.510  17.889  0.00  0.00    +0.000 A 
ENDBRANCH  11  12
ENDBRANCH   9  11
ENDBRANCH   1   8
BRANCH   4  18
ATOM     18  S   UNL     1      -0.594  12.395  20.975  0.00  0.00    +0.000 S 
ATOM     19  O   UNL     1      -2.014  12.164  21.076  0.00  0.00    +0.000 OA
ATOM     20  O   UNL     1       0.294  12.025  22.049  0.00  0.00    +0.000 OA
BRANCH  18  21
ATOM     21  N   UNL     1      -0.340  14.055  20.613  0.00  0.00    +0.000 NA
ATOM     22  C   UNL     1       0.965  14.559  21.139  0.00  0.00    +0.000 C 
ATOM     23  C   UNL     1       1.343  15.917  20.561  0.00  0.00    +0.000 C 
ATOM     24  C   UNL     1       1.383  15.791  19.043  0.00  0.00    +0.000 C 
ATOM     25  C   UNL     1      -0.047  15.565  18.590  0.00  0.00    +0.000 C 
ATOM     26  C   UNL     1      -0.595  14.270  19.149  0.00  0.00    +0.000 C 
ATOM     27  O   UNL     1       2.247  14.690  18.701  0.00  0.00    +0.000 OA
ATOM     28  C   UNL     1       3.489  15.328  18.407  0.00  0.00    +0.000 C 
ATOM     29  C   UNL     1       2.993  16.494  17.607  0.00  0.00    +0.000 C 
ATOM     30  O   UNL     1       1.907  16.977  18.419  0.00  0.00    +0.000 OA
ENDBRANCH  18  21
ENDBRANCH   4  18
TORSDOF 5
ENDMDL
MODEL 4
REMARK VINA RESULT:      -7.3      8.776     10.753
REMARK  Name = 
REMARK  5 active torsions:
REMARK  status: ('A' for Active; 'I' for Inactive)
REMARK    1  A    between atoms: C_2  and  C_11
REMARK    2  A    between atoms: N_3  and  C_4
REMARK    3  A    between atoms: C_4  and  C_5
REMARK    4  A    between atoms: N_14  and  S_15
REMARK    5  A    between atoms: S_15  and  N_18
REMARK                            x       y       z     vdW  Elec       q    Type
REMARK                         _______ _______ _______ _____ _____    ______ ____
ROOT
ATOM      1  C   UNL     1       0.933  10.571  19.640  0.00  0.00    +0.000 C 
ATOM      2  C   UNL     1      -0.281   9.899  20.290  0.00  0.00    +0.000 C 
ATOM      3  C   UNL     1      -1.409   9.680  19.288  0.00  0.00    +0.000 C 
ATOM      4  N   UNL     1      -1.816  10.967  18.666  0.00  0.00    +0.000 NA
ATOM      5  C   UNL     1      -0.674  11.687  18.021  0.00  0.00    +0.000 C 
ATOM      6  C   UNL     1       0.477  11.890  19.003  0.00  0.00    +0.000 C 
ENDROOT
BRANCH   1   8
ATOM      7  O   UNL     1       2.013  10.090  17.518  0.00  0.00    +0.000 OA
ATOM      8  C   UNL     1       1.650   9.683  18.617  0.00  0.00    +0.000 C 
ATOM      9  N   UNL     1       1.911   8.401  19.050  0.00  0.00    +0.000 N 
ATOM     10  H   UNL     1       1.718   8.144  20.008  0.00  0.00    +0.000 HD
BRANCH   9  11
ATOM     11  C   UNL     1       2.591   7.440  18.212  0.00  0.00    +0.000 C 
BRANCH  11  12
ATOM     12  C   UNL     1       2.350   6.038  18.686  0.00  0.00    +0.000 A 
ATOM     13  C   UNL     1       1.863   5.047  17.830  0.00  0.00    +0.000 A 
ATOM     14  C   UNL     1       1.639   3.762  18.314  0.00  0.00    +0.000 A 
ATOM     15  C   UNL     1       1.928   3.505  19.643  0.00  0.00    +0.000 A 
ATOM     16  N   UNL     1       2.418   4.428  20.496  0.00  0.00    +0.000 NA
ATOM     17  C   UNL     1       2.616   5.671  20.001  0.00  0.00    +0.000 A 
ENDBRANCH  11  12
ENDBRANCH   9  11
ENDBRANCH   1   8
BRANCH   4  18
ATOM     18  S   UNL     1      -3.099  10.771  17.552  0.00  0.00    +0.000 S 
ATOM     19  O   UNL     1      -2.644  11.198  16.253  0.00  0.00    +0.000 OA
ATOM     20  O   UNL     1      -3.655   9.455  17.747  0.00  0.00    +0.000 OA
BRANCH  18  21
ATOM     21  N   UNL     1      -4.229  11.926  18.136  0.00  0.00    +0.000 NA
ATOM     22  C   UNL     1      -5.637  11.575  17.779  0.00  0.00    +0.000 C 
ATOM     23  C   UNL     1      -6.659  12.404  18.548  0.00  0.00    +0.000 C 
ATOM     24  C   UNL     1      -6.410  12.197  20.037  0.00  0.00    +0.000 C 
ATOM     25  C   UNL     1      -5.076  12.848  20.348  0.00  0.00    +0.000 C 
ATOM     26  C   UNL     1      -3.953  12.172  19.592  0.00  0.00    +0.000 C 
ATOM     27  O   UNL     1      -6.405  10.782  20.306  0.00  0.00    +0.000 OA
ATOM     28  C   UNL     1      -7.730  10.531  20.771  0.00  0.00    +0.000 C 
ATOM     29  C   UNL     1      -7.912  11.718  21.670  0.00  0.00    +0.000 C 
ATOM     30  O   UNL     1      -7.441  12.798  20.842  0.00  0.00    +0.000 OA
ENDBRANCH  18  21
ENDBRANCH   4  18
TORSDOF 5
ENDMDL
MODEL 5
REMARK VINA RESULT:      -7.1      0.715      1.007
REMARK  Name = 
REMARK  5 active torsions:
REMARK  status: ('A' for Active; 'I' for Inactive)
REMARK    1  A    between atoms: C_2  and  C_11
REMARK    2  A    between atoms: N_3  and  C_4
REMARK    3  A    between atoms: C_4  and  C_5
REMARK    4  A    between atoms: N_14  and  S_15
REMARK    5  A    between atoms: S_15  and  N_18
REMARK                            x       y       z     vdW  Elec       q    Type
REMARK                         _______ _______ _______ _____ _____    ______ ____
ROOT
ATOM      1  C   UNL     1       7.624   6.240  18.942  0.00  0.00    +0.000 C 
ATOM      2  C   UNL     1       8.073   4.875  18.410  0.00  0.00    +0.000 C 
ATOM      3  C   UNL     1       7.314   4.484  17.147  0.00  0.00    +0.000 C 
ATOM      4  N   UNL     1       5.850   4.472  17.397  0.00  0.00    +0.000 NA
ATOM      5  C   UNL     1       5.341   5.773  17.933  0.00  0.00    +0.000 C 
ATOM      6  C   UNL     1       6.110   6.194  19.183  0.00  0.00    +0.000 C 
ENDROOT
BRANCH   1   8
ATOM      7  O   UNL     1       7.891   7.364  16.806  0.00  0.00    +0.000 OA
ATOM      8  C   UNL     1       8.002   7.409  18.027  0.00  0.00    +0.000 C 
ATOM      9  N   UNL     1       8.423   8.544  18.686  0.00  0.00    +0.000 N 
ATOM     10  H   UNL     1       8.372   8.588  19.694  0.00  0.00    +0.000 HD
BRANCH   9  11
ATOM     11  C   UNL     1       8.805   9.740  17.971  0.00  0.00    +0.000 C 
BRANCH  11  12
ATOM     12  C   UNL     1       9.525  10.702  18.867  0.00  0.00    +0.000 A 
ATOM     13  C   UNL     1       9.322  10.713  20.249  0.00  0.00    +0.000 A 
ATOM     14  C   UNL     1       9.999  11.632  21.043  0.00  0.00    +0.000 A 
ATOM     15  C   UNL     1      10.878  12.506  20.425  0.00  0.00    +0.000 A 
ATOM     16  N   UNL     1      11.118  12.515  19.098  0.00  0.00    +0.000 NA
ATOM     17  C   UNL     1      10.438  11.617  18.350  0.00  0.00    +0.000 A 
ENDBRANCH  11  12
ENDBRANCH   9  11
ENDBRANCH   1   8
BRANCH   4  18
ATOM     18  S   UNL     1       4.959   4.012  16.011  0.00  0.00    +0.000 S 
ATOM     19  O   UNL     1       4.560   5.206  15.309  0.00  0.00    +0.000 OA
ATOM     20  O   UNL     1       5.695   2.969  15.341  0.00  0.00    +0.000 OA
BRANCH  18  21
ATOM     21  N   UNL     1       3.563   3.312  16.727  0.00  0.00    +0.000 NA
ATOM     22  C   UNL     1       3.895   2.156  17.613  0.00  0.00    +0.000 C 
ATOM     23  C   UNL     1       2.722   1.734  18.489  0.00  0.00    +0.000 C 
ATOM     24  C   UNL     1       2.289   2.940  19.312  0.00  0.00    +0.000 C 
ATOM     25  C   UNL     1       1.699   3.941  18.337  0.00  0.00    +0.000 C 
ATOM     26  C   UNL     1       2.740   4.408  17.342  0.00  0.00    +0.000 C 
ATOM     27  O   UNL     1       3.443   3.461  20.000  0.00  0.00    +0.000 OA
ATOM     28  C   UNL     1       3.339   2.881  21.299  0.00  0.00    +0.000 C 
ATOM     29  C   UNL     1       1.869   3.057  21.539  0.00  0.00    +0.000 C 
ATOM     30  O   UNL     1       1.303   2.590  20.301  0.00  0.00    +0.000 OA
ENDBRANCH  18  21
ENDBRANCH   4  18
TORSDOF 5
ENDMDL
MODEL 6
REMARK VINA RESULT:      -7.0      5.612     10.219
REMARK  Name = 
REMARK  5 active torsions:
REMARK  status: ('A' for Active; 'I' for Inactive)
REMARK    1  A    between atoms: C_2  and  C_11
REMARK    2  A    between atoms: N_3  and  C_4
REMARK    3  A    between atoms: C_4  and  C_5
REMARK    4  A    between atoms: N_14  and  S_15
REMARK    5  A    between atoms: S_15  and  N_18
REMARK                            x       y       z     vdW  Elec       q    Type
REMARK                         _______ _______ _______ _____ _____    ______ ____
ROOT
ATOM      1  C   UNL     1      10.219  10.971  18.763  0.00  0.00    +0.000 C 
ATOM      2  C   UNL     1      10.101  11.404  20.228  0.00  0.00    +0.000 C 
ATOM      3  C   UNL     1       9.312  12.701  20.372  0.00  0.00    +0.000 C 
ATOM      4  N   UNL     1       9.937  13.786  19.572  0.00  0.00    +0.000 NA
ATOM      5  C   UNL     1      10.097  13.427  18.128  0.00  0.00    +0.000 C 
ATOM      6  C   UNL     1      10.861  12.115  17.967  0.00  0.00    +0.000 C 
ENDROOT
BRANCH   1   8
ATOM      7  O   UNL     1       8.147  11.325  17.546  0.00  0.00    +0.000 OA
ATOM      8  C   UNL     1       8.886  10.545  18.140  0.00  0.00    +0.000 C 
ATOM      9  N   UNL     1       8.604   9.201  18.245  0.00  0.00    +0.000 N 
ATOM     10  H   UNL     1       9.298   8.569  18.620  0.00  0.00    +0.000 HD
BRANCH   9  11
ATOM     11  C   UNL     1       7.393   8.634  17.698  0.00  0.00    +0.000 C 
BRANCH  11  12
ATOM     12  C   UNL     1       7.454   7.136  17.678  0.00  0.00    +0.000 A 
ATOM     13  C   UNL     1       7.058   6.399  16.559  0.00  0.00    +0.000 A 
ATOM     14  C   UNL     1       7.117   5.009  16.587  0.00  0.00    +0.000 A 
ATOM     15  C   UNL     1       7.590   4.399  17.736  0.00  0.00    +0.000 A 
ATOM     16  N   UNL     1       8.001   5.074  18.829  0.00  0.00    +0.000 NA
ATOM     17  C   UNL     1       7.923   6.423  18.777  0.00  0.00    +0.000 A 
ENDBRANCH  11  12
ENDBRANCH   9  11
ENDBRANCH   1   8
BRANCH   4  18
ATOM     18  S   UNL     1       9.097  15.269  19.725  0.00  0.00    +0.000 S 
ATOM     19  O   UNL     1       9.407  15.838  21.013  0.00  0.00    +0.000 OA
ATOM     20  O   UNL     1       9.308  16.021  18.513  0.00  0.00    +0.000 OA
BRANCH  18  21
ATOM     21  N   UNL     1       7.466  14.731  19.749  0.00  0.00    +0.000 NA
ATOM     22  C   UNL     1       6.765  15.093  21.018  0.00  0.00    +0.000 C 
ATOM     23  C   UNL     1       5.256  14.907  20.926  0.00  0.00    +0.000 C 
ATOM     24  C   UNL     1       4.746  15.753  19.766  0.00  0.00    +0.000 C 
ATOM     25  C   UNL     1       5.288  15.120  18.498  0.00  0.00    +0.000 C 
ATOM     26  C   UNL     1       6.801  15.164  18.474  0.00  0.00    +0.000 C 
ATOM     27  O   UNL     1       5.212  17.104  19.947  0.00  0.00    +0.000 OA
ATOM     28  C   UNL     1       4.098  17.756  20.555  0.00  0.00    +0.000 C 
ATOM     29  C   UNL     1       2.987  17.186  19.725  0.00  0.00    +0.000 C 
ATOM     30  O   UNL     1       3.308  15.783  19.715  0.00  0.00    +0.000 OA
ENDBRANCH  18  21
ENDBRANCH   4  18
TORSDOF 5
ENDMDL
MODEL 7
REMARK VINA RESULT:      -7.0      8.516     11.124
REMARK  Name = 
REMARK  5 active torsions:
REMARK  status: ('A' for Active; 'I' for Inactive)
REMARK    1  A    between atoms: C_2  and  C_11
REMARK    2  A    between atoms: N_3  and  C_4
REMARK    3  A    between atoms: C_4  and  C_5
REMARK    4  A    between atoms: N_14  and  S_15
REMARK    5  A    between atoms: S_15  and  N_18
REMARK                            x       y       z     vdW  Elec       q    Type
REMARK                         _______ _______ _______ _____ _____    ______ ____
ROOT
ATOM      1  C   UNL     1       1.115   8.567  21.691  0.00  0.00    +0.000 C 
ATOM      2  C   UNL     1      -0.415   8.552  21.789  0.00  0.00    +0.000 C 
ATOM      3  C   UNL     1      -1.050   9.581  20.861  0.00  0.00    +0.000 C 
ATOM      4  N   UNL     1      -0.538  10.943  21.159  0.00  0.00    +0.000 NA
ATOM      5  C   UNL     1       0.955  11.030  21.095  0.00  0.00    +0.000 C 
ATOM      6  C   UNL     1       1.608   9.986  21.998  0.00  0.00    +0.000 C 
ENDROOT
BRANCH   1   8
ATOM      7  O   UNL     1       1.669   8.782  19.337  0.00  0.00    +0.000 OA
ATOM      8  C   UNL     1       1.647   8.077  20.341  0.00  0.00    +0.000 C 
ATOM      9  N   UNL     1       2.157   6.797  20.353  0.00  0.00    +0.000 N 
ATOM     10  H   UNL     1       2.245   6.298  21.227  0.00  0.00    +0.000 HD
BRANCH   9  11
ATOM     11  C   UNL     1       2.710   6.189  19.164  0.00  0.00    +0.000 C 
BRANCH  11  12
ATOM     12  C   UNL     1       2.176   4.802  18.965  0.00  0.00    +0.000 A 
ATOM     13  C   UNL     1       1.343   4.193  19.906  0.00  0.00    +0.000 A 
ATOM     14  C   UNL     1       0.881   2.899  19.690  0.00  0.00    +0.000 A 
ATOM     15  C   UNL     1       1.257   2.258  18.521  0.00  0.00    +0.000 A 
ATOM     16  N   UNL     1       2.042   2.818  17.579  0.00  0.00    +0.000 NA
ATOM     17  C   UNL     1       2.484   4.073  17.821  0.00  0.00    +0.000 A 
ENDBRANCH  11  12
ENDBRANCH   9  11
ENDBRANCH   1   8
BRANCH   4  18
ATOM     18  S   UNL     1      -1.245  12.135  20.157  0.00  0.00    +0.000 S 
ATOM     19  O   UNL     1      -0.189  12.912  19.557  0.00  0.00    +0.000 OA
ATOM     20  O   UNL     1      -2.243  11.490  19.341  0.00  0.00    +0.000 OA
BRANCH  18  21
ATOM     21  N   UNL     1      -2.047  13.116  21.316  0.00  0.00    +0.000 NA
ATOM     22  C   UNL     1      -3.220  13.839  20.737  0.00  0.00    +0.000 C 
ATOM     23  C   UNL     1      -4.116  14.452  21.807  0.00  0.00    +0.000 C 
ATOM     24  C   UNL     1      -4.574  13.335  22.736  0.00  0.00    +0.000 C 
ATOM     25  C   UNL     1      -3.343  12.866  23.489  0.00  0.00    +0.000 C 
ATOM     26  C   UNL     1      -2.315  12.288  22.541  0.00  0.00    +0.000 C 
ATOM     27  O   UNL     1      -5.159  12.289  21.937  0.00  0.00    +0.000 OA
ATOM     28  C   UNL     1      -6.558  12.558  22.018  0.00  0.00    +0.000 C 
ATOM     29  C   UNL     1      -6.670  12.881  23.478  0.00  0.00    +0.000 C 
ATOM     30  O   UNL     1      -5.569  13.789  23.671  0.00  0.00    +0.000 OA
ENDBRANCH  18  21
ENDBRANCH   4  18
TORSDOF 5
ENDMDL
MODEL 8
REMARK VINA RESULT:      -6.9      8.303     11.459
REMARK  Name = 
REMARK  5 active torsions:
REMARK  status: ('A' for Active; 'I' for Inactive)
REMARK    1  A    between atoms: C_2  and  C_11
REMARK    2  A    between atoms: N_3  and  C_4
REMARK    3  A    between atoms: C_4  and  C_5
REMARK    4  A    between atoms: N_14  and  S_15
REMARK    5  A    between atoms: S_15  and  N_18
REMARK                            x       y       z     vdW  Elec       q    Type
REMARK                         _______ _______ _______ _____ _____    ______ ____
ROOT
ATOM      1  C   UNL     1       1.328   9.491  17.946  0.00  0.00    +0.000 C 
ATOM      2  C   UNL     1       1.993  10.863  18.104  0.00  0.00    +0.000 C 
ATOM      3  C   UNL     1       1.560  11.555  19.392  0.00  0.00    +0.000 C 
ATOM      4  N   UNL     1       0.082  11.700  19.439  0.00  0.00    +0.000 NA
ATOM      5  C   UNL     1      -0.636  10.397  19.276  0.00  0.00    +0.000 C 
ATOM      6  C   UNL     1      -0.193   9.677  18.005  0.00  0.00    +0.000 C 
ENDROOT
BRANCH   1   8
ATOM      7  O   UNL     1       1.471   8.500  20.159  0.00  0.00    +0.000 OA
ATOM      8  C   UNL     1       1.799   8.460  18.977  0.00  0.00    +0.000 C 
ATOM      9  N   UNL     1       2.574   7.444  18.463  0.00  0.00    +0.000 N 
ATOM     10  H   UNL     1       2.710   7.370  17.465  0.00  0.00    +0.000 HD
BRANCH   9  11
ATOM     11  C   UNL     1       3.088   6.383  19.299  0.00  0.00    +0.000 C 
BRANCH  11  12
ATOM     12  C   UNL     1       2.260   5.140  19.171  0.00  0.00    +0.000 A 
ATOM     13  C   UNL     1       1.615   4.571  20.272  0.00  0.00    +0.000 A 
ATOM     14  C   UNL     1       0.868   3.408  20.113  0.00  0.00    +0.000 A 
ATOM     15  C   UNL     1       0.777   2.859  18.846  0.00  0.00    +0.000 A 
ATOM     16  N   UNL     1       1.367   3.387  17.755  0.00  0.00    +0.000 NA
ATOM     17  C   UNL     1       2.095   4.512  17.941  0.00  0.00    +0.000 A 
ENDBRANCH  11  12
ENDBRANCH   9  11
ENDBRANCH   1   8
BRANCH   4  18
ATOM     18  S   UNL     1      -0.446  12.497  20.857  0.00  0.00    +0.000 S 
ATOM     19  O   UNL     1      -1.569  11.770  21.396  0.00  0.00    +0.000 OA
ATOM     20  O   UNL     1       0.715  12.773  21.666  0.00  0.00    +0.000 OA
BRANCH  18  21
ATOM     21  N   UNL     1      -1.021  13.982  20.214  0.00  0.00    +0.000 NA
ATOM     22  C   UNL     1      -1.201  15.027  21.267  0.00  0.00    +0.000 C 
ATOM     23  C   UNL     1      -1.401  16.419  20.682  0.00  0.00    +0.000 C 
ATOM     24  C   UNL     1      -0.199  16.739  19.802  0.00  0.00    +0.000 C 
ATOM     25  C   UNL     1      -0.275  15.806  18.608  0.00  0.00    +0.000 C 
ATOM     26  C   UNL     1      -0.162  14.361  19.042  0.00  0.00    +0.000 C 
ATOM     27  O   UNL     1       0.999  16.540  20.578  0.00  0.00    +0.000 OA
ATOM     28  C   UNL     1       1.322  17.855  21.026  0.00  0.00    +0.000 C 
ATOM     29  C   UNL     1       1.065  18.623  19.764  0.00  0.00    +0.000 C 
ATOM     30  O   UNL     1      -0.213  18.105  19.350  0.00  0.00    +0.000 OA
ENDBRANCH  18  21
ENDBRANCH   4  18
TORSDOF 5
ENDMDL
MODEL 9
REMARK VINA RESULT:      -6.8      7.815     11.066
REMARK  Name = 
REMARK  5 active torsions:
REMARK  status: ('A' for Active; 'I' for Inactive)
REMARK    1  A    between atoms: C_2  and  C_11
REMARK    2  A    between atoms: N_3  and  C_4
REMARK    3  A    between atoms: C_4  and  C_5
REMARK    4  A    between atoms: N_14  and  S_15
REMARK    5  A    between atoms: S_15  and  N_18
REMARK                            x       y       z     vdW  Elec       q    Type
REMARK                         _______ _______ _______ _____ _____    ______ ____
ROOT
ATOM      1  C   UNL     1       1.131   9.941  18.177  0.00  0.00    +0.000 C 
ATOM      2  C   UNL     1       1.900  11.255  18.358  0.00  0.00    +0.000 C 
ATOM      3  C   UNL     1       1.474  11.988  19.624  0.00  0.00    +0.000 C 
ATOM      4  N   UNL     1       0.012  12.256  19.609  0.00  0.00    +0.000 NA
ATOM      5  C   UNL     1      -0.804  11.015  19.422  0.00  0.00    +0.000 C 
ATOM      6  C   UNL     1      -0.370  10.252  18.172  0.00  0.00    +0.000 C 
ENDROOT
BRANCH   1   8
ATOM      7  O   UNL     1       1.124   8.971  20.403  0.00  0.00    +0.000 OA
ATOM      8  C   UNL     1       1.472   8.882  19.230  0.00  0.00    +0.000 C 
ATOM      9  N   UNL     1       2.152   7.786  18.745  0.00  0.00    +0.000 N 
ATOM     10  H   UNL     1       2.301   7.685  17.751  0.00  0.00    +0.000 HD
BRANCH   9  11
ATOM     11  C   UNL     1       2.538   6.690  19.605  0.00  0.00    +0.000 C 
BRANCH  11  12
ATOM     12  C   UNL     1       2.956   5.493  18.805  0.00  0.00    +0.000 A 
ATOM     13  C   UNL     1       2.038   4.754  18.055  0.00  0.00    +0.000 A 
ATOM     14  C   UNL     1       2.465   3.640  17.338  0.00  0.00    +0.000 A 
ATOM     15  C   UNL     1       3.809   3.311  17.383  0.00  0.00    +0.000 A 
ATOM     16  N   UNL     1       4.729   4.009  18.079  0.00  0.00    +0.000 NA
ATOM     17  C   UNL     1       4.284   5.080  18.774  0.00  0.00    +0.000 A 
ENDBRANCH  11  12
ENDBRANCH   9  11
ENDBRANCH   1   8
BRANCH   4  18
ATOM     18  S   UNL     1      -0.507  13.102  21.002  0.00  0.00    +0.000 S 
ATOM     19  O   UNL     1      -1.932  12.933  21.134  0.00  0.00    +0.000 OA
ATOM     20  O   UNL     1       0.383  12.758  22.083  0.00  0.00    +0.000 OA
BRANCH  18  21
ATOM     21  N   UNL     1      -0.194  14.728  20.543  0.00  0.00    +0.000 NA
ATOM     22  C   UNL     1       1.166  15.186  20.960  0.00  0.00    +0.000 C 
ATOM     23  C   UNL     1       1.572  16.495  20.294  0.00  0.00    +0.000 C 
ATOM     24  C   UNL     1       1.507  16.296  18.784  0.00  0.00    +0.000 C 
ATOM     25  C   UNL     1       0.042  16.125  18.432  0.00  0.00    +0.000 C 
ATOM     26  C   UNL     1      -0.533  14.888  19.088  0.00  0.00    +0.000 C 
ATOM     27  O   UNL     1       2.291  15.137  18.444  0.00  0.00    +0.000 OA
ATOM     28  C   UNL     1       3.542  15.693  18.042  0.00  0.00    +0.000 C 
ATOM     29  C   UNL     1       3.053  16.846  17.217  0.00  0.00    +0.000 C 
ATOM     30  O   UNL     1       2.048  17.423  18.071  0.00  0.00    +0.000 OA
ENDBRANCH  18  21
ENDBRANCH   4  18
TORSDOF 5
ENDMDL
