MODEL 1
REMARK VINA RESULT:      -7.7      0.000      0.000
REMARK  Name = 
REMARK  3 active torsions:
REMARK  status: ('A' for Active; 'I' for Inactive)
REMARK    1  A    between atoms: C_2  and  C_3
REMARK    2  A    between atoms: C_7  and  C_8
REMARK    3  A    between atoms: C_22  and  N_23
REMARK                            x       y       z     vdW  Elec       q    Type
REMARK                         _______ _______ _______ _____ _____    ______ ____
ROOT
ATOM      1  O   UNL     1       0.545   9.509  21.679  0.00  0.00    +0.000 OA
ATOM      2  C   UNL     1       0.761   9.530  20.469  0.00  0.00    +0.000 C 
ATOM      3  N   UNL     1       1.477   8.492  19.837  0.00  0.00    +0.000 N 
ATOM      4  C   UNL     1       1.815   8.465  18.427  0.00  0.00    +0.000 C 
ATOM      5  C   UNL     1       3.130   7.788  18.140  0.00  0.00    +0.000 C 
ATOM      6  C   UNL     1       3.240   6.441  18.779  0.00  0.00    +0.000 A 
ATOM      7  C   UNL     1       2.481   6.159  19.915  0.00  0.00    +0.000 A 
ATOM      8  N   UNL     1       2.497   4.944  20.501  0.00  0.00    +0.000 NA
ATOM      9  C   UNL     1       3.293   4.016  19.952  0.00  0.00    +0.000 A 
ATOM     10  N   UNL     1       4.084   4.188  18.884  0.00  0.00    +0.000 NA
ATOM     11  C   UNL     1       4.071   5.417  18.312  0.00  0.00    +0.000 A 
ATOM     12  C   UNL     1       1.551   7.200  20.534  0.00  0.00    +0.000 C 
ENDROOT
BRANCH   2  13
ATOM     13  C   UNL     1       0.168  10.643  19.644  0.00  0.00    +0.000 A 
ATOM     14  C   UNL     1      -0.989  10.358  18.895  0.00  0.00    +0.000 A 
ATOM     15  C   UNL     1      -1.526  11.271  17.999  0.00  0.00    +0.000 A 
ATOM     16  C   UNL     1      -1.030  12.562  17.975  0.00  0.00    +0.000 A 
ATOM     17  C   UNL     1       0.007  12.948  18.845  0.00  0.00    +0.000 A 
ATOM     18  C   UNL     1       0.647  11.971  19.644  0.00  0.00    +0.000 A 
ATOM     19 CL   UNL     1       2.022  12.435  20.590  0.00  0.00    +0.000 Cl
BRANCH  17  20
ATOM     20  C   UNL     1       0.339  14.419  18.941  0.00  0.00    +0.000 C 
ATOM     21  F   UNL     1      -0.517  15.197  18.212  0.00  0.00    +0.000 F 
ATOM     22  F   UNL     1       0.245  14.895  20.213  0.00  0.00    +0.000 F 
ATOM     23  F   UNL     1       1.580  14.734  18.489  0.00  0.00    +0.000 F 
ENDBRANCH  17  20
ENDBRANCH   2  13
BRANCH  11  24
ATOM     24  N   UNL     1       4.961   5.604  17.207  0.00  0.00    +0.000 N 
ATOM     25  C   UNL     1       6.139   6.293  17.204  0.00  0.00    +0.000 A 
ATOM     26  N   UNL     1       6.728   6.214  16.029  0.00  0.00    +0.000 NA
ATOM     27  C   UNL     1       5.851   5.463  15.311  0.00  0.00    +0.000 A 
ATOM     28  N   UNL     1       4.756   5.087  15.965  0.00  0.00    +0.000 NA
ENDBRANCH  11  24
TORSDOF 3
ENDMDL
MODEL 2
REMARK VINA RESULT:      -7.4      0.490      1.015
REMARK  Name = 
REMARK  3 active torsions:
REMARK  status: ('A' for Active; 'I' for Inactive)
REMARK    1  A    between atoms: C_2  and  C_3
REMARK    2  A    between atoms: C_7  and  C_8
REMARK    3  A    between atoms: C_22  and  N_23
REMARK                            x       y       z     vdW  Elec       q    Type
REMARK                         _______ _______ _______ _____ _____    ______ ____
ROOT
ATOM      1  O   UNL     1       0.293   9.346  21.695  0.00  0.00    +0.000 OA
ATOM      2  C   UNL     1       0.602   9.404  20.508  0.00  0.00    +0.000 C 
ATOM      3  N   UNL     1       1.384   8.394  19.907  0.00  0.00    +0.000 N 
ATOM      4  C   UNL     1       1.832   8.411  18.527  0.00  0.00    +0.000 C 
ATOM      5  C   UNL     1       3.176   7.762  18.328  0.00  0.00    +0.000 C 
ATOM      6  C   UNL     1       3.259   6.400  18.938  0.00  0.00    +0.000 A 
ATOM      7  C   UNL     1       2.419   6.076  20.002  0.00  0.00    +0.000 A 
ATOM      8  N   UNL     1       2.410   4.845  20.555  0.00  0.00    +0.000 NA
ATOM      9  C   UNL     1       3.262   3.945  20.047  0.00  0.00    +0.000 A 
ATOM     10  N   UNL     1       4.131   4.158  19.050  0.00  0.00    +0.000 NA
ATOM     11  C   UNL     1       4.142   5.402  18.511  0.00  0.00    +0.000 A 
ATOM     12  C   UNL     1       1.425   7.085  20.573  0.00  0.00    +0.000 C 
ENDROOT
BRANCH   2  13
ATOM     13  C   UNL     1       0.058  10.530  19.668  0.00  0.00    +0.000 A 
ATOM     14  C   UNL     1      -1.078  10.268  18.879  0.00  0.00    +0.000 A 
ATOM     15  C   UNL     1      -1.569  11.193  17.970  0.00  0.00    +0.000 A 
ATOM     16  C   UNL     1      -1.050  12.475  17.967  0.00  0.00    +0.000 A 
ATOM     17  C   UNL     1      -0.037  12.840  18.874  0.00  0.00    +0.000 A 
ATOM     18  C   UNL     1       0.558  11.849  19.690  0.00  0.00    +0.000 A 
ATOM     19 CL   UNL     1       1.909  12.286  20.684  0.00  0.00    +0.000 Cl
BRANCH  17  20
ATOM     20  C   UNL     1       0.317  14.305  18.988  0.00  0.00    +0.000 C 
ATOM     21  F   UNL     1       1.594  14.568  18.572  0.00  0.00    +0.000 F 
ATOM     22  F   UNL     1      -0.472  15.096  18.211  0.00  0.00    +0.000 F 
ATOM     23  F   UNL     1       0.247  14.792  20.253  0.00  0.00    +0.000 F 
ENDBRANCH  17  20
ENDBRANCH   2  13
BRANCH  11  24
ATOM     24  N   UNL     1       5.112   5.633  17.484  0.00  0.00    +0.000 N 
ATOM     25  C   UNL     1       4.934   5.506  16.137  0.00  0.00    +0.000 A 
ATOM     26  N   UNL     1       6.023   5.854  15.484  0.00  0.00    +0.000 NA
ATOM     27  C   UNL     1       6.878   6.179  16.490  0.00  0.00    +0.000 A 
ATOM     28  N   UNL     1       6.389   6.043  17.718  0.00  0.00    +0.000 NA
ENDBRANCH  11  24
TORSDOF 3
ENDMDL
MODEL 3
REMARK VINA RESULT:      -7.4      2.429      3.980
REMARK  Name = 
REMARK  3 active torsions:
REMARK  status: ('A' for Active; 'I' for Inactive)
REMARK    1  A    between atoms: C_2  and  C_3
REMARK    2  A    between atoms: C_7  and  C_8
REMARK    3  A    between atoms: C_22  and  N_23
REMARK                            x       y       z     vdW  Elec       q    Type
REMARK                         _______ _______ _______ _____ _____    ______ ____
ROOT
ATOM      1  O   UNL     1       0.851  10.184  18.108  0.00  0.00    +0.000 OA
ATOM      2  C   UNL     1       1.098   9.411  19.030  0.00  0.00    +0.000 C 
ATOM      3  N   UNL     1       1.961   8.310  18.848  0.00  0.00    +0.000 N 
ATOM      4  C   UNL     1       2.265   7.325  19.869  0.00  0.00    +0.000 C 
ATOM      5  C   UNL     1       2.503   5.945  19.315  0.00  0.00    +0.000 C 
ATOM      6  C   UNL     1       3.494   5.932  18.197  0.00  0.00    +0.000 A 
ATOM      7  C   UNL     1       3.688   7.087  17.442  0.00  0.00    +0.000 A 
ATOM      8  N   UNL     1       4.608   7.152  16.456  0.00  0.00    +0.000 NA
ATOM      9  C   UNL     1       5.322   6.042  16.220  0.00  0.00    +0.000 A 
ATOM     10  N   UNL     1       5.197   4.873  16.862  0.00  0.00    +0.000 NA
ATOM     11  C   UNL     1       4.259   4.816  17.840  0.00  0.00    +0.000 A 
ATOM     12  C   UNL     1       2.899   8.366  17.718  0.00  0.00    +0.000 C 
ENDROOT
BRANCH   2  13
ATOM     13  C   UNL     1       0.534   9.705  20.396  0.00  0.00    +0.000 A 
ATOM     14  C   UNL     1       1.102   9.035  21.496  0.00  0.00    +0.000 A 
ATOM     15  C   UNL     1       0.563   9.131  22.771  0.00  0.00    +0.000 A 
ATOM     16  C   UNL     1      -0.441  10.051  23.010  0.00  0.00    +0.000 A 
ATOM     17  C   UNL     1      -0.913  10.882  21.976  0.00  0.00    +0.000 A 
ATOM     18  C   UNL     1      -0.463  10.670  20.651  0.00  0.00    +0.000 A 
ATOM     19 CL   UNL     1      -1.172  11.596  19.370  0.00  0.00    +0.000 Cl
BRANCH  17  20
ATOM     20  C   UNL     1      -1.831  12.024  22.349  0.00  0.00    +0.000 C 
ATOM     21  F   UNL     1      -2.301  11.920  23.629  0.00  0.00    +0.000 F 
ATOM     22  F   UNL     1      -1.208  13.233  22.303  0.00  0.00    +0.000 F 
ATOM     23  F   UNL     1      -2.938  12.117  21.569  0.00  0.00    +0.000 F 
ENDBRANCH  17  20
ENDBRANCH   2  13
BRANCH  11  24
ATOM     24  N   UNL     1       4.097   3.546  18.480  0.00  0.00    +0.000 N 
ATOM     25  C   UNL     1       3.305   2.512  18.073  0.00  0.00    +0.000 A 
ATOM     26  N   UNL     1       3.442   1.472  18.868  0.00  0.00    +0.000 NA
ATOM     27  C   UNL     1       4.336   1.922  19.788  0.00  0.00    +0.000 A 
ATOM     28  N   UNL     1       4.748   3.174  19.616  0.00  0.00    +0.000 NA
ENDBRANCH  11  24
TORSDOF 3
ENDMDL
MODEL 4
REMARK VINA RESULT:      -7.2      2.426      3.898
REMARK  Name = 
REMARK  3 active torsions:
REMARK  status: ('A' for Active; 'I' for Inactive)
REMARK    1  A    between atoms: C_2  and  C_3
REMARK    2  A    between atoms: C_7  and  C_8
REMARK    3  A    between atoms: C_22  and  N_23
REMARK                            x       y       z     vdW  Elec       q    Type
REMARK                         _______ _______ _______ _____ _____    ______ ____
ROOT
ATOM      1  O   UNL     1       0.845  10.413  18.253  0.00  0.00    +0.000 OA
ATOM      2  C   UNL     1       1.047   9.594  19.146  0.00  0.00    +0.000 C 
ATOM      3  N   UNL     1       1.873   8.470  18.933  0.00  0.00    +0.000 N 
ATOM      4  C   UNL     1       2.124   7.434  19.917  0.00  0.00    +0.000 C 
ATOM      5  C   UNL     1       2.323   6.070  19.310  0.00  0.00    +0.000 C 
ATOM      6  C   UNL     1       3.333   6.067  18.209  0.00  0.00    +0.000 A 
ATOM      7  C   UNL     1       3.582   7.245  17.506  0.00  0.00    +0.000 A 
ATOM      8  N   UNL     1       4.522   7.317  16.540  0.00  0.00    +0.000 NA
ATOM      9  C   UNL     1       5.200   6.193  16.270  0.00  0.00    +0.000 A 
ATOM     10  N   UNL     1       5.022   5.003  16.860  0.00  0.00    +0.000 NA
ATOM     11  C   UNL     1       4.065   4.940  17.818  0.00  0.00    +0.000 A 
ATOM     12  C   UNL     1       2.834   8.539  17.822  0.00  0.00    +0.000 C 
ENDROOT
BRANCH   2  13
ATOM     13  C   UNL     1       0.468   9.851  20.513  0.00  0.00    +0.000 A 
ATOM     14  C   UNL     1       1.044   9.175  21.605  0.00  0.00    +0.000 A 
ATOM     15  C   UNL     1       0.496   9.236  22.877  0.00  0.00    +0.000 A 
ATOM     16  C   UNL     1      -0.529  10.131  23.127  0.00  0.00    +0.000 A 
ATOM     17  C   UNL     1      -1.014  10.969  22.104  0.00  0.00    +0.000 A 
ATOM     18  C   UNL     1      -0.552  10.789  20.779  0.00  0.00    +0.000 A 
ATOM     19 CL   UNL     1      -1.274  11.722  19.509  0.00  0.00    +0.000 Cl
BRANCH  17  20
ATOM     20  C   UNL     1      -1.959  12.083  22.490  0.00  0.00    +0.000 C 
ATOM     21  F   UNL     1      -3.091  12.097  21.723  0.00  0.00    +0.000 F 
ATOM     22  F   UNL     1      -2.406  11.970  23.771  0.00  0.00    +0.000 F 
ATOM     23  F   UNL     1      -1.427  13.325  22.363  0.00  0.00    +0.000 F 
ENDBRANCH  17  20
ENDBRANCH   2  13
BRANCH  11  24
ATOM     24  N   UNL     1       3.846   3.652  18.402  0.00  0.00    +0.000 N 
ATOM     25  C   UNL     1       4.491   3.112  19.477  0.00  0.00    +0.000 A 
ATOM     26  N   UNL     1       3.997   1.930  19.778  0.00  0.00    +0.000 NA
ATOM     27  C   UNL     1       3.036   1.763  18.830  0.00  0.00    +0.000 A 
ATOM     28  N   UNL     1       2.917   2.760  17.960  0.00  0.00    +0.000 NA
ENDBRANCH  11  24
TORSDOF 3
ENDMDL
MODEL 5
REMARK VINA RESULT:      -7.1      5.076      8.354
REMARK  Name = 
REMARK  3 active torsions:
REMARK  status: ('A' for Active; 'I' for Inactive)
REMARK    1  A    between atoms: C_2  and  C_3
REMARK    2  A    between atoms: C_7  and  C_8
REMARK    3  A    between atoms: C_22  and  N_23
REMARK                            x       y       z     vdW  Elec       q    Type
REMARK                         _______ _______ _______ _____ _____    ______ ____
ROOT
ATOM      1  O   UNL     1       3.219   4.796  19.752  0.00  0.00    +0.000 OA
ATOM      2  C   UNL     1       3.371   5.819  19.088  0.00  0.00    +0.000 C 
ATOM      3  N   UNL     1       2.622   6.983  19.360  0.00  0.00    +0.000 N 
ATOM      4  C   UNL     1       2.706   8.214  18.595  0.00  0.00    +0.000 C 
ATOM      5  C   UNL     1       1.400   8.960  18.518  0.00  0.00    +0.000 C 
ATOM      6  C   UNL     1       0.768   9.162  19.857  0.00  0.00    +0.000 A 
ATOM      7  C   UNL     1       1.071   8.283  20.896  0.00  0.00    +0.000 A 
ATOM      8  N   UNL     1       0.574   8.449  22.140  0.00  0.00    +0.000 NA
ATOM      9  C   UNL     1      -0.243   9.494  22.332  0.00  0.00    +0.000 A 
ATOM     10  N   UNL     1      -0.623  10.379  21.401  0.00  0.00    +0.000 NA
ATOM     11  C   UNL     1      -0.130  10.194  20.152  0.00  0.00    +0.000 A 
ATOM     12  C   UNL     1       2.021   7.105  20.696  0.00  0.00    +0.000 C 
ENDROOT
BRANCH   2  13
ATOM     13  C   UNL     1       4.441   5.846  18.027  0.00  0.00    +0.000 A 
ATOM     14  C   UNL     1       5.504   6.753  18.194  0.00  0.00    +0.000 A 
ATOM     15  C   UNL     1       6.459   6.951  17.207  0.00  0.00    +0.000 A 
ATOM     16  C   UNL     1       6.483   6.106  16.113  0.00  0.00    +0.000 A 
ATOM     17  C   UNL     1       5.551   5.057  15.997  0.00  0.00    +0.000 A 
ATOM     18  C   UNL     1       4.491   4.961  16.930  0.00  0.00    +0.000 A 
ATOM     19 CL   UNL     1       3.266   3.761  16.681  0.00  0.00    +0.000 Cl
BRANCH  17  20
ATOM     20  C   UNL     1       5.774   4.028  14.913  0.00  0.00    +0.000 C 
ATOM     21  F   UNL     1       6.974   4.191  14.277  0.00  0.00    +0.000 F 
ATOM     22  F   UNL     1       5.807   2.756  15.397  0.00  0.00    +0.000 F 
ATOM     23  F   UNL     1       4.841   4.054  13.927  0.00  0.00    +0.000 F 
ENDBRANCH  17  20
ENDBRANCH   2  13
BRANCH  11  24
ATOM     24  N   UNL     1      -0.587  11.113  19.154  0.00  0.00    +0.000 N 
ATOM     25  C   UNL     1      -1.643  10.952  18.306  0.00  0.00    +0.000 A 
ATOM     26  N   UNL     1      -1.814  12.021  17.557  0.00  0.00    +0.000 NA
ATOM     27  C   UNL     1      -0.806  12.834  17.972  0.00  0.00    +0.000 A 
ATOM     28  N   UNL     1      -0.021  12.328  18.917  0.00  0.00    +0.000 NA
ENDBRANCH  11  24
TORSDOF 3
ENDMDL
MODEL 6
REMARK VINA RESULT:      -7.0      1.838      2.338
REMARK  Name = 
REMARK  3 active torsions:
REMARK  status: ('A' for Active; 'I' for Inactive)
REMARK    1  A    between atoms: C_2  and  C_3
REMARK    2  A    between atoms: C_7  and  C_8
REMARK    3  A    between atoms: C_22  and  N_23
REMARK                            x       y       z     vdW  Elec       q    Type
REMARK                         _______ _______ _______ _____ _____    ______ ____
ROOT
ATOM      1  O   UNL     1       1.208   7.417  21.542  0.00  0.00    +0.000 OA
ATOM      2  C   UNL     1       1.576   7.773  20.425  0.00  0.00    +0.000 C 
ATOM      3  N   UNL     1       2.213   6.874  19.544  0.00  0.00    +0.000 N 
ATOM      4  C   UNL     1       2.719   7.227  18.231  0.00  0.00    +0.000 C 
ATOM      5  C   UNL     1       3.950   6.454  17.838  0.00  0.00    +0.000 C 
ATOM      6  C   UNL     1       3.787   4.978  18.008  0.00  0.00    +0.000 A 
ATOM      7  C   UNL     1       2.859   4.495  18.930  0.00  0.00    +0.000 A 
ATOM      8  N   UNL     1       2.629   3.174  19.087  0.00  0.00    +0.000 NA
ATOM      9  C   UNL     1       3.349   2.339  18.326  0.00  0.00    +0.000 A 
ATOM     10  N   UNL     1       4.285   2.692  17.435  0.00  0.00    +0.000 NA
ATOM     11  C   UNL     1       4.518   4.021  17.296  0.00  0.00    +0.000 A 
ATOM     12  C   UNL     1       2.014   5.438  19.784  0.00  0.00    +0.000 C 
ENDROOT
BRANCH   2  13
ATOM     13  C   UNL     1       1.256   9.173  19.966  0.00  0.00    +0.000 A 
ATOM     14  C   UNL     1       1.538   9.503  18.628  0.00  0.00    +0.000 A 
ATOM     15  C   UNL     1       1.410  10.799  18.150  0.00  0.00    +0.000 A 
ATOM     16  C   UNL     1       0.813  11.756  18.950  0.00  0.00    +0.000 A 
ATOM     17  C   UNL     1       0.340  11.424  20.234  0.00  0.00    +0.000 A 
ATOM     18  C   UNL     1       0.612  10.141  20.766  0.00  0.00    +0.000 A 
ATOM     19 CL   UNL     1       0.160   9.804  22.404  0.00  0.00    +0.000 Cl
BRANCH  17  20
ATOM     20  C   UNL     1      -0.512  12.439  20.959  0.00  0.00    +0.000 C 
ATOM     21  F   UNL     1      -1.740  11.943  21.301  0.00  0.00    +0.000 F 
ATOM     22  F   UNL     1       0.041  12.842  22.136  0.00  0.00    +0.000 F 
ATOM     23  F   UNL     1      -0.769  13.560  20.236  0.00  0.00    +0.000 F 
ENDBRANCH  17  20
ENDBRANCH   2  13
BRANCH  11  24
ATOM     24  N   UNL     1       5.558   4.383  16.381  0.00  0.00    +0.000 N 
ATOM     25  C   UNL     1       6.876   4.584  16.669  0.00  0.00    +0.000 A 
ATOM     26  N   UNL     1       7.562   4.850  15.577  0.00  0.00    +0.000 NA
ATOM     27  C   UNL     1       6.602   4.822  14.614  0.00  0.00    +0.000 A 
ATOM     28  N   UNL     1       5.371   4.568  15.046  0.00  0.00    +0.000 NA
ENDBRANCH  11  24
TORSDOF 3
ENDMDL
MODEL 7
REMARK VINA RESULT:      -7.0      2.089      3.643
REMARK  Name = 
REMARK  3 active torsions:
REMARK  status: ('A' for Active; 'I' for Inactive)
REMARK    1  A    between atoms: C_2  and  C_3
REMARK    2  A    between atoms: C_7  and  C_8
REMARK    3  A    between atoms: C_22  and  N_23
REMARK                            x       y       z     vdW  Elec       q    Type
REMARK                         _______ _______ _______ _____ _____    ______ ____
ROOT
ATOM      1  O   UNL     1       0.342  10.266  18.106  0.00  0.00    +0.000 OA
ATOM      2  C   UNL     1       0.663   9.661  19.126  0.00  0.00    +0.000 C 
ATOM      3  N   UNL     1       1.581   8.591  19.082  0.00  0.00    +0.000 N 
ATOM      4  C   UNL     1       1.975   7.796  20.230  0.00  0.00    +0.000 C 
ATOM      5  C   UNL     1       2.273   6.360  19.888  0.00  0.00    +0.000 C 
ATOM      6  C   UNL     1       3.226   6.222  18.745  0.00  0.00    +0.000 A 
ATOM      7  C   UNL     1       3.328   7.252  17.812  0.00  0.00    +0.000 A 
ATOM      8  N   UNL     1       4.210   7.208  16.792  0.00  0.00    +0.000 NA
ATOM      9  C   UNL     1       4.978   6.113  16.702  0.00  0.00    +0.000 A 
ATOM     10  N   UNL     1       4.941   5.055  17.522  0.00  0.00    +0.000 NA
ATOM     11  C   UNL     1       4.042   5.104  18.535  0.00  0.00    +0.000 A 
ATOM     12  C   UNL     1       2.477   8.516  17.919  0.00  0.00    +0.000 C 
ENDROOT
BRANCH   2  13
ATOM     13  C   UNL     1       0.128  10.137  20.452  0.00  0.00    +0.000 A 
ATOM     14  C   UNL     1      -0.032   9.182  21.473  0.00  0.00    +0.000 A 
ATOM     15  C   UNL     1      -0.646   9.493  22.678  0.00  0.00    +0.000 A 
ATOM     16  C   UNL     1      -0.939  10.814  22.963  0.00  0.00    +0.000 A 
ATOM     17  C   UNL     1      -0.621  11.833  22.045  0.00  0.00    +0.000 A 
ATOM     18  C   UNL     1      -0.137  11.488  20.761  0.00  0.00    +0.000 A 
ATOM     19 CL   UNL     1       0.099  12.745  19.592  0.00  0.00    +0.000 Cl
BRANCH  17  20
ATOM     20  C   UNL     1      -0.743  13.266  22.509  0.00  0.00    +0.000 C 
ATOM     21  F   UNL     1      -1.684  13.965  21.804  0.00  0.00    +0.000 F 
ATOM     22  F   UNL     1      -1.136  13.365  23.808  0.00  0.00    +0.000 F 
ATOM     23  F   UNL     1       0.402  13.984  22.384  0.00  0.00    +0.000 F 
ENDBRANCH  17  20
ENDBRANCH   2  13
BRANCH  11  24
ATOM     24  N   UNL     1       3.974   3.945  19.371  0.00  0.00    +0.000 N 
ATOM     25  C   UNL     1       2.887   3.484  20.056  0.00  0.00    +0.000 A 
ATOM     26  N   UNL     1       3.165   2.358  20.679  0.00  0.00    +0.000 NA
ATOM     27  C   UNL     1       4.472   2.162  20.361  0.00  0.00    +0.000 A 
ATOM     28  N   UNL     1       5.017   3.100  19.593  0.00  0.00    +0.000 NA
ENDBRANCH  11  24
TORSDOF 3
ENDMDL
MODEL 8
REMARK VINA RESULT:      -6.9      4.655      8.117
REMARK  Name = 
REMARK  3 active torsions:
REMARK  status: ('A' for Active; 'I' for Inactive)
REMARK    1  A    between atoms: C_2  and  C_3
REMARK    2  A    between atoms: C_7  and  C_8
REMARK    3  A    between atoms: C_22  and  N_23
REMARK                            x       y       z     vdW  Elec       q    Type
REMARK                         _______ _______ _______ _____ _____    ______ ____
ROOT
ATOM      1  O   UNL     1       2.720   4.441  20.527  0.00  0.00    +0.000 OA
ATOM      2  C   UNL     1       2.853   5.261  19.623  0.00  0.00    +0.000 C 
ATOM      3  N   UNL     1       2.333   6.568  19.740  0.00  0.00    +0.000 N 
ATOM      4  C   UNL     1       2.405   7.579  18.702  0.00  0.00    +0.000 C 
ATOM      5  C   UNL     1       1.217   8.505  18.687  0.00  0.00    +0.000 C 
ATOM      6  C   UNL     1       0.919   9.087  20.030  0.00  0.00    +0.000 A 
ATOM      7  C   UNL     1       1.325   8.405  21.176  0.00  0.00    +0.000 A 
ATOM      8  N   UNL     1       1.134   8.909  22.413  0.00  0.00    +0.000 NA
ATOM      9  C   UNL     1       0.515  10.095  22.496  0.00  0.00    +0.000 A 
ATOM     10  N   UNL     1       0.058  10.819  21.466  0.00  0.00    +0.000 NA
ATOM     11  C   UNL     1       0.243  10.296  20.229  0.00  0.00    +0.000 A 
ATOM     12  C   UNL     1       2.055   7.065  21.094  0.00  0.00    +0.000 C 
ENDROOT
BRANCH   2  13
ATOM     13  C   UNL     1       3.664   4.883  18.410  0.00  0.00    +0.000 A 
ATOM     14  C   UNL     1       2.968   4.441  17.270  0.00  0.00    +0.000 A 
ATOM     15  C   UNL     1       3.627   3.939  16.157  0.00  0.00    +0.000 A 
ATOM     16  C   UNL     1       5.004   4.047  16.084  0.00  0.00    +0.000 A 
ATOM     17  C   UNL     1       5.731   4.657  17.125  0.00  0.00    +0.000 A 
ATOM     18  C   UNL     1       5.065   5.026  18.317  0.00  0.00    +0.000 A 
ATOM     19 CL   UNL     1       6.001   5.630  19.644  0.00  0.00    +0.000 Cl
BRANCH  17  20
ATOM     20  C   UNL     1       7.192   4.961  16.884  0.00  0.00    +0.000 C 
ATOM     21  F   UNL     1       8.015   4.280  17.737  0.00  0.00    +0.000 F 
ATOM     22  F   UNL     1       7.603   4.599  15.638  0.00  0.00    +0.000 F 
ATOM     23  F   UNL     1       7.516   6.270  17.044  0.00  0.00    +0.000 F 
ENDBRANCH  17  20
ENDBRANCH   2  13
BRANCH  11  24
ATOM     24  N   UNL     1      -0.299  11.052  19.140  0.00  0.00    +0.000 N 
ATOM     25  C   UNL     1      -1.389  10.740  18.382  0.00  0.00    +0.000 A 
ATOM     26  N   UNL     1      -1.639  11.689  17.503  0.00  0.00    +0.000 NA
ATOM     27  C   UNL     1      -0.643  12.582  17.745  0.00  0.00    +0.000 A 
ATOM     28  N   UNL     1       0.208  12.239  18.707  0.00  0.00    +0.000 NA
ENDBRANCH  11  24
TORSDOF 3
ENDMDL
MODEL 9
REMARK VINA RESULT:      -6.8      5.170      8.567
REMARK  Name = 
REMARK  3 active torsions:
REMARK  status: ('A' for Active; 'I' for Inactive)
REMARK    1  A    between atoms: C_2  and  C_3
REMARK    2  A    between atoms: C_7  and  C_8
REMARK    3  A    between atoms: C_22  and  N_23
REMARK                            x       y       z     vdW  Elec       q    Type
REMARK                         _______ _______ _______ _____ _____    ______ ____
ROOT
ATOM      1  O   UNL     1      -0.966  10.895  18.059  0.00  0.00    +0.000 OA
ATOM      2  C   UNL     1      -0.009  11.068  18.810  0.00  0.00    +0.000 C 
ATOM      3  N   UNL     1       0.514  12.358  19.039  0.00  0.00    +0.000 N 
ATOM      4  C   UNL     1       1.668  12.643  19.871  0.00  0.00    +0.000 C 
ATOM      5  C   UNL     1       2.480  13.815  19.386  0.00  0.00    +0.000 C 
ATOM      6  C   UNL     1       1.648  15.029  19.130  0.00  0.00    +0.000 A 
ATOM      7  C   UNL     1       0.294  14.881  18.836  0.00  0.00    +0.000 A 
ATOM      8  N   UNL     1      -0.518  15.943  18.651  0.00  0.00    +0.000 NA
ATOM      9  C   UNL     1       0.041  17.157  18.745  0.00  0.00    +0.000 A 
ATOM     10  N   UNL     1       1.333  17.414  18.992  0.00  0.00    +0.000 NA
ATOM     11  C   UNL     1       2.142  16.339  19.162  0.00  0.00    +0.000 A 
ATOM     12  C   UNL     1      -0.361  13.504  18.752  0.00  0.00    +0.000 C 
ENDROOT
BRANCH   2  13
ATOM     13  C   UNL     1       0.549   9.887  19.562  0.00  0.00    +0.000 A 
ATOM     14  C   UNL     1       0.096   9.677  20.877  0.00  0.00    +0.000 A 
ATOM     15  C   UNL     1       0.651   8.705  21.697  0.00  0.00    +0.000 A 
ATOM     16  C   UNL     1       1.539   7.793  21.154  0.00  0.00    +0.000 A 
ATOM     17  C   UNL     1       1.878   7.849  19.789  0.00  0.00    +0.000 A 
ATOM     18  C   UNL     1       1.425   8.934  19.002  0.00  0.00    +0.000 A 
ATOM     19 CL   UNL     1       1.981   9.068  17.366  0.00  0.00    +0.000 Cl
BRANCH  17  20
ATOM     20  C   UNL     1       2.657   6.692  19.205  0.00  0.00    +0.000 C 
ATOM     21  F   UNL     1       1.958   6.028  18.235  0.00  0.00    +0.000 F 
ATOM     22  F   UNL     1       3.807   7.089  18.596  0.00  0.00    +0.000 F 
ATOM     23  F   UNL     1       2.995   5.742  20.114  0.00  0.00    +0.000 F 
ENDBRANCH  17  20
ENDBRANCH   2  13
BRANCH  11  24
ATOM     24  N   UNL     1       3.529  16.624  19.370  0.00  0.00    +0.000 N 
ATOM     25  C   UNL     1       4.182  16.715  20.564  0.00  0.00    +0.000 A 
ATOM     26  N   UNL     1       5.468  16.934  20.382  0.00  0.00    +0.000 NA
ATOM     27  C   UNL     1       5.567  16.992  19.028  0.00  0.00    +0.000 A 
ATOM     28  N   UNL     1       4.424  16.835  18.367  0.00  0.00    +0.000 NA
ENDBRANCH  11  24
TORSDOF 3
ENDMDL
