MODEL 1
REMARK VINA RESULT:      -6.0      0.000      0.000
REMARK  Name = 
REMARK  10 active torsions:
REMARK  status: ('A' for Active; 'I' for Inactive)
REMARK    1  A    between atoms: C_1  and  O_2
REMARK    2  A    between atoms: O_2  and  C_3
REMARK    3  A    between atoms: C_4  and  O_5
REMARK    4  A    between atoms: C_9  and  O_10
REMARK    5  A    between atoms: O_10  and  C_11
REMARK    6  A    between atoms: C_17  and  O_18
REMARK    7  A    between atoms: O_18  and  C_19
REMARK    8  A    between atoms: C_24  and  C_25
REMARK    9  A    between atoms: C_26  and  C_27
REMARK   10  A    between atoms: C_28  and  O_29
REMARK                            x       y       z     vdW  Elec       q    Type
REMARK                         _______ _______ _______ _____ _____    ______ ____
ROOT
ATOM      1  C   UNL     1      -1.203  11.157  20.185  0.00  0.00    +0.000 A 
ATOM      2  C   UNL     1      -2.139  11.609  19.258  0.00  0.00    +0.000 A 
ATOM      3  C   UNL     1      -3.014  12.632  19.553  0.00  0.00    +0.000 A 
ATOM      4  C   UNL     1      -3.065  13.199  20.838  0.00  0.00    +0.000 A 
ATOM      5  C   UNL     1      -2.129  12.760  21.829  0.00  0.00    +0.000 A 
ATOM      6  C   UNL     1      -1.225  11.697  21.491  0.00  0.00    +0.000 A 
ATOM      7  C   UNL     1      -2.042  13.482  23.133  0.00  0.00    +0.000 A 
ATOM      8  C   UNL     1      -3.176  13.587  24.000  0.00  0.00    +0.000 A 
ATOM      9  C   UNL     1      -3.196  14.570  25.019  0.00  0.00    +0.000 A 
ATOM     10  C   UNL     1      -2.095  15.385  25.167  0.00  0.00    +0.000 A 
ATOM     11  C   UNL     1      -0.949  15.193  24.435  0.00  0.00    +0.000 A 
ATOM     12  C   UNL     1      -0.872  14.232  23.441  0.00  0.00    +0.000 A 
ATOM     13  O   UNL     1       0.007  16.116  24.756  0.00  0.00    +0.000 OA
ATOM     14  C   UNL     1      -0.789  17.059  25.485  0.00  0.00    +0.000 C 
ATOM     15  O   UNL     1      -2.010  16.471  25.985  0.00  0.00    +0.000 OA
ATOM     16  C   UNL     1      -4.400  12.704  23.851  0.00  0.00    +0.000 C 
ATOM     17  C   UNL     1      -5.610  13.379  23.180  0.00  0.00    +0.000 C 
ATOM     18  C   UNL     1      -6.898  12.642  23.606  0.00  0.00    +0.000 C 
ATOM     19  C   UNL     1      -5.522  13.497  21.631  0.00  0.00    +0.000 C 
ATOM     20  C   UNL     1      -5.843  12.170  20.905  0.00  0.00    +0.000 C 
ATOM     21  C   UNL     1      -4.229  14.162  21.056  0.00  0.00    +0.000 C 
ENDROOT
BRANCH   1  23
ATOM     22  C   UNL     1       0.928  10.708  19.260  0.00  0.00    +0.000 C 
ATOM     23  O   UNL     1      -0.277  10.205  19.845  0.00  0.00    +0.000 OA
ENDBRANCH   1  23
BRANCH   2  24
ATOM     24  O   UNL     1      -2.324  11.016  18.041  0.00  0.00    +0.000 OA
ATOM     25  H   UNL     1      -2.795  11.665  17.495  0.00  0.00    +0.000 HD
ENDBRANCH   2  24
BRANCH   6  26
ATOM     26  O   UNL     1      -0.308  11.349  22.457  0.00  0.00    +0.000 OA
ATOM     27  C   UNL     1      -0.520  10.145  23.180  0.00  0.00    +0.000 C 
ENDBRANCH   6  26
BRANCH  12  28
ATOM     28  O   UNL     1       0.245  14.073  22.660  0.00  0.00    +0.000 OA
ATOM     29  C   UNL     1       0.447  15.086  21.665  0.00  0.00    +0.000 C 
ENDBRANCH  12  28
BRANCH  21  30
ATOM     30  O   UNL     1      -3.852  15.384  21.672  0.00  0.00    +0.000 OA
ATOM     31  H   UNL     1      -4.262  16.124  21.196  0.00  0.00    +0.000 HD
ENDBRANCH  21  30
TORSDOF 5
ENDMDL
MODEL 2
REMARK VINA RESULT:      -5.7      8.490     12.117
REMARK  Name = 
REMARK  10 active torsions:
REMARK  status: ('A' for Active; 'I' for Inactive)
REMARK    1  A    between atoms: C_1  and  O_2
REMARK    2  A    between atoms: O_2  and  C_3
REMARK    3  A    between atoms: C_4  and  O_5
REMARK    4  A    between atoms: C_9  and  O_10
REMARK    5  A    between atoms: O_10  and  C_11
REMARK    6  A    between atoms: C_17  and  O_18
REMARK    7  A    between atoms: O_18  and  C_19
REMARK    8  A    between atoms: C_24  and  C_25
REMARK    9  A    between atoms: C_26  and  C_27
REMARK   10  A    between atoms: C_28  and  O_29
REMARK                            x       y       z     vdW  Elec       q    Type
REMARK                         _______ _______ _______ _____ _____    ______ ____
ROOT
ATOM      1  C   UNL     1       5.065  14.925  21.122  0.00  0.00    +0.000 A 
ATOM      2  C   UNL     1       5.617  14.483  22.323  0.00  0.00    +0.000 A 
ATOM      3  C   UNL     1       6.980  14.374  22.495  0.00  0.00    +0.000 A 
ATOM      4  C   UNL     1       7.870  14.611  21.434  0.00  0.00    +0.000 A 
ATOM      5  C   UNL     1       7.349  15.057  20.177  0.00  0.00    +0.000 A 
ATOM      6  C   UNL     1       5.925  15.168  20.028  0.00  0.00    +0.000 A 
ATOM      7  C   UNL     1       8.288  15.495  19.103  0.00  0.00    +0.000 A 
ATOM      8  C   UNL     1       9.278  14.607  18.574  0.00  0.00    +0.000 A 
ATOM      9  C   UNL     1      10.383  15.128  17.856  0.00  0.00    +0.000 A 
ATOM     10  C   UNL     1      10.453  16.489  17.658  0.00  0.00    +0.000 A 
ATOM     11  C   UNL     1       9.435  17.330  18.035  0.00  0.00    +0.000 A 
ATOM     12  C   UNL     1       8.325  16.866  18.721  0.00  0.00    +0.000 A 
ATOM     13  O   UNL     1       9.726  18.631  17.734  0.00  0.00    +0.000 OA
ATOM     14  C   UNL     1      11.128  18.517  17.459  0.00  0.00    +0.000 C 
ATOM     15  O   UNL     1      11.512  17.165  17.130  0.00  0.00    +0.000 OA
ATOM     16  C   UNL     1       9.222  13.106  18.785  0.00  0.00    +0.000 C 
ATOM     17  C   UNL     1      10.180  12.565  19.861  0.00  0.00    +0.000 C 
ATOM     18  C   UNL     1      10.463  11.074  19.581  0.00  0.00    +0.000 C 
ATOM     19  C   UNL     1       9.708  12.777  21.329  0.00  0.00    +0.000 C 
ATOM     20  C   UNL     1       8.625  11.765  21.767  0.00  0.00    +0.000 C 
ATOM     21  C   UNL     1       9.319  14.237  21.732  0.00  0.00    +0.000 C 
ENDROOT
BRANCH   1  23
ATOM     22  C   UNL     1       3.252  16.429  21.340  0.00  0.00    +0.000 C 
ATOM     23  O   UNL     1       3.714  15.119  20.998  0.00  0.00    +0.000 OA
ENDBRANCH   1  23
BRANCH   2  24
ATOM     24  O   UNL     1       4.859  14.039  23.369  0.00  0.00    +0.000 OA
ATOM     25  H   UNL     1       5.438  14.058  24.147  0.00  0.00    +0.000 HD
ENDBRANCH   2  24
BRANCH   6  26
ATOM     26  O   UNL     1       5.475  15.654  18.821  0.00  0.00    +0.000 OA
ATOM     27  C   UNL     1       5.075  14.719  17.829  0.00  0.00    +0.000 C 
ENDBRANCH   6  26
BRANCH  12  28
ATOM     28  O   UNL     1       7.331  17.706  19.159  0.00  0.00    +0.000 OA
ATOM     29  C   UNL     1       7.640  18.456  20.342  0.00  0.00    +0.000 C 
ENDBRANCH  12  28
BRANCH  21  30
ATOM     30  O   UNL     1      10.255  15.237  21.359  0.00  0.00    +0.000 OA
ATOM     31  H   UNL     1      10.899  15.359  22.076  0.00  0.00    +0.000 HD
ENDBRANCH  21  30
TORSDOF 5
ENDMDL
MODEL 3
REMARK VINA RESULT:      -5.7      2.385      5.276
REMARK  Name = 
REMARK  10 active torsions:
REMARK  status: ('A' for Active; 'I' for Inactive)
REMARK    1  A    between atoms: C_1  and  O_2
REMARK    2  A    between atoms: O_2  and  C_3
REMARK    3  A    between atoms: C_4  and  O_5
REMARK    4  A    between atoms: C_9  and  O_10
REMARK    5  A    between atoms: O_10  and  C_11
REMARK    6  A    between atoms: C_17  and  O_18
REMARK    7  A    between atoms: O_18  and  C_19
REMARK    8  A    between atoms: C_24  and  C_25
REMARK    9  A    between atoms: C_26  and  C_27
REMARK   10  A    between atoms: C_28  and  O_29
REMARK                            x       y       z     vdW  Elec       q    Type
REMARK                         _______ _______ _______ _____ _____    ______ ____
ROOT
ATOM      1  C   UNL     1      -0.710  11.465  21.317  0.00  0.00    +0.000 A 
ATOM      2  C   UNL     1      -0.969  11.161  22.651  0.00  0.00    +0.000 A 
ATOM      3  C   UNL     1      -2.144  11.542  23.263  0.00  0.00    +0.000 A 
ATOM      4  C   UNL     1      -3.090  12.338  22.595  0.00  0.00    +0.000 A 
ATOM      5  C   UNL     1      -2.862  12.686  21.225  0.00  0.00    +0.000 A 
ATOM      6  C   UNL     1      -1.632  12.270  20.611  0.00  0.00    +0.000 A 
ATOM      7  C   UNL     1      -3.939  13.365  20.447  0.00  0.00    +0.000 A 
ATOM      8  C   UNL     1      -4.468  14.629  20.860  0.00  0.00    +0.000 A 
ATOM      9  C   UNL     1      -5.716  15.070  20.356  0.00  0.00    +0.000 A 
ATOM     10  C   UNL     1      -6.375  14.273  19.446  0.00  0.00    +0.000 A 
ATOM     11  C   UNL     1      -5.806  13.132  18.937  0.00  0.00    +0.000 A 
ATOM     12  C   UNL     1      -4.579  12.670  19.382  0.00  0.00    +0.000 A 
ATOM     13  O   UNL     1      -6.641  12.510  18.051  0.00  0.00    +0.000 OA
ATOM     14  C   UNL     1      -7.867  13.196  18.339  0.00  0.00    +0.000 C 
ATOM     15  O   UNL     1      -7.642  14.469  18.983  0.00  0.00    +0.000 OA
ATOM     16  C   UNL     1      -3.761  15.520  21.864  0.00  0.00    +0.000 C 
ATOM     17  C   UNL     1      -4.350  15.490  23.285  0.00  0.00    +0.000 C 
ATOM     18  C   UNL     1      -3.972  16.796  24.015  0.00  0.00    +0.000 C 
ATOM     19  C   UNL     1      -3.959  14.244  24.133  0.00  0.00    +0.000 C 
ATOM     20  C   UNL     1      -2.529  14.334  24.713  0.00  0.00    +0.000 C 
ATOM     21  C   UNL     1      -4.223  12.848  23.482  0.00  0.00    +0.000 C 
ENDROOT
BRANCH   1  23
ATOM     22  C   UNL     1       0.297   9.703  20.102  0.00  0.00    +0.000 C 
ATOM     23  O   UNL     1       0.420  10.999  20.695  0.00  0.00    +0.000 OA
ENDBRANCH   1  23
BRANCH   2  24
ATOM     24  O   UNL     1      -0.054  10.560  23.467  0.00  0.00    +0.000 OA
ATOM     25  H   UNL     1       0.355  11.273  23.984  0.00  0.00    +0.000 HD
ENDBRANCH   2  24
BRANCH   6  26
ATOM     26  O   UNL     1      -1.483  12.579  19.277  0.00  0.00    +0.000 OA
ATOM     27  C   UNL     1      -0.588  13.624  18.927  0.00  0.00    +0.000 C 
ENDBRANCH   6  26
BRANCH  12  28
ATOM     28  O   UNL     1      -4.028  11.497  18.928  0.00  0.00    +0.000 OA
ATOM     29  C   UNL     1      -3.852  11.414  17.506  0.00  0.00    +0.000 C 
ENDBRANCH  12  28
BRANCH  21  30
ATOM     30  O   UNL     1      -5.513  12.680  22.912  0.00  0.00    +0.000 OA
ATOM     31  H   UNL     1      -5.954  13.543  22.855  0.00  0.00    +0.000 HD
ENDBRANCH  21  30
TORSDOF 5
ENDMDL
MODEL 4
REMARK VINA RESULT:      -5.7      2.488      5.107
REMARK  Name = 
REMARK  10 active torsions:
REMARK  status: ('A' for Active; 'I' for Inactive)
REMARK    1  A    between atoms: C_1  and  O_2
REMARK    2  A    between atoms: O_2  and  C_3
REMARK    3  A    between atoms: C_4  and  O_5
REMARK    4  A    between atoms: C_9  and  O_10
REMARK    5  A    between atoms: O_10  and  C_11
REMARK    6  A    between atoms: C_17  and  O_18
REMARK    7  A    between atoms: O_18  and  C_19
REMARK    8  A    between atoms: C_24  and  C_25
REMARK    9  A    between atoms: C_26  and  C_27
REMARK   10  A    between atoms: C_28  and  O_29
REMARK                            x       y       z     vdW  Elec       q    Type
REMARK                         _______ _______ _______ _____ _____    ______ ____
ROOT
ATOM      1  C   UNL     1       2.513  14.504  19.826  0.00  0.00    +0.000 A 
ATOM      2  C   UNL     1       2.267  13.931  18.580  0.00  0.00    +0.000 A 
ATOM      3  C   UNL     1       1.246  13.025  18.390  0.00  0.00    +0.000 A 
ATOM      4  C   UNL     1       0.470  12.565  19.468  0.00  0.00    +0.000 A 
ATOM      5  C   UNL     1       0.692  13.117  20.770  0.00  0.00    +0.000 A 
ATOM      6  C   UNL     1       1.758  14.064  20.937  0.00  0.00    +0.000 A 
ATOM      7  C   UNL     1      -0.245  12.784  21.883  0.00  0.00    +0.000 A 
ATOM      8  C   UNL     1      -0.449  11.431  22.302  0.00  0.00    +0.000 A 
ATOM      9  C   UNL     1      -1.591  11.094  23.069  0.00  0.00    +0.000 A 
ATOM     10  C   UNL     1      -2.465  12.100  23.421  0.00  0.00    +0.000 A 
ATOM     11  C   UNL     1      -2.199  13.419  23.148  0.00  0.00    +0.000 A 
ATOM     12  C   UNL     1      -1.086  13.801  22.419  0.00  0.00    +0.000 A 
ATOM     13  O   UNL     1      -3.202  14.232  23.595  0.00  0.00    +0.000 OA
ATOM     14  C   UNL     1      -4.222  13.257  23.848  0.00  0.00    +0.000 C 
ATOM     15  O   UNL     1      -3.678  11.930  24.018  0.00  0.00    +0.000 OA
ATOM     16  C   UNL     1       0.497  10.308  21.920  0.00  0.00    +0.000 C 
ATOM     17  C   UNL     1      -0.001   9.397  20.785  0.00  0.00    +0.000 C 
ATOM     18  C   UNL     1       0.705   8.028  20.891  0.00  0.00    +0.000 C 
ATOM     19  C   UNL     1       0.144   9.989  19.353  0.00  0.00    +0.000 C 
ATOM     20  C   UNL     1       1.588   9.901  18.808  0.00  0.00    +0.000 C 
ATOM     21  C   UNL     1      -0.466  11.410  19.122  0.00  0.00    +0.000 C 
ENDROOT
BRANCH   1  23
ATOM     22  C   UNL     1       4.788  14.992  20.255  0.00  0.00    +0.000 C 
ATOM     23  O   UNL     1       3.470  15.474  19.979  0.00  0.00    +0.000 OA
ENDBRANCH   1  23
BRANCH   2  24
ATOM     24  O   UNL     1       3.067  14.145  17.494  0.00  0.00    +0.000 OA
ATOM     25  H   UNL     1       2.566  14.730  16.903  0.00  0.00    +0.000 HD
ENDBRANCH   2  24
BRANCH   6  26
ATOM     26  O   UNL     1       1.898  14.609  22.194  0.00  0.00    +0.000 OA
ATOM     27  C   UNL     1       1.960  16.023  22.310  0.00  0.00    +0.000 C 
ENDBRANCH   6  26
BRANCH  12  28
ATOM     28  O   UNL     1      -0.842  15.110  22.084  0.00  0.00    +0.000 OA
ATOM     29  C   UNL     1      -1.663  15.636  21.032  0.00  0.00    +0.000 C 
ENDBRANCH  12  28
BRANCH  21  30
ATOM     30  O   UNL     1      -1.791  11.585  19.603  0.00  0.00    +0.000 OA
ATOM     31  H   UNL     1      -1.783  12.207  20.348  0.00  0.00    +0.000 HD
ENDBRANCH  21  30
TORSDOF 5
ENDMDL
MODEL 5
REMARK VINA RESULT:      -5.6      2.605      3.795
REMARK  Name = 
REMARK  10 active torsions:
REMARK  status: ('A' for Active; 'I' for Inactive)
REMARK    1  A    between atoms: C_1  and  O_2
REMARK    2  A    between atoms: O_2  and  C_3
REMARK    3  A    between atoms: C_4  and  O_5
REMARK    4  A    between atoms: C_9  and  O_10
REMARK    5  A    between atoms: O_10  and  C_11
REMARK    6  A    between atoms: C_17  and  O_18
REMARK    7  A    between atoms: O_18  and  C_19
REMARK    8  A    between atoms: C_24  and  C_25
REMARK    9  A    between atoms: C_26  and  C_27
REMARK   10  A    between atoms: C_28  and  O_29
REMARK                            x       y       z     vdW  Elec       q    Type
REMARK                         _______ _______ _______ _____ _____    ______ ____
ROOT
ATOM      1  C   UNL     1       1.103   9.385  20.297  0.00  0.00    +0.000 A 
ATOM      2  C   UNL     1       1.072   9.295  18.907  0.00  0.00    +0.000 A 
ATOM      3  C   UNL     1       0.402  10.222  18.138  0.00  0.00    +0.000 A 
ATOM      4  C   UNL     1      -0.361  11.244  18.727  0.00  0.00    +0.000 A 
ATOM      5  C   UNL     1      -0.369  11.370  20.153  0.00  0.00    +0.000 A 
ATOM      6  C   UNL     1       0.344  10.395  20.929  0.00  0.00    +0.000 A 
ATOM      7  C   UNL     1      -1.014  12.559  20.785  0.00  0.00    +0.000 A 
ATOM      8  C   UNL     1      -2.400  12.848  20.579  0.00  0.00    +0.000 A 
ATOM      9  C   UNL     1      -2.899  14.145  20.853  0.00  0.00    +0.000 A 
ATOM     10  C   UNL     1      -2.029  15.092  21.348  0.00  0.00    +0.000 A 
ATOM     11  C   UNL     1      -0.734  14.780  21.685  0.00  0.00    +0.000 A 
ATOM     12  C   UNL     1      -0.206  13.521  21.455  0.00  0.00    +0.000 A 
ATOM     13  O   UNL     1      -0.065  15.874  22.157  0.00  0.00    +0.000 OA
ATOM     14  C   UNL     1      -0.968  16.913  21.755  0.00  0.00    +0.000 C 
ATOM     15  O   UNL     1      -2.303  16.415  21.519  0.00  0.00    +0.000 OA
ATOM     16  C   UNL     1      -3.374  11.822  20.030  0.00  0.00    +0.000 C 
ATOM     17  C   UNL     1      -3.736  12.001  18.545  0.00  0.00    +0.000 C 
ATOM     18  C   UNL     1      -5.099  11.330  18.275  0.00  0.00    +0.000 C 
ATOM     19  C   UNL     1      -2.659  11.498  17.540  0.00  0.00    +0.000 C 
ATOM     20  C   UNL     1      -2.662   9.962  17.370  0.00  0.00    +0.000 C 
ATOM     21  C   UNL     1      -1.208  12.045  17.743  0.00  0.00    +0.000 C 
ENDROOT
BRANCH   1  23
ATOM     22  C   UNL     1       1.291   7.204  21.194  0.00  0.00    +0.000 C 
ATOM     23  O   UNL     1       1.852   8.511  21.042  0.00  0.00    +0.000 OA
ENDBRANCH   1  23
BRANCH   2  24
ATOM     24  O   UNL     1       1.610   8.245  18.219  0.00  0.00    +0.000 OA
ATOM     25  H   UNL     1       2.570   8.389  18.217  0.00  0.00    +0.000 HD
ENDBRANCH   2  24
BRANCH   6  26
ATOM     26  O   UNL     1       0.354  10.591  22.292  0.00  0.00    +0.000 OA
ATOM     27  C   UNL     1      -0.594   9.884  23.079  0.00  0.00    +0.000 C 
ENDBRANCH   6  26
BRANCH  12  28
ATOM     28  O   UNL     1       1.104  13.215  21.729  0.00  0.00    +0.000 OA
ATOM     29  C   UNL     1       2.061  13.724  20.789  0.00  0.00    +0.000 C 
ENDBRANCH  12  28
BRANCH  21  30
ATOM     30  O   UNL     1      -1.111  13.451  17.918  0.00  0.00    +0.000 OA
ATOM     31  H   UNL     1      -0.710  13.847  17.127  0.00  0.00    +0.000 HD
ENDBRANCH  21  30
TORSDOF 5
ENDMDL
MODEL 6
REMARK VINA RESULT:      -5.6      1.938      6.629
REMARK  Name = 
REMARK  10 active torsions:
REMARK  status: ('A' for Active; 'I' for Inactive)
REMARK    1  A    between atoms: C_1  and  O_2
REMARK    2  A    between atoms: O_2  and  C_3
REMARK    3  A    between atoms: C_4  and  O_5
REMARK    4  A    between atoms: C_9  and  O_10
REMARK    5  A    between atoms: O_10  and  C_11
REMARK    6  A    between atoms: C_17  and  O_18
REMARK    7  A    between atoms: O_18  and  C_19
REMARK    8  A    between atoms: C_24  and  C_25
REMARK    9  A    between atoms: C_26  and  C_27
REMARK   10  A    between atoms: C_28  and  O_29
REMARK                            x       y       z     vdW  Elec       q    Type
REMARK                         _______ _______ _______ _____ _____    ______ ____
ROOT
ATOM      1  C   UNL     1      -0.699  14.338  23.014  0.00  0.00    +0.000 A 
ATOM      2  C   UNL     1       0.247  15.102  22.334  0.00  0.00    +0.000 A 
ATOM      3  C   UNL     1       0.421  14.992  20.972  0.00  0.00    +0.000 A 
ATOM      4  C   UNL     1      -0.280  14.032  20.222  0.00  0.00    +0.000 A 
ATOM      5  C   UNL     1      -1.255  13.215  20.879  0.00  0.00    +0.000 A 
ATOM      6  C   UNL     1      -1.421  13.357  22.298  0.00  0.00    +0.000 A 
ATOM      7  C   UNL     1      -2.141  12.329  20.068  0.00  0.00    +0.000 A 
ATOM      8  C   UNL     1      -1.599  11.307  19.226  0.00  0.00    +0.000 A 
ATOM      9  C   UNL     1      -2.393  10.745  18.196  0.00  0.00    +0.000 A 
ATOM     10  C   UNL     1      -3.693  11.182  18.058  0.00  0.00    +0.000 A 
ATOM     11  C   UNL     1      -4.263  12.054  18.953  0.00  0.00    +0.000 A 
ATOM     12  C   UNL     1      -3.534  12.615  19.987  0.00  0.00    +0.000 A 
ATOM     13  O   UNL     1      -5.556  12.339  18.615  0.00  0.00    +0.000 OA
ATOM     14  C   UNL     1      -5.584  11.829  17.276  0.00  0.00    +0.000 C 
ATOM     15  O   UNL     1      -4.537  10.864  17.037  0.00  0.00    +0.000 OA
ATOM     16  C   UNL     1      -0.170  10.815  19.358  0.00  0.00    +0.000 C 
ATOM     17  C   UNL     1       0.805  11.363  18.301  0.00  0.00    +0.000 C 
ATOM     18  C   UNL     1       1.999  10.393  18.166  0.00  0.00    +0.000 C 
ATOM     19  C   UNL     1       1.296  12.819  18.550  0.00  0.00    +0.000 C 
ATOM     20  C   UNL     1       2.397  12.908  19.631  0.00  0.00    +0.000 C 
ATOM     21  C   UNL     1       0.188  13.898  18.776  0.00  0.00    +0.000 C 
ENDROOT
BRANCH   1  23
ATOM     22  C   UNL     1      -1.884  15.541  24.670  0.00  0.00    +0.000 C 
ATOM     23  O   UNL     1      -0.927  14.526  24.352  0.00  0.00    +0.000 OA
ENDBRANCH   1  23
BRANCH   2  24
ATOM     24  O   UNL     1       1.125  15.933  22.970  0.00  0.00    +0.000 OA
ATOM     25  H   UNL     1       0.613  16.714  23.235  0.00  0.00    +0.000 HD
ENDBRANCH   2  24
BRANCH   6  26
ATOM     26  O   UNL     1      -2.409  12.590  22.875  0.00  0.00    +0.000 OA
ATOM     27  C   UNL     1      -2.054  11.316  23.391  0.00  0.00    +0.000 C 
ENDBRANCH   6  26
BRANCH  12  28
ATOM     28  O   UNL     1      -4.075  13.536  20.850  0.00  0.00    +0.000 OA
ATOM     29  C   UNL     1      -5.217  13.084  21.591  0.00  0.00    +0.000 C 
ENDBRANCH  12  28
BRANCH  21  30
ATOM     30  O   UNL     1      -0.873  13.883  17.832  0.00  0.00    +0.000 OA
ATOM     31  H   UNL     1      -1.715  13.752  18.297  0.00  0.00    +0.000 HD
ENDBRANCH  21  30
TORSDOF 5
ENDMDL
MODEL 7
REMARK VINA RESULT:      -5.6      2.698      5.352
REMARK  Name = 
REMARK  10 active torsions:
REMARK  status: ('A' for Active; 'I' for Inactive)
REMARK    1  A    between atoms: C_1  and  O_2
REMARK    2  A    between atoms: O_2  and  C_3
REMARK    3  A    between atoms: C_4  and  O_5
REMARK    4  A    between atoms: C_9  and  O_10
REMARK    5  A    between atoms: O_10  and  C_11
REMARK    6  A    between atoms: C_17  and  O_18
REMARK    7  A    between atoms: O_18  and  C_19
REMARK    8  A    between atoms: C_24  and  C_25
REMARK    9  A    between atoms: C_26  and  C_27
REMARK   10  A    between atoms: C_28  and  O_29
REMARK                            x       y       z     vdW  Elec       q    Type
REMARK                         _______ _______ _______ _____ _____    ______ ____
ROOT
ATOM      1  C   UNL     1      -3.381  11.089  17.844  0.00  0.00    +0.000 A 
ATOM      2  C   UNL     1      -2.066  11.047  18.304  0.00  0.00    +0.000 A 
ATOM      3  C   UNL     1      -1.689  11.675  19.471  0.00  0.00    +0.000 A 
ATOM      4  C   UNL     1      -2.592  12.468  20.197  0.00  0.00    +0.000 A 
ATOM      5  C   UNL     1      -3.952  12.551  19.758  0.00  0.00    +0.000 A 
ATOM      6  C   UNL     1      -4.320  11.881  18.543  0.00  0.00    +0.000 A 
ATOM      7  C   UNL     1      -4.966  13.229  20.619  0.00  0.00    +0.000 A 
ATOM      8  C   UNL     1      -4.822  14.603  20.994  0.00  0.00    +0.000 A 
ATOM      9  C   UNL     1      -5.555  15.116  22.092  0.00  0.00    +0.000 A 
ATOM     10  C   UNL     1      -6.423  14.273  22.752  0.00  0.00    +0.000 A 
ATOM     11  C   UNL     1      -6.674  12.999  22.307  0.00  0.00    +0.000 A 
ATOM     12  C   UNL     1      -5.997  12.459  21.227  0.00  0.00    +0.000 A 
ATOM     13  O   UNL     1      -7.568  12.356  23.117  0.00  0.00    +0.000 OA
ATOM     14  C   UNL     1      -7.559  13.236  24.248  0.00  0.00    +0.000 C 
ATOM     15  O   UNL     1      -7.083  14.556  23.910  0.00  0.00    +0.000 OA
ATOM     16  C   UNL     1      -3.869  15.546  20.284  0.00  0.00    +0.000 C 
ATOM     17  C   UNL     1      -2.556  15.829  21.034  0.00  0.00    +0.000 C 
ATOM     18  C   UNL     1      -1.979  17.176  20.550  0.00  0.00    +0.000 C 
ATOM     19  C   UNL     1      -1.488  14.700  20.942  0.00  0.00    +0.000 C 
ATOM     20  C   UNL     1      -0.732  14.694  19.594  0.00  0.00    +0.000 C 
ATOM     21  C   UNL     1      -1.959  13.262  21.336  0.00  0.00    +0.000 C 
ENDROOT
BRANCH   1  23
ATOM     22  C   UNL     1      -3.417  10.979  15.481  0.00  0.00    +0.000 C 
ATOM     23  O   UNL     1      -3.762  10.381  16.734  0.00  0.00    +0.000 OA
ENDBRANCH   1  23
BRANCH   2  24
ATOM     24  O   UNL     1      -1.050  10.472  17.594  0.00  0.00    +0.000 OA
ATOM     25  H   UNL     1      -1.380  10.370  16.687  0.00  0.00    +0.000 HD
ENDBRANCH   2  24
BRANCH   6  26
ATOM     26  O   UNL     1      -5.650  11.943  18.191  0.00  0.00    +0.000 OA
ATOM     27  C   UNL     1      -6.042  12.896  17.214  0.00  0.00    +0.000 C 
ENDBRANCH   6  26
BRANCH  12  28
ATOM     28  O   UNL     1      -6.193  11.165  20.812  0.00  0.00    +0.000 OA
ATOM     29  C   UNL     1      -7.542  10.835  20.450  0.00  0.00    +0.000 C 
ENDBRANCH  12  28
BRANCH  21  30
ATOM     30  O   UNL     1      -2.674  13.175  22.560  0.00  0.00    +0.000 OA
ATOM     31  H   UNL     1      -3.549  13.582  22.451  0.00  0.00    +0.000 HD
ENDBRANCH  21  30
TORSDOF 5
ENDMDL
MODEL 8
REMARK VINA RESULT:      -5.5      1.903      3.041
REMARK  Name = 
REMARK  10 active torsions:
REMARK  status: ('A' for Active; 'I' for Inactive)
REMARK    1  A    between atoms: C_1  and  O_2
REMARK    2  A    between atoms: O_2  and  C_3
REMARK    3  A    between atoms: C_4  and  O_5
REMARK    4  A    between atoms: C_9  and  O_10
REMARK    5  A    between atoms: O_10  and  C_11
REMARK    6  A    between atoms: C_17  and  O_18
REMARK    7  A    between atoms: O_18  and  C_19
REMARK    8  A    between atoms: C_24  and  C_25
REMARK    9  A    between atoms: C_26  and  C_27
REMARK   10  A    between atoms: C_28  and  O_29
REMARK                            x       y       z     vdW  Elec       q    Type
REMARK                         _______ _______ _______ _____ _____    ______ ____
ROOT
ATOM      1  C   UNL     1      -3.464  11.190  18.035  0.00  0.00    +0.000 A 
ATOM      2  C   UNL     1      -4.725  11.775  18.131  0.00  0.00    +0.000 A 
ATOM      3  C   UNL     1      -4.995  12.761  19.056  0.00  0.00    +0.000 A 
ATOM      4  C   UNL     1      -4.038  13.150  20.009  0.00  0.00    +0.000 A 
ATOM      5  C   UNL     1      -2.731  12.568  19.957  0.00  0.00    +0.000 A 
ATOM      6  C   UNL     1      -2.475  11.549  18.978  0.00  0.00    +0.000 A 
ATOM      7  C   UNL     1      -1.649  13.106  20.834  0.00  0.00    +0.000 A 
ATOM      8  C   UNL     1      -1.781  13.107  22.259  0.00  0.00    +0.000 A 
ATOM      9  C   UNL     1      -0.950  13.944  23.044  0.00  0.00    +0.000 A 
ATOM     10  C   UNL     1      -0.005  14.716  22.404  0.00  0.00    +0.000 A 
ATOM     11  C   UNL     1       0.224  14.610  21.054  0.00  0.00    +0.000 A 
ATOM     12  C   UNL     1      -0.548  13.791  20.248  0.00  0.00    +0.000 A 
ATOM     13  O   UNL     1       1.207  15.468  20.647  0.00  0.00    +0.000 OA
ATOM     14  C   UNL     1       1.295  16.314  21.801  0.00  0.00    +0.000 C 
ATOM     15  O   UNL     1       0.763  15.680  22.984  0.00  0.00    +0.000 OA
ATOM     16  C   UNL     1      -2.818  12.269  22.982  0.00  0.00    +0.000 C 
ATOM     17  C   UNL     1      -4.054  13.044  23.470  0.00  0.00    +0.000 C 
ATOM     18  C   UNL     1      -4.702  12.274  24.641  0.00  0.00    +0.000 C 
ATOM     19  C   UNL     1      -5.104  13.370  22.369  0.00  0.00    +0.000 C 
ATOM     20  C   UNL     1      -5.992  12.158  22.004  0.00  0.00    +0.000 C 
ATOM     21  C   UNL     1      -4.569  14.089  21.088  0.00  0.00    +0.000 C 
ENDROOT
BRANCH   1  23
ATOM     22  C   UNL     1      -2.764  10.843  15.803  0.00  0.00    +0.000 C 
ATOM     23  O   UNL     1      -3.183  10.280  17.049  0.00  0.00    +0.000 OA
ENDBRANCH   1  23
BRANCH   2  24
ATOM     24  O   UNL     1      -5.796  11.355  17.396  0.00  0.00    +0.000 OA
ATOM     25  H   UNL     1      -6.236  12.160  17.078  0.00  0.00    +0.000 HD
ENDBRANCH   2  24
BRANCH   6  26
ATOM     26  O   UNL     1      -1.188  11.060  18.931  0.00  0.00    +0.000 OA
ATOM     27  C   UNL     1      -0.849   9.981  19.789  0.00  0.00    +0.000 C 
ENDBRANCH   6  26
BRANCH  12  28
ATOM     28  O   UNL     1      -0.370  13.724  18.888  0.00  0.00    +0.000 OA
ATOM     29  C   UNL     1       0.942  13.332  18.460  0.00  0.00    +0.000 C 
ENDBRANCH  12  28
BRANCH  21  30
ATOM     30  O   UNL     1      -3.733  15.212  21.329  0.00  0.00    +0.000 OA
ATOM     31  H   UNL     1      -2.803  14.942  21.254  0.00  0.00    +0.000 HD
ENDBRANCH  21  30
TORSDOF 5
ENDMDL
MODEL 9
REMARK VINA RESULT:      -5.3      8.734     12.381
REMARK  Name = 
REMARK  10 active torsions:
REMARK  status: ('A' for Active; 'I' for Inactive)
REMARK    1  A    between atoms: C_1  and  O_2
REMARK    2  A    between atoms: O_2  and  C_3
REMARK    3  A    between atoms: C_4  and  O_5
REMARK    4  A    between atoms: C_9  and  O_10
REMARK    5  A    between atoms: O_10  and  C_11
REMARK    6  A    between atoms: C_17  and  O_18
REMARK    7  A    between atoms: O_18  and  C_19
REMARK    8  A    between atoms: C_24  and  C_25
REMARK    9  A    between atoms: C_26  and  C_27
REMARK   10  A    between atoms: C_28  and  O_29
REMARK                            x       y       z     vdW  Elec       q    Type
REMARK                         _______ _______ _______ _____ _____    ______ ____
ROOT
ATOM      1  C   UNL     1       5.901  17.106  20.038  0.00  0.00    +0.000 A 
ATOM      2  C   UNL     1       6.330  17.607  21.266  0.00  0.00    +0.000 A 
ATOM      3  C   UNL     1       7.468  17.132  21.882  0.00  0.00    +0.000 A 
ATOM      4  C   UNL     1       8.191  16.052  21.347  0.00  0.00    +0.000 A 
ATOM      5  C   UNL     1       7.781  15.496  20.092  0.00  0.00    +0.000 A 
ATOM      6  C   UNL     1       6.597  16.016  19.469  0.00  0.00    +0.000 A 
ATOM      7  C   UNL     1       8.645  14.482  19.418  0.00  0.00    +0.000 A 
ATOM      8  C   UNL     1       8.972  13.244  20.056  0.00  0.00    +0.000 A 
ATOM      9  C   UNL     1      10.071  12.479  19.592  0.00  0.00    +0.000 A 
ATOM     10  C   UNL     1      10.778  12.941  18.503  0.00  0.00    +0.000 A 
ATOM     11  C   UNL     1      10.380  14.050  17.798  0.00  0.00    +0.000 A 
ATOM     12  C   UNL     1       9.301  14.820  18.200  0.00  0.00    +0.000 A 
ATOM     13  O   UNL     1      11.230  14.313  16.761  0.00  0.00    +0.000 OA
ATOM     14  C   UNL     1      12.333  13.472  17.122  0.00  0.00    +0.000 C 
ATOM     15  O   UNL     1      11.942  12.417  18.027  0.00  0.00    +0.000 OA
ATOM     16  C   UNL     1       8.210  12.720  21.259  0.00  0.00    +0.000 C 
ATOM     17  C   UNL     1       8.920  12.911  22.611  0.00  0.00    +0.000 C 
ATOM     18  C   UNL     1       8.380  11.871  23.615  0.00  0.00    +0.000 C 
ATOM     19  C   UNL     1       8.838  14.349  23.200  0.00  0.00    +0.000 C 
ATOM     20  C   UNL     1       7.472  14.654  23.859  0.00  0.00    +0.000 C 
ATOM     21  C   UNL     1       9.288  15.514  22.260  0.00  0.00    +0.000 C 
ENDROOT
BRANCH   1  23
ATOM     22  C   UNL     1       3.547  17.171  19.821  0.00  0.00    +0.000 C 
ATOM     23  O   UNL     1       4.823  17.654  19.392  0.00  0.00    +0.000 OA
ENDBRANCH   1  23
BRANCH   2  24
ATOM     24  O   UNL     1       5.615  18.522  21.985  0.00  0.00    +0.000 OA
ATOM     25  H   UNL     1       6.248  18.943  22.589  0.00  0.00    +0.000 HD
ENDBRANCH   2  24
BRANCH   6  26
ATOM     26  O   UNL     1       6.276  15.489  18.238  0.00  0.00    +0.000 OA
ATOM     27  C   UNL     1       5.240  14.519  18.173  0.00  0.00    +0.000 C 
ENDBRANCH   6  26
BRANCH  12  28
ATOM     28  O   UNL     1       8.932  15.966  17.541  0.00  0.00    +0.000 OA
ATOM     29  C   UNL     1       9.786  17.098  17.755  0.00  0.00    +0.000 C 
ENDBRANCH  12  28
BRANCH  21  30
ATOM     30  O   UNL     1      10.531  15.314  21.603  0.00  0.00    +0.000 OA
ATOM     31  H   UNL     1      11.211  15.093  22.260  0.00  0.00    +0.000 HD
ENDBRANCH  21  30
TORSDOF 5
ENDMDL
