MODEL 1
REMARK VINA RESULT:      -8.3      0.000      0.000
REMARK  Name = 
REMARK  4 active torsions:
REMARK  status: ('A' for Active; 'I' for Inactive)
REMARK    1  A    between atoms: C_2  and  C_11
REMARK    2  A    between atoms: N_3  and  C_4
REMARK    3  A    between atoms: N_17  and  C_18
REMARK    4  A    between atoms: C_18  and  C_19
REMARK                            x       y       z     vdW  Elec       q    Type
REMARK                         _______ _______ _______ _____ _____    ______ ____
ROOT
ATOM      1  C   UNL     1       1.845   7.564  19.363  0.00  0.00    +0.000 A 
ATOM      2  C   UNL     1       1.009   7.218  20.418  0.00  0.00    +0.000 A 
ATOM      3  C   UNL     1       1.014   5.911  20.883  0.00  0.00    +0.000 A 
ATOM      4  C   UNL     1       1.858   4.944  20.305  0.00  0.00    +0.000 A 
ATOM      5  C   UNL     1       2.711   5.272  19.232  0.00  0.00    +0.000 A 
ATOM      6  C   UNL     1       2.671   6.601  18.757  0.00  0.00    +0.000 A 
ATOM      7  N   UNL     1       3.651   4.317  18.710  0.00  0.00    +0.000 N 
ATOM      8  C   UNL     1       3.843   3.050  19.260  0.00  0.00    +0.000 C 
ATOM      9  O   UNL     1       4.889   2.412  19.114  0.00  0.00    +0.000 OA
ATOM     10  C   UNL     1       2.635   2.381  19.826  0.00  0.00    +0.000 C 
ATOM     11  S   UNL     1       1.777   3.322  21.057  0.00  0.00    +0.000 S 
ATOM     12  O   UNL     1       2.644   3.405  22.360  0.00  0.00    +0.000 OA
ENDROOT
BRANCH   1  14
ATOM     13  O   UNL     1       2.582   9.282  17.960  0.00  0.00    +0.000 OA
ATOM     14  C   UNL     1       1.840   8.970  18.885  0.00  0.00    +0.000 C 
ATOM     15  N   UNL     1       1.016   9.807  19.606  0.00  0.00    +0.000 N 
ATOM     16  H   UNL     1       0.804   9.533  20.560  0.00  0.00    +0.000 HD
BRANCH  15  17
ATOM     17  C   UNL     1       0.807  11.172  19.305  0.00  0.00    +0.000 A 
ATOM     18  C   UNL     1       1.756  12.143  19.641  0.00  0.00    +0.000 A 
ATOM     19  C   UNL     1       1.543  13.483  19.304  0.00  0.00    +0.000 A 
ATOM     20  C   UNL     1       0.369  13.866  18.656  0.00  0.00    +0.000 A 
ATOM     21  C   UNL     1      -0.583  12.905  18.314  0.00  0.00    +0.000 A 
ATOM     22  C   UNL     1      -0.352  11.561  18.615  0.00  0.00    +0.000 A 
ATOM     23 CL   UNL     1      -1.562  10.400  18.186  0.00  0.00    +0.000 Cl
ENDBRANCH  15  17
ENDBRANCH   1  14
BRANCH   7  24
ATOM     24  C   UNL     1       4.538   4.647  17.584  0.00  0.00    +0.000 C 
BRANCH  24  25
ATOM     25  C   UNL     1       5.741   5.510  17.881  0.00  0.00    +0.000 A 
ATOM     26  C   UNL     1       6.683   5.210  18.875  0.00  0.00    +0.000 A 
ATOM     27  C   UNL     1       7.753   6.071  19.120  0.00  0.00    +0.000 A 
ATOM     28  C   UNL     1       7.902   7.221  18.358  0.00  0.00    +0.000 A 
ATOM     29  F   UNL     1       8.918   8.054  18.610  0.00  0.00    +0.000 F 
ATOM     30  C   UNL     1       7.009   7.522  17.338  0.00  0.00    +0.000 A 
ATOM     31  C   UNL     1       5.934   6.667  17.097  0.00  0.00    +0.000 A 
ENDBRANCH  24  25
ENDBRANCH   7  24
TORSDOF 4
ENDMDL
MODEL 2
REMARK VINA RESULT:      -8.0      1.111      1.229
REMARK  Name = 
REMARK  4 active torsions:
REMARK  status: ('A' for Active; 'I' for Inactive)
REMARK    1  A    between atoms: C_2  and  C_11
REMARK    2  A    between atoms: N_3  and  C_4
REMARK    3  A    between atoms: N_17  and  C_18
REMARK    4  A    between atoms: C_18  and  C_19
REMARK                            x       y       z     vdW  Elec       q    Type
REMARK                         _______ _______ _______ _____ _____    ______ ____
ROOT
ATOM      1  C   UNL     1       1.991   7.065  19.270  0.00  0.00    +0.000 A 
ATOM      2  C   UNL     1       1.301   6.846  20.456  0.00  0.00    +0.000 A 
ATOM      3  C   UNL     1       1.158   5.549  20.925  0.00  0.00    +0.000 A 
ATOM      4  C   UNL     1       1.710   4.463  20.219  0.00  0.00    +0.000 A 
ATOM      5  C   UNL     1       2.411   4.662  19.013  0.00  0.00    +0.000 A 
ATOM      6  C   UNL     1       2.522   5.988  18.540  0.00  0.00    +0.000 A 
ATOM      7  N   UNL     1       3.069   3.570  18.345  0.00  0.00    +0.000 N 
ATOM      8  C   UNL     1       3.129   2.278  18.865  0.00  0.00    +0.000 C 
ATOM      9  O   UNL     1       4.008   1.473  18.546  0.00  0.00    +0.000 OA
ATOM     10  C   UNL     1       1.937   1.815  19.635  0.00  0.00    +0.000 C 
ATOM     11  S   UNL     1       1.479   2.863  20.988  0.00  0.00    +0.000 S 
ATOM     12  O   UNL     1       2.557   2.768  22.121  0.00  0.00    +0.000 OA
ENDROOT
BRANCH   1  14
ATOM     13  O   UNL     1       2.957   8.690  17.895  0.00  0.00    +0.000 OA
ATOM     14  C   UNL     1       2.148   8.462  18.788  0.00  0.00    +0.000 C 
ATOM     15  N   UNL     1       1.384   9.383  19.471  0.00  0.00    +0.000 N 
ATOM     16  H   UNL     1       1.105   9.138  20.416  0.00  0.00    +0.000 HD
BRANCH  15  17
ATOM     17  C   UNL     1       1.327  10.760  19.158  0.00  0.00    +0.000 A 
ATOM     18  C   UNL     1       2.253  11.345  18.290  0.00  0.00    +0.000 A 
ATOM     19  C   UNL     1       2.157  12.703  17.968  0.00  0.00    +0.000 A 
ATOM     20  C   UNL     1       1.153  13.489  18.533  0.00  0.00    +0.000 A 
ATOM     21  C   UNL     1       0.223  12.914  19.399  0.00  0.00    +0.000 A 
ATOM     22  C   UNL     1       0.295  11.550  19.689  0.00  0.00    +0.000 A 
ATOM     23 CL   UNL     1      -0.871  10.875  20.776  0.00  0.00    +0.000 Cl
ENDBRANCH  15  17
ENDBRANCH   1  14
BRANCH   7  24
ATOM     24  C   UNL     1       3.794   3.767  17.080  0.00  0.00    +0.000 C 
BRANCH  24  25
ATOM     25  C   UNL     1       4.982   4.700  17.102  0.00  0.00    +0.000 A 
ATOM     26  C   UNL     1       6.081   4.534  17.957  0.00  0.00    +0.000 A 
ATOM     27  C   UNL     1       7.130   5.453  17.949  0.00  0.00    +0.000 A 
ATOM     28  C   UNL     1       7.098   6.528  17.070  0.00  0.00    +0.000 A 
ATOM     29  F   UNL     1       8.097   7.419  17.081  0.00  0.00    +0.000 F 
ATOM     30  C   UNL     1       6.044   6.693  16.183  0.00  0.00    +0.000 A 
ATOM     31  C   UNL     1       4.990   5.780  16.195  0.00  0.00    +0.000 A 
ENDBRANCH  24  25
ENDBRANCH   7  24
TORSDOF 4
ENDMDL
MODEL 3
REMARK VINA RESULT:      -7.8      1.235      1.259
REMARK  Name = 
REMARK  4 active torsions:
REMARK  status: ('A' for Active; 'I' for Inactive)
REMARK    1  A    between atoms: C_2  and  C_11
REMARK    2  A    between atoms: N_3  and  C_4
REMARK    3  A    between atoms: N_17  and  C_18
REMARK    4  A    between atoms: C_18  and  C_19
REMARK                            x       y       z     vdW  Elec       q    Type
REMARK                         _______ _______ _______ _____ _____    ______ ____
ROOT
ATOM      1  C   UNL     1       1.775   7.011  19.795  0.00  0.00    +0.000 A 
ATOM      2  C   UNL     1       1.031   6.207  20.651  0.00  0.00    +0.000 A 
ATOM      3  C   UNL     1       1.119   4.828  20.531  0.00  0.00    +0.000 A 
ATOM      4  C   UNL     1       1.957   4.242  19.562  0.00  0.00    +0.000 A 
ATOM      5  C   UNL     1       2.716   5.037  18.682  0.00  0.00    +0.000 A 
ATOM      6  C   UNL     1       2.592   6.439  18.804  0.00  0.00    +0.000 A 
ATOM      7  N   UNL     1       3.653   4.446  17.764  0.00  0.00    +0.000 N 
ATOM      8  C   UNL     1       3.933   3.081  17.729  0.00  0.00    +0.000 C 
ATOM      9  O   UNL     1       4.989   2.629  17.279  0.00  0.00    +0.000 OA
ATOM     10  C   UNL     1       2.795   2.161  18.024  0.00  0.00    +0.000 C 
ATOM     11  S   UNL     1       1.992   2.453  19.576  0.00  0.00    +0.000 S 
ATOM     12  O   UNL     1       2.947   2.047  20.751  0.00  0.00    +0.000 OA
ENDROOT
BRANCH   1  14
ATOM     13  O   UNL     1       1.773   8.971  21.068  0.00  0.00    +0.000 OA
ATOM     14  C   UNL     1       1.681   8.486  19.946  0.00  0.00    +0.000 C 
ATOM     15  N   UNL     1       1.428   9.157  18.770  0.00  0.00    +0.000 N 
ATOM     16  H   UNL     1       0.969   8.633  18.031  0.00  0.00    +0.000 HD
BRANCH  15  17
ATOM     17  C   UNL     1       1.349  10.564  18.656  0.00  0.00    +0.000 A 
ATOM     18  C   UNL     1       2.458  11.324  18.275  0.00  0.00    +0.000 A 
ATOM     19  C   UNL     1       2.348  12.712  18.137  0.00  0.00    +0.000 A 
ATOM     20  C   UNL     1       1.138  13.349  18.406  0.00  0.00    +0.000 A 
ATOM     21  C   UNL     1       0.025  12.600  18.785  0.00  0.00    +0.000 A 
ATOM     22  C   UNL     1       0.124  11.210  18.884  0.00  0.00    +0.000 A 
ATOM     23 CL   UNL     1      -1.276  10.316  19.368  0.00  0.00    +0.000 Cl
ENDBRANCH  15  17
ENDBRANCH   1  14
BRANCH   7  24
ATOM     24  C   UNL     1       4.443   5.268  16.835  0.00  0.00    +0.000 C 
BRANCH  24  25
ATOM     25  C   UNL     1       5.682   5.936  17.384  0.00  0.00    +0.000 A 
ATOM     26  C   UNL     1       6.511   5.353  18.353  0.00  0.00    +0.000 A 
ATOM     27  C   UNL     1       7.621   6.041  18.842  0.00  0.00    +0.000 A 
ATOM     28  C   UNL     1       7.924   7.302  18.347  0.00  0.00    +0.000 A 
ATOM     29  F   UNL     1       8.979   7.968  18.834  0.00  0.00    +0.000 F 
ATOM     30  C   UNL     1       7.146   7.886  17.357  0.00  0.00    +0.000 A 
ATOM     31  C   UNL     1       6.030   7.203  16.873  0.00  0.00    +0.000 A 
ENDBRANCH  24  25
ENDBRANCH   7  24
TORSDOF 4
ENDMDL
MODEL 4
REMARK VINA RESULT:      -7.7      3.789      8.306
REMARK  Name = 
REMARK  4 active torsions:
REMARK  status: ('A' for Active; 'I' for Inactive)
REMARK    1  A    between atoms: C_2  and  C_11
REMARK    2  A    between atoms: N_3  and  C_4
REMARK    3  A    between atoms: N_17  and  C_18
REMARK    4  A    between atoms: C_18  and  C_19
REMARK                            x       y       z     vdW  Elec       q    Type
REMARK                         _______ _______ _______ _____ _____    ______ ____
ROOT
ATOM      1  C   UNL     1       1.142   8.915  20.471  0.00  0.00    +0.000 A 
ATOM      2  C   UNL     1       0.774   8.589  21.771  0.00  0.00    +0.000 A 
ATOM      3  C   UNL     1       0.093   9.524  22.535  0.00  0.00    +0.000 A 
ATOM      4  C   UNL     1      -0.235  10.786  22.005  0.00  0.00    +0.000 A 
ATOM      5  C   UNL     1       0.131  11.140  20.691  0.00  0.00    +0.000 A 
ATOM      6  C   UNL     1       0.847  10.183  19.940  0.00  0.00    +0.000 A 
ATOM      7  N   UNL     1      -0.294  12.385  20.110  0.00  0.00    +0.000 N 
ATOM      8  C   UNL     1      -1.144  13.282  20.755  0.00  0.00    +0.000 C 
ATOM      9  O   UNL     1      -1.835  14.102  20.144  0.00  0.00    +0.000 OA
ATOM     10  C   UNL     1      -0.998  13.388  22.237  0.00  0.00    +0.000 C 
ATOM     11  S   UNL     1      -1.159  11.853  23.107  0.00  0.00    +0.000 S 
ATOM     12  O   UNL     1      -2.645  11.360  23.040  0.00  0.00    +0.000 OA
ENDROOT
BRANCH   1  14
ATOM     13  O   UNL     1       2.017   8.105  18.461  0.00  0.00    +0.000 OA
ATOM     14  C   UNL     1       1.859   7.898  19.659  0.00  0.00    +0.000 C 
ATOM     15  N   UNL     1       2.221   6.769  20.362  0.00  0.00    +0.000 N 
ATOM     16  H   UNL     1       1.678   6.551  21.192  0.00  0.00    +0.000 HD
BRANCH  15  17
ATOM     17  C   UNL     1       2.956   5.693  19.816  0.00  0.00    +0.000 A 
ATOM     18  C   UNL     1       4.261   5.870  19.347  0.00  0.00    +0.000 A 
ATOM     19  C   UNL     1       4.981   4.783  18.841  0.00  0.00    +0.000 A 
ATOM     20  C   UNL     1       4.394   3.520  18.777  0.00  0.00    +0.000 A 
ATOM     21  C   UNL     1       3.093   3.333  19.245  0.00  0.00    +0.000 A 
ATOM     22  C   UNL     1       2.388   4.409  19.786  0.00  0.00    +0.000 A 
ATOM     23 CL   UNL     1       0.773   4.139  20.347  0.00  0.00    +0.000 Cl
ENDBRANCH  15  17
ENDBRANCH   1  14
BRANCH   7  24
ATOM     24  C   UNL     1       0.092  12.767  18.743  0.00  0.00    +0.000 C 
BRANCH  24  25
ATOM     25  C   UNL     1       1.267  13.703  18.591  0.00  0.00    +0.000 A 
ATOM     26  C   UNL     1       1.169  15.096  18.721  0.00  0.00    +0.000 A 
ATOM     27  C   UNL     1       2.289  15.906  18.534  0.00  0.00    +0.000 A 
ATOM     28  C   UNL     1       3.517  15.327  18.241  0.00  0.00    +0.000 A 
ATOM     29  F   UNL     1       4.585  16.109  18.042  0.00  0.00    +0.000 F 
ATOM     30  C   UNL     1       3.653  13.949  18.149  0.00  0.00    +0.000 A 
ATOM     31  C   UNL     1       2.532  13.138  18.327  0.00  0.00    +0.000 A 
ENDBRANCH  24  25
ENDBRANCH   7  24
TORSDOF 4
ENDMDL
MODEL 5
REMARK VINA RESULT:      -7.7      3.813      8.355
REMARK  Name = 
REMARK  4 active torsions:
REMARK  status: ('A' for Active; 'I' for Inactive)
REMARK    1  A    between atoms: C_2  and  C_11
REMARK    2  A    between atoms: N_3  and  C_4
REMARK    3  A    between atoms: N_17  and  C_18
REMARK    4  A    between atoms: C_18  and  C_19
REMARK                            x       y       z     vdW  Elec       q    Type
REMARK                         _______ _______ _______ _____ _____    ______ ____
ROOT
ATOM      1  C   UNL     1       1.201   9.430  19.545  0.00  0.00    +0.000 A 
ATOM      2  C   UNL     1       0.856   8.884  20.776  0.00  0.00    +0.000 A 
ATOM      3  C   UNL     1       0.242   9.689  21.723  0.00  0.00    +0.000 A 
ATOM      4  C   UNL     1      -0.040  11.040  21.446  0.00  0.00    +0.000 A 
ATOM      5  C   UNL     1       0.304  11.616  20.207  0.00  0.00    +0.000 A 
ATOM      6  C   UNL     1       0.953  10.786  19.267  0.00  0.00    +0.000 A 
ATOM      7  N   UNL     1      -0.077  12.964  19.880  0.00  0.00    +0.000 N 
ATOM      8  C   UNL     1      -0.865  13.760  20.710  0.00  0.00    +0.000 C 
ATOM      9  O   UNL     1      -1.533  14.707  20.286  0.00  0.00    +0.000 OA
ATOM     10  C   UNL     1      -0.672  13.584  22.179  0.00  0.00    +0.000 C 
ATOM     11  S   UNL     1      -0.881  11.922  22.758  0.00  0.00    +0.000 S 
ATOM     12  O   UNL     1      -2.390  11.512  22.657  0.00  0.00    +0.000 OA
ENDROOT
BRANCH   1  14
ATOM     13  O   UNL     1       1.811   8.885  17.355  0.00  0.00    +0.000 OA
ATOM     14  C   UNL     1       1.846   8.552  18.535  0.00  0.00    +0.000 C 
ATOM     15  N   UNL     1       2.373   7.389  19.053  0.00  0.00    +0.000 N 
ATOM     16  H   UNL     1       1.975   7.052  19.924  0.00  0.00    +0.000 HD
BRANCH  15  17
ATOM     17  C   UNL     1       3.079   6.428  18.295  0.00  0.00    +0.000 A 
ATOM     18  C   UNL     1       4.129   6.798  17.450  0.00  0.00    +0.000 A 
ATOM     19  C   UNL     1       4.835   5.825  16.735  0.00  0.00    +0.000 A 
ATOM     20  C   UNL     1       4.479   4.481  16.839  0.00  0.00    +0.000 A 
ATOM     21  C   UNL     1       3.435   4.101  17.682  0.00  0.00    +0.000 A 
ATOM     22  C   UNL     1       2.755   5.068  18.426  0.00  0.00    +0.000 A 
ATOM     23 CL   UNL     1       1.458   4.558  19.452  0.00  0.00    +0.000 Cl
ENDBRANCH  15  17
ENDBRANCH   1  14
BRANCH   7  24
ATOM     24  C   UNL     1       0.287  13.575  18.593  0.00  0.00    +0.000 C 
BRANCH  24  25
ATOM     25  C   UNL     1       1.536  14.424  18.559  0.00  0.00    +0.000 A 
ATOM     26  C   UNL     1       1.539  15.806  18.793  0.00  0.00    +0.000 A 
ATOM     27  C   UNL     1       2.725  16.536  18.711  0.00  0.00    +0.000 A 
ATOM     28  C   UNL     1       3.917  15.885  18.420  0.00  0.00    +0.000 A 
ATOM     29  F   UNL     1       5.049  16.592  18.323  0.00  0.00    +0.000 F 
ATOM     30  C   UNL     1       3.951  14.511  18.226  0.00  0.00    +0.000 A 
ATOM     31  C   UNL     1       2.764  13.781  18.299  0.00  0.00    +0.000 A 
ENDBRANCH  24  25
ENDBRANCH   7  24
TORSDOF 4
ENDMDL
MODEL 6
REMARK VINA RESULT:      -7.6      3.958      8.554
REMARK  Name = 
REMARK  4 active torsions:
REMARK  status: ('A' for Active; 'I' for Inactive)
REMARK    1  A    between atoms: C_2  and  C_11
REMARK    2  A    between atoms: N_3  and  C_4
REMARK    3  A    between atoms: N_17  and  C_18
REMARK    4  A    between atoms: C_18  and  C_19
REMARK                            x       y       z     vdW  Elec       q    Type
REMARK                         _______ _______ _______ _____ _____    ______ ____
ROOT
ATOM      1  C   UNL     1       0.863   9.739  19.829  0.00  0.00    +0.000 A 
ATOM      2  C   UNL     1       0.536   9.251  21.089  0.00  0.00    +0.000 A 
ATOM      3  C   UNL     1      -0.065  10.099  22.006  0.00  0.00    +0.000 A 
ATOM      4  C   UNL     1      -0.352  11.436  21.671  0.00  0.00    +0.000 A 
ATOM      5  C   UNL     1      -0.026  11.953  20.402  0.00  0.00    +0.000 A 
ATOM      6  C   UNL     1       0.609  11.080  19.491  0.00  0.00    +0.000 A 
ATOM      7  N   UNL     1      -0.414  13.283  20.017  0.00  0.00    +0.000 N 
ATOM      8  C   UNL     1      -1.190  14.118  20.820  0.00  0.00    +0.000 C 
ATOM      9  O   UNL     1      -1.866  15.043  20.363  0.00  0.00    +0.000 OA
ATOM     10  C   UNL     1      -0.976  14.010  22.294  0.00  0.00    +0.000 C 
ATOM     11  S   UNL     1      -1.175  12.377  22.952  0.00  0.00    +0.000 S 
ATOM     12  O   UNL     1      -2.685  11.962  22.892  0.00  0.00    +0.000 OA
ENDROOT
BRANCH   1  14
ATOM     13  O   UNL     1       1.367   9.047  17.654  0.00  0.00    +0.000 OA
ATOM     14  C   UNL     1       1.494   8.815  18.851  0.00  0.00    +0.000 C 
ATOM     15  N   UNL     1       2.119   7.728  19.425  0.00  0.00    +0.000 N 
ATOM     16  H   UNL     1       1.794   7.445  20.344  0.00  0.00    +0.000 HD
BRANCH  15  17
ATOM     17  C   UNL     1       2.831   6.745  18.701  0.00  0.00    +0.000 A 
ATOM     18  C   UNL     1       3.742   7.098  17.702  0.00  0.00    +0.000 A 
ATOM     19  C   UNL     1       4.460   6.109  17.022  0.00  0.00    +0.000 A 
ATOM     20  C   UNL     1       4.252   4.763  17.317  0.00  0.00    +0.000 A 
ATOM     21  C   UNL     1       3.347   4.400  18.314  0.00  0.00    +0.000 A 
ATOM     22  C   UNL     1       2.659   5.389  19.021  0.00  0.00    +0.000 A 
ATOM     23 CL   UNL     1       1.536   4.899  20.243  0.00  0.00    +0.000 Cl
ENDBRANCH  15  17
ENDBRANCH   1  14
BRANCH   7  24
ATOM     24  C   UNL     1      -0.069  13.835  18.698  0.00  0.00    +0.000 C 
BRANCH  24  25
ATOM     25  C   UNL     1       1.219  14.615  18.590  0.00  0.00    +0.000 A 
ATOM     26  C   UNL     1       2.457  14.029  18.287  0.00  0.00    +0.000 A 
ATOM     27  C   UNL     1       3.615  14.804  18.236  0.00  0.00    +0.000 A 
ATOM     28  C   UNL     1       3.539  16.172  18.463  0.00  0.00    +0.000 A 
ATOM     29  F   UNL     1       4.657  16.909  18.434  0.00  0.00    +0.000 F 
ATOM     30  C   UNL     1       2.323  16.787  18.722  0.00  0.00    +0.000 A 
ATOM     31  C   UNL     1       1.164  16.012  18.782  0.00  0.00    +0.000 A 
ENDBRANCH  24  25
ENDBRANCH   7  24
TORSDOF 4
ENDMDL
MODEL 7
REMARK VINA RESULT:      -7.6      1.998      2.325
REMARK  Name = 
REMARK  4 active torsions:
REMARK  status: ('A' for Active; 'I' for Inactive)
REMARK    1  A    between atoms: C_2  and  C_11
REMARK    2  A    between atoms: N_3  and  C_4
REMARK    3  A    between atoms: N_17  and  C_18
REMARK    4  A    between atoms: C_18  and  C_19
REMARK                            x       y       z     vdW  Elec       q    Type
REMARK                         _______ _______ _______ _____ _____    ______ ____
ROOT
ATOM      1  C   UNL     1       1.706   7.384  20.158  0.00  0.00    +0.000 A 
ATOM      2  C   UNL     1       0.865   6.505  20.832  0.00  0.00    +0.000 A 
ATOM      3  C   UNL     1       1.149   5.148  20.809  0.00  0.00    +0.000 A 
ATOM      4  C   UNL     1       2.276   4.659  20.123  0.00  0.00    +0.000 A 
ATOM      5  C   UNL     1       3.140   5.530  19.431  0.00  0.00    +0.000 A 
ATOM      6  C   UNL     1       2.819   6.905  19.444  0.00  0.00    +0.000 A 
ATOM      7  N   UNL     1       4.350   5.049  18.820  0.00  0.00    +0.000 N 
ATOM      8  C   UNL     1       4.793   3.732  18.928  0.00  0.00    +0.000 C 
ATOM      9  O   UNL     1       5.977   3.413  18.792  0.00  0.00    +0.000 OA
ATOM     10  C   UNL     1       3.737   2.677  18.964  0.00  0.00    +0.000 C 
ATOM     11  S   UNL     1       2.523   2.890  20.238  0.00  0.00    +0.000 S 
ATOM     12  O   UNL     1       3.176   2.633  21.640  0.00  0.00    +0.000 OA
ENDROOT
BRANCH   1  14
ATOM     13  O   UNL     1       1.229   9.370  21.294  0.00  0.00    +0.000 OA
ATOM     14  C   UNL     1       1.398   8.836  20.203  0.00  0.00    +0.000 C 
ATOM     15  N   UNL     1       1.270   9.424  18.963  0.00  0.00    +0.000 N 
ATOM     16  H   UNL     1       1.019   8.815  18.190  0.00  0.00    +0.000 HD
BRANCH  15  17
ATOM     17  C   UNL     1       1.032  10.801  18.755  0.00  0.00    +0.000 A 
ATOM     18  C   UNL     1       2.087  11.703  18.592  0.00  0.00    +0.000 A 
ATOM     19  C   UNL     1       1.827  13.057  18.354  0.00  0.00    +0.000 A 
ATOM     20  C   UNL     1       0.513  13.521  18.305  0.00  0.00    +0.000 A 
ATOM     21  C   UNL     1      -0.547  12.628  18.464  0.00  0.00    +0.000 A 
ATOM     22  C   UNL     1      -0.288  11.270  18.662  0.00  0.00    +0.000 A 
ATOM     23 CL   UNL     1      -1.629  10.196  18.866  0.00  0.00    +0.000 Cl
ENDBRANCH  15  17
ENDBRANCH   1  14
BRANCH   7  24
ATOM     24  C   UNL     1       5.253   5.950  18.086  0.00  0.00    +0.000 C 
BRANCH  24  25
ATOM     25  C   UNL     1       5.759   5.479  16.743  0.00  0.00    +0.000 A 
ATOM     26  C   UNL     1       7.102   5.568  16.349  0.00  0.00    +0.000 A 
ATOM     27  C   UNL     1       7.496   5.145  15.079  0.00  0.00    +0.000 A 
ATOM     28  C   UNL     1       6.557   4.611  14.208  0.00  0.00    +0.000 A 
ATOM     29  F   UNL     1       6.936   4.226  12.983  0.00  0.00    +0.000 F 
ATOM     30  C   UNL     1       5.229   4.471  14.587  0.00  0.00    +0.000 A 
ATOM     31  C   UNL     1       4.831   4.901  15.853  0.00  0.00    +0.000 A 
ENDBRANCH  24  25
ENDBRANCH   7  24
TORSDOF 4
ENDMDL
MODEL 8
REMARK VINA RESULT:      -7.5      1.554      1.841
REMARK  Name = 
REMARK  4 active torsions:
REMARK  status: ('A' for Active; 'I' for Inactive)
REMARK    1  A    between atoms: C_2  and  C_11
REMARK    2  A    between atoms: N_3  and  C_4
REMARK    3  A    between atoms: N_17  and  C_18
REMARK    4  A    between atoms: C_18  and  C_19
REMARK                            x       y       z     vdW  Elec       q    Type
REMARK                         _______ _______ _______ _____ _____    ______ ____
ROOT
ATOM      1  C   UNL     1       1.872   7.183  19.129  0.00  0.00    +0.000 A 
ATOM      2  C   UNL     1       1.502   7.039  20.461  0.00  0.00    +0.000 A 
ATOM      3  C   UNL     1       1.444   5.768  21.012  0.00  0.00    +0.000 A 
ATOM      4  C   UNL     1       1.762   4.633  20.242  0.00  0.00    +0.000 A 
ATOM      5  C   UNL     1       2.135   4.755  18.888  0.00  0.00    +0.000 A 
ATOM      6  C   UNL     1       2.163   6.056  18.340  0.00  0.00    +0.000 A 
ATOM      7  N   UNL     1       2.565   3.612  18.128  0.00  0.00    +0.000 N 
ATOM      8  C   UNL     1       2.717   2.340  18.677  0.00  0.00    +0.000 C 
ATOM      9  O   UNL     1       3.458   1.485  18.184  0.00  0.00    +0.000 OA
ATOM     10  C   UNL     1       1.749   1.957  19.747  0.00  0.00    +0.000 C 
ATOM     11  S   UNL     1       1.686   3.075  21.120  0.00  0.00    +0.000 S 
ATOM     12  O   UNL     1       3.015   2.977  21.945  0.00  0.00    +0.000 OA
ENDROOT
BRANCH   1  14
ATOM     13  O   UNL     1       2.601   8.731  17.537  0.00  0.00    +0.000 OA
ATOM     14  C   UNL     1       1.943   8.552  18.556  0.00  0.00    +0.000 C 
ATOM     15  N   UNL     1       1.289   9.509  19.301  0.00  0.00    +0.000 N 
ATOM     16  H   UNL     1       1.162   9.315  20.290  0.00  0.00    +0.000 HD
BRANCH  15  17
ATOM     17  C   UNL     1       1.176  10.868  18.929  0.00  0.00    +0.000 A 
ATOM     18  C   UNL     1       2.308  11.659  18.717  0.00  0.00    +0.000 A 
ATOM     19  C   UNL     1       2.172  12.992  18.318  0.00  0.00    +0.000 A 
ATOM     20  C   UNL     1       0.905  13.550  18.155  0.00  0.00    +0.000 A 
ATOM     21  C   UNL     1      -0.232  12.768  18.361  0.00  0.00    +0.000 A 
ATOM     22  C   UNL     1      -0.096  11.426  18.722  0.00  0.00    +0.000 A 
ATOM     23 CL   UNL     1      -1.529  10.492  18.980  0.00  0.00    +0.000 Cl
ENDBRANCH  15  17
ENDBRANCH   1  14
BRANCH   7  24
ATOM     24  C   UNL     1       2.947   3.729  16.713  0.00  0.00    +0.000 C 
BRANCH  24  25
ATOM     25  C   UNL     1       4.383   4.088  16.411  0.00  0.00    +0.000 A 
ATOM     26  C   UNL     1       5.340   4.350  17.402  0.00  0.00    +0.000 A 
ATOM     27  C   UNL     1       6.641   4.710  17.052  0.00  0.00    +0.000 A 
ATOM     28  C   UNL     1       7.000   4.785  15.713  0.00  0.00    +0.000 A 
ATOM     29  F   UNL     1       8.244   5.151  15.382  0.00  0.00    +0.000 F 
ATOM     30  C   UNL     1       6.086   4.489  14.711  0.00  0.00    +0.000 A 
ATOM     31  C   UNL     1       4.782   4.137  15.059  0.00  0.00    +0.000 A 
ENDBRANCH  24  25
ENDBRANCH   7  24
TORSDOF 4
ENDMDL
MODEL 9
REMARK VINA RESULT:      -7.4      3.771      8.128
REMARK  Name = 
REMARK  4 active torsions:
REMARK  status: ('A' for Active; 'I' for Inactive)
REMARK    1  A    between atoms: C_2  and  C_11
REMARK    2  A    between atoms: N_3  and  C_4
REMARK    3  A    between atoms: N_17  and  C_18
REMARK    4  A    between atoms: C_18  and  C_19
REMARK                            x       y       z     vdW  Elec       q    Type
REMARK                         _______ _______ _______ _____ _____    ______ ____
ROOT
ATOM      1  C   UNL     1       1.783   8.624  19.352  0.00  0.00    +0.000 A 
ATOM      2  C   UNL     1       1.781   7.988  20.589  0.00  0.00    +0.000 A 
ATOM      3  C   UNL     1       1.137   8.593  21.657  0.00  0.00    +0.000 A 
ATOM      4  C   UNL     1       0.483   9.830  21.499  0.00  0.00    +0.000 A 
ATOM      5  C   UNL     1       0.477  10.494  20.256  0.00  0.00    +0.000 A 
ATOM      6  C   UNL     1       1.161   9.874  19.188  0.00  0.00    +0.000 A 
ATOM      7  N   UNL     1      -0.279  11.702  20.062  0.00  0.00    +0.000 N 
ATOM      8  C   UNL     1      -1.105  12.256  21.040  0.00  0.00    +0.000 C 
ATOM      9  O   UNL     1      -2.047  13.004  20.769  0.00  0.00    +0.000 OA
ATOM     10  C   UNL     1      -0.649  12.112  22.454  0.00  0.00    +0.000 C 
ATOM     11  S   UNL     1      -0.340  10.444  22.965  0.00  0.00    +0.000 S 
ATOM     12  O   UNL     1      -1.694   9.660  23.061  0.00  0.00    +0.000 OA
ENDROOT
BRANCH   1  14
ATOM     13  O   UNL     1       2.359   8.448  17.094  0.00  0.00    +0.000 OA
ATOM     14  C   UNL     1       2.465   7.958  18.213  0.00  0.00    +0.000 C 
ATOM     15  N   UNL     1       3.110   6.787  18.548  0.00  0.00    +0.000 N 
ATOM     16  H   UNL     1       2.773   6.297  19.371  0.00  0.00    +0.000 HD
BRANCH  15  17
ATOM     17  C   UNL     1       3.869   6.009  17.646  0.00  0.00    +0.000 A 
ATOM     18  C   UNL     1       4.964   6.548  16.966  0.00  0.00    +0.000 A 
ATOM     19  C   UNL     1       5.722   5.750  16.102  0.00  0.00    +0.000 A 
ATOM     20  C   UNL     1       5.372   4.417  15.892  0.00  0.00    +0.000 A 
ATOM     21  C   UNL     1       4.282   3.868  16.567  0.00  0.00    +0.000 A 
ATOM     22  C   UNL     1       3.550   4.654  17.460  0.00  0.00    +0.000 A 
ATOM     23 CL   UNL     1       2.197   3.940  18.270  0.00  0.00    +0.000 Cl
ENDBRANCH  15  17
ENDBRANCH   1  14
BRANCH   7  24
ATOM     24  C   UNL     1      -0.284  12.407  18.771  0.00  0.00    +0.000 C 
BRANCH  24  25
ATOM     25  C   UNL     1       0.701  13.539  18.597  0.00  0.00    +0.000 A 
ATOM     26  C   UNL     1       2.042  13.349  18.232  0.00  0.00    +0.000 A 
ATOM     27  C   UNL     1       2.908  14.437  18.122  0.00  0.00    +0.000 A 
ATOM     28  C   UNL     1       2.433  15.721  18.352  0.00  0.00    +0.000 A 
ATOM     29  F   UNL     1       3.272  16.761  18.266  0.00  0.00    +0.000 F 
ATOM     30  C   UNL     1       1.102  15.944  18.673  0.00  0.00    +0.000 A 
ATOM     31  C   UNL     1       0.236  14.856  18.792  0.00  0.00    +0.000 A 
ENDBRANCH  24  25
ENDBRANCH   7  24
TORSDOF 4
ENDMDL
