MODEL 1
REMARK VINA RESULT:      -9.2      0.000      0.000
REMARK  Name = 
REMARK  11 active torsions:
REMARK  status: ('A' for Active; 'I' for Inactive)
REMARK    1  A    between atoms: C_1  and  C_2
REMARK    2  A    between atoms: C_2  and  O_3
REMARK    3  A    between atoms: O_3  and  C_4
REMARK    4  A    between atoms: C_7  and  C_8
REMARK    5  A    between atoms: C_8  and  C_9
REMARK    6  A    between atoms: C_9  and  O_11
REMARK    7  A    between atoms: C_13  and  C_14
REMARK    8  A    between atoms: C_23  and  C_25
REMARK    9  A    between atoms: C_25  and  C_26
REMARK   10  A    between atoms: C_26  and  C_27
REMARK   11  A    between atoms: C_26  and  C_28
REMARK                            x       y       z     vdW  Elec       q    Type
REMARK                         _______ _______ _______ _____ _____    ______ ____
ROOT
ATOM      1  C   UNL     1       3.902   3.933  17.396  0.00  0.00    +0.000 A 
ATOM      2  C   UNL     1       3.932   2.512  17.411  0.00  0.00    +0.000 A 
ATOM      3  C   UNL     1       2.958   1.727  18.038  0.00  0.00    +0.000 A 
ATOM      4  C   UNL     1       2.028   2.349  18.838  0.00  0.00    +0.000 A 
ATOM      5  F   UNL     1       1.219   1.612  19.609  0.00  0.00    +0.000 F 
ATOM      6  C   UNL     1       2.010   3.734  18.914  0.00  0.00    +0.000 A 
ATOM      7  C   UNL     1       2.781   4.532  18.026  0.00  0.00    +0.000 A 
ATOM      8  C   UNL     1       2.295   5.985  17.924  0.00  0.00    +0.000 C 
ATOM      9  N   UNL     1       2.174   6.623  19.249  0.00  0.00    +0.000 N 
ATOM     10  C   UNL     1       1.913   7.973  19.506  0.00  0.00    +0.000 C 
ATOM     11  O   UNL     1       1.721   8.346  20.675  0.00  0.00    +0.000 OA
ATOM     12  C   UNL     1       2.192   5.705  20.389  0.00  0.00    +0.000 C 
ATOM     13  C   UNL     1       1.387   4.426  20.105  0.00  0.00    +0.000 C 
ENDROOT
BRANCH   1  19
ATOM     14  C   UNL     1       5.660   4.672  15.621  0.00  0.00    +0.000 A 
ATOM     15  C   UNL     1       6.862   5.342  15.326  0.00  0.00    +0.000 A 
ATOM     16  C   UNL     1       7.592   5.993  16.308  0.00  0.00    +0.000 A 
ATOM     17  C   UNL     1       7.133   6.005  17.616  0.00  0.00    +0.000 A 
ATOM     18  C   UNL     1       5.928   5.342  17.921  0.00  0.00    +0.000 A 
ATOM     19  C   UNL     1       5.130   4.688  16.945  0.00  0.00    +0.000 A 
BRANCH  14  20
ATOM     20  O   UNL     1       4.988   3.982  14.632  0.00  0.00    +0.000 OA
BRANCH  20  22
ATOM     21  C   UNL     1       4.859   3.558  12.254  0.00  0.00    +0.000 C 
ATOM     22  C   UNL     1       5.753   3.609  13.478  0.00  0.00    +0.000 C 
ENDBRANCH  20  22
ENDBRANCH  14  20
BRANCH  17  23
ATOM     23  C   UNL     1       7.917   6.754  18.666  0.00  0.00    +0.000 C 
BRANCH  23  24
ATOM     24  C   UNL     1       8.179   8.197  18.298  0.00  0.00    +0.000 C 
ATOM     25  O   UNL     1       7.710   8.789  17.339  0.00  0.00    +0.000 OA
BRANCH  24  26
ATOM     26  O   UNL     1       9.016   8.809  19.172  0.00  0.00    +0.000 OA
ATOM     27  H   UNL     1       8.596   9.474  19.753  0.00  0.00    +0.000 HD
ENDBRANCH  24  26
ENDBRANCH  23  24
ENDBRANCH  17  23
ENDBRANCH   1  19
BRANCH  10  28
ATOM     28  C   UNL     1       1.830   8.973  18.368  0.00  0.00    +0.000 C 
BRANCH  28  29
ATOM     29  C   UNL     1       1.241  10.342  18.837  0.00  0.00    +0.000 C 
ATOM     30  C   UNL     1       2.007  11.543  18.256  0.00  0.00    +0.000 C 
BRANCH  29  31
ATOM     31  C   UNL     1      -0.247  10.530  18.536  0.00  0.00    +0.000 A 
ATOM     32  C   UNL     1      -0.961  11.572  19.153  0.00  0.00    +0.000 A 
ATOM     33  C   UNL     1      -2.312  11.789  18.865  0.00  0.00    +0.000 A 
ATOM     34  C   UNL     1      -2.969  10.975  17.944  0.00  0.00    +0.000 A 
ATOM     35  C   UNL     1      -2.269   9.955  17.304  0.00  0.00    +0.000 A 
ATOM     36  C   UNL     1      -0.918   9.737  17.593  0.00  0.00    +0.000 A 
ENDBRANCH  29  31
ENDBRANCH  28  29
ENDBRANCH  10  28
TORSDOF 9
ENDMDL
MODEL 2
REMARK VINA RESULT:      -8.8      1.322      3.540
REMARK  Name = 
REMARK  11 active torsions:
REMARK  status: ('A' for Active; 'I' for Inactive)
REMARK    1  A    between atoms: C_1  and  C_2
REMARK    2  A    between atoms: C_2  and  O_3
REMARK    3  A    between atoms: O_3  and  C_4
REMARK    4  A    between atoms: C_7  and  C_8
REMARK    5  A    between atoms: C_8  and  C_9
REMARK    6  A    between atoms: C_9  and  O_11
REMARK    7  A    between atoms: C_13  and  C_14
REMARK    8  A    between atoms: C_23  and  C_25
REMARK    9  A    between atoms: C_25  and  C_26
REMARK   10  A    between atoms: C_26  and  C_27
REMARK   11  A    between atoms: C_26  and  C_28
REMARK                            x       y       z     vdW  Elec       q    Type
REMARK                         _______ _______ _______ _____ _____    ______ ____
ROOT
ATOM      1  C   UNL     1       3.796   3.641  17.257  0.00  0.00    +0.000 A 
ATOM      2  C   UNL     1       3.821   2.224  17.366  0.00  0.00    +0.000 A 
ATOM      3  C   UNL     1       2.920   1.494  18.149  0.00  0.00    +0.000 A 
ATOM      4  C   UNL     1       2.088   2.180  19.003  0.00  0.00    +0.000 A 
ATOM      5  F   UNL     1       1.366   1.506  19.907  0.00  0.00    +0.000 F 
ATOM      6  C   UNL     1       2.084   3.567  18.986  0.00  0.00    +0.000 A 
ATOM      7  C   UNL     1       2.755   4.294  17.966  0.00  0.00    +0.000 A 
ATOM      8  C   UNL     1       2.267   5.743  17.819  0.00  0.00    +0.000 C 
ATOM      9  N   UNL     1       2.297   6.470  19.103  0.00  0.00    +0.000 N 
ATOM     10  C   UNL     1       2.072   7.837  19.295  0.00  0.00    +0.000 C 
ATOM     11  O   UNL     1       2.014   8.290  20.450  0.00  0.00    +0.000 OA
ATOM     12  C   UNL     1       2.438   5.630  20.294  0.00  0.00    +0.000 C 
ATOM     13  C   UNL     1       1.601   4.345  20.189  0.00  0.00    +0.000 C 
ENDROOT
BRANCH   1  19
ATOM     14  C   UNL     1       5.722   5.396  17.234  0.00  0.00    +0.000 A 
ATOM     15  C   UNL     1       6.744   6.050  16.521  0.00  0.00    +0.000 A 
ATOM     16  C   UNL     1       7.022   5.738  15.199  0.00  0.00    +0.000 A 
ATOM     17  C   UNL     1       6.293   4.751  14.554  0.00  0.00    +0.000 A 
ATOM     18  C   UNL     1       5.272   4.087  15.260  0.00  0.00    +0.000 A 
ATOM     19  C   UNL     1       4.970   4.349  16.623  0.00  0.00    +0.000 A 
BRANCH  14  20
ATOM     20  O   UNL     1       5.429   5.770  18.530  0.00  0.00    +0.000 OA
BRANCH  20  22
ATOM     21  C   UNL     1       7.644   5.725  19.502  0.00  0.00    +0.000 C 
ATOM     22  C   UNL     1       6.229   5.180  19.563  0.00  0.00    +0.000 C 
ENDBRANCH  20  22
ENDBRANCH  14  20
BRANCH  17  23
ATOM     23  C   UNL     1       6.637   4.394  13.128  0.00  0.00    +0.000 C 
BRANCH  23  24
ATOM     24  C   UNL     1       5.658   3.429  12.502  0.00  0.00    +0.000 C 
ATOM     25  O   UNL     1       4.479   3.651  12.270  0.00  0.00    +0.000 OA
BRANCH  24  26
ATOM     26  O   UNL     1       6.229   2.237  12.198  0.00  0.00    +0.000 OA
ATOM     27  H   UNL     1       6.122   1.541  12.876  0.00  0.00    +0.000 HD
ENDBRANCH  24  26
ENDBRANCH  23  24
ENDBRANCH  17  23
ENDBRANCH   1  19
BRANCH  10  28
ATOM     28  C   UNL     1       1.867   8.759  18.107  0.00  0.00    +0.000 C 
BRANCH  28  29
ATOM     29  C   UNL     1       1.437  10.194  18.552  0.00  0.00    +0.000 C 
ATOM     30  C   UNL     1       2.239  11.296  17.838  0.00  0.00    +0.000 C 
BRANCH  29  31
ATOM     31  C   UNL     1      -0.053  10.493  18.377  0.00  0.00    +0.000 A 
ATOM     32  C   UNL     1      -0.830   9.703  17.511  0.00  0.00    +0.000 A 
ATOM     33  C   UNL     1      -2.202   9.932  17.363  0.00  0.00    +0.000 A 
ATOM     34  C   UNL     1      -2.822  10.946  18.089  0.00  0.00    +0.000 A 
ATOM     35  C   UNL     1      -2.072  11.721  18.970  0.00  0.00    +0.000 A 
ATOM     36  C   UNL     1      -0.700  11.493  19.118  0.00  0.00    +0.000 A 
ENDBRANCH  29  31
ENDBRANCH  28  29
ENDBRANCH  10  28
TORSDOF 9
ENDMDL
MODEL 3
REMARK VINA RESULT:      -8.5      1.160      1.240
REMARK  Name = 
REMARK  11 active torsions:
REMARK  status: ('A' for Active; 'I' for Inactive)
REMARK    1  A    between atoms: C_1  and  C_2
REMARK    2  A    between atoms: C_2  and  O_3
REMARK    3  A    between atoms: O_3  and  C_4
REMARK    4  A    between atoms: C_7  and  C_8
REMARK    5  A    between atoms: C_8  and  C_9
REMARK    6  A    between atoms: C_9  and  O_11
REMARK    7  A    between atoms: C_13  and  C_14
REMARK    8  A    between atoms: C_23  and  C_25
REMARK    9  A    between atoms: C_25  and  C_26
REMARK   10  A    between atoms: C_26  and  C_27
REMARK   11  A    between atoms: C_26  and  C_28
REMARK                            x       y       z     vdW  Elec       q    Type
REMARK                         _______ _______ _______ _____ _____    ______ ____
ROOT
ATOM      1  C   UNL     1       3.688   3.984  17.352  0.00  0.00    +0.000 A 
ATOM      2  C   UNL     1       3.642   2.564  17.289  0.00  0.00    +0.000 A 
ATOM      3  C   UNL     1       2.602   1.801  17.830  0.00  0.00    +0.000 A 
ATOM      4  C   UNL     1       1.672   2.430  18.625  0.00  0.00    +0.000 A 
ATOM      5  F   UNL     1       0.791   1.699  19.319  0.00  0.00    +0.000 F 
ATOM      6  C   UNL     1       1.724   3.808  18.778  0.00  0.00    +0.000 A 
ATOM      7  C   UNL     1       2.574   4.608  17.969  0.00  0.00    +0.000 A 
ATOM      8  C   UNL     1       2.171   6.090  17.929  0.00  0.00    +0.000 C 
ATOM      9  N   UNL     1       2.026   6.661  19.281  0.00  0.00    +0.000 N 
ATOM     10  C   UNL     1       1.825   8.007  19.603  0.00  0.00    +0.000 C 
ATOM     11  O   UNL     1       1.603   8.327  20.783  0.00  0.00    +0.000 OA
ATOM     12  C   UNL     1       1.945   5.683  20.367  0.00  0.00    +0.000 C 
ATOM     13  C   UNL     1       1.087   4.468  19.980  0.00  0.00    +0.000 C 
ENDROOT
BRANCH   1  19
ATOM     14  C   UNL     1       5.531   4.764  15.685  0.00  0.00    +0.000 A 
ATOM     15  C   UNL     1       6.782   5.376  15.474  0.00  0.00    +0.000 A 
ATOM     16  C   UNL     1       7.530   5.882  16.526  0.00  0.00    +0.000 A 
ATOM     17  C   UNL     1       7.042   5.803  17.821  0.00  0.00    +0.000 A 
ATOM     18  C   UNL     1       5.790   5.197  18.042  0.00  0.00    +0.000 A 
ATOM     19  C   UNL     1       4.974   4.692  16.995  0.00  0.00    +0.000 A 
BRANCH  14  20
ATOM     20  O   UNL     1       4.838   4.216  14.624  0.00  0.00    +0.000 OA
BRANCH  20  22
ATOM     21  C   UNL     1       4.703   3.336  12.375  0.00  0.00    +0.000 C 
ATOM     22  C   UNL     1       5.576   4.019  13.411  0.00  0.00    +0.000 C 
ENDBRANCH  20  22
ENDBRANCH  14  20
BRANCH  17  23
ATOM     23  C   UNL     1       7.850   6.396  18.950  0.00  0.00    +0.000 C 
BRANCH  23  24
ATOM     24  C   UNL     1       8.523   5.356  19.814  0.00  0.00    +0.000 C 
ATOM     25  O   UNL     1       9.303   4.498  19.428  0.00  0.00    +0.000 OA
BRANCH  24  26
ATOM     26  O   UNL     1       8.175   5.463  21.120  0.00  0.00    +0.000 OA
ATOM     27  H   UNL     1       8.902   5.709  21.725  0.00  0.00    +0.000 HD
ENDBRANCH  24  26
ENDBRANCH  23  24
ENDBRANCH  17  23
ENDBRANCH   1  19
BRANCH  10  28
ATOM     28  C   UNL     1       1.846   9.071  18.520  0.00  0.00    +0.000 C 
BRANCH  28  29
ATOM     29  C   UNL     1       1.187  10.403  19.001  0.00  0.00    +0.000 C 
ATOM     30  C   UNL     1       1.960  11.646  18.526  0.00  0.00    +0.000 C 
BRANCH  29  31
ATOM     31  C   UNL     1      -0.280  10.568  18.599  0.00  0.00    +0.000 A 
ATOM     32  C   UNL     1      -1.056  11.588  19.179  0.00  0.00    +0.000 A 
ATOM     33  C   UNL     1      -2.388  11.783  18.800  0.00  0.00    +0.000 A 
ATOM     34  C   UNL     1      -2.962  10.970  17.825  0.00  0.00    +0.000 A 
ATOM     35  C   UNL     1      -2.200   9.972  17.222  0.00  0.00    +0.000 A 
ATOM     36  C   UNL     1      -0.868   9.776  17.601  0.00  0.00    +0.000 A 
ENDBRANCH  29  31
ENDBRANCH  28  29
ENDBRANCH  10  28
TORSDOF 9
ENDMDL
MODEL 4
REMARK VINA RESULT:      -8.3      1.028      2.026
REMARK  Name = 
REMARK  11 active torsions:
REMARK  status: ('A' for Active; 'I' for Inactive)
REMARK    1  A    between atoms: C_1  and  C_2
REMARK    2  A    between atoms: C_2  and  O_3
REMARK    3  A    between atoms: O_3  and  C_4
REMARK    4  A    between atoms: C_7  and  C_8
REMARK    5  A    between atoms: C_8  and  C_9
REMARK    6  A    between atoms: C_9  and  O_11
REMARK    7  A    between atoms: C_13  and  C_14
REMARK    8  A    between atoms: C_23  and  C_25
REMARK    9  A    between atoms: C_25  and  C_26
REMARK   10  A    between atoms: C_26  and  C_27
REMARK   11  A    between atoms: C_26  and  C_28
REMARK                            x       y       z     vdW  Elec       q    Type
REMARK                         _______ _______ _______ _____ _____    ______ ____
ROOT
ATOM      1  C   UNL     1       3.845   3.982  17.324  0.00  0.00    +0.000 A 
ATOM      2  C   UNL     1       3.809   2.561  17.366  0.00  0.00    +0.000 A 
ATOM      3  C   UNL     1       2.787   1.834  17.985  0.00  0.00    +0.000 A 
ATOM      4  C   UNL     1       1.870   2.513  18.752  0.00  0.00    +0.000 A 
ATOM      5  F   UNL     1       1.010   1.829  19.518  0.00  0.00    +0.000 F 
ATOM      6  C   UNL     1       1.914   3.899  18.803  0.00  0.00    +0.000 A 
ATOM      7  C   UNL     1       2.740   4.643  17.918  0.00  0.00    +0.000 A 
ATOM      8  C   UNL     1       2.324   6.115  17.779  0.00  0.00    +0.000 C 
ATOM      9  N   UNL     1       2.204   6.783  19.088  0.00  0.00    +0.000 N 
ATOM     10  C   UNL     1       2.000   8.148  19.315  0.00  0.00    +0.000 C 
ATOM     11  O   UNL     1       1.800   8.552  20.473  0.00  0.00    +0.000 OA
ATOM     12  C   UNL     1       2.154   5.887  20.245  0.00  0.00    +0.000 C 
ATOM     13  C   UNL     1       1.298   4.641  19.967  0.00  0.00    +0.000 C 
ENDROOT
BRANCH   1  19
ATOM     14  C   UNL     1       5.688   4.585  15.584  0.00  0.00    +0.000 A 
ATOM     15  C   UNL     1       6.925   5.196  15.305  0.00  0.00    +0.000 A 
ATOM     16  C   UNL     1       7.648   5.854  16.287  0.00  0.00    +0.000 A 
ATOM     17  C   UNL     1       7.148   5.933  17.578  0.00  0.00    +0.000 A 
ATOM     18  C   UNL     1       5.909   5.329  17.866  0.00  0.00    +0.000 A 
ATOM     19  C   UNL     1       5.117   4.671  16.888  0.00  0.00    +0.000 A 
BRANCH  14  20
ATOM     20  O   UNL     1       5.020   3.885  14.598  0.00  0.00    +0.000 OA
BRANCH  20  22
ATOM     21  C   UNL     1       4.822   3.532  12.214  0.00  0.00    +0.000 C 
ATOM     22  C   UNL     1       5.760   3.599  13.404  0.00  0.00    +0.000 C 
ENDBRANCH  20  22
ENDBRANCH  14  20
BRANCH  17  23
ATOM     23  C   UNL     1       7.928   6.690  18.625  0.00  0.00    +0.000 C 
BRANCH  23  24
ATOM     24  C   UNL     1       8.143   8.144  18.274  0.00  0.00    +0.000 C 
ATOM     25  O   UNL     1       7.624   8.742  17.344  0.00  0.00    +0.000 OA
BRANCH  24  26
ATOM     26  O   UNL     1       8.999   8.760  19.126  0.00  0.00    +0.000 OA
ATOM     27  H   UNL     1       8.984   9.738  19.095  0.00  0.00    +0.000 HD
ENDBRANCH  24  26
ENDBRANCH  23  24
ENDBRANCH  17  23
ENDBRANCH   1  19
BRANCH  10  28
ATOM     28  C   UNL     1       1.988   9.129  18.157  0.00  0.00    +0.000 C 
BRANCH  28  29
ATOM     29  C   UNL     1       0.916  10.248  18.354  0.00  0.00    +0.000 C 
ATOM     30  C   UNL     1      -0.237   9.804  19.272  0.00  0.00    +0.000 C 
BRANCH  29  31
ATOM     31  C   UNL     1       1.469  11.573  18.883  0.00  0.00    +0.000 A 
ATOM     32  C   UNL     1       1.132  12.006  20.177  0.00  0.00    +0.000 A 
ATOM     33  C   UNL     1       1.655  13.194  20.698  0.00  0.00    +0.000 A 
ATOM     34  C   UNL     1       2.535  13.961  19.938  0.00  0.00    +0.000 A 
ATOM     35  C   UNL     1       2.900  13.532  18.664  0.00  0.00    +0.000 A 
ATOM     36  C   UNL     1       2.376  12.345  18.142  0.00  0.00    +0.000 A 
ENDBRANCH  29  31
ENDBRANCH  28  29
ENDBRANCH  10  28
TORSDOF 9
ENDMDL
MODEL 5
REMARK VINA RESULT:      -8.1      1.669      3.986
REMARK  Name = 
REMARK  11 active torsions:
REMARK  status: ('A' for Active; 'I' for Inactive)
REMARK    1  A    between atoms: C_1  and  C_2
REMARK    2  A    between atoms: C_2  and  O_3
REMARK    3  A    between atoms: O_3  and  C_4
REMARK    4  A    between atoms: C_7  and  C_8
REMARK    5  A    between atoms: C_8  and  C_9
REMARK    6  A    between atoms: C_9  and  O_11
REMARK    7  A    between atoms: C_13  and  C_14
REMARK    8  A    between atoms: C_23  and  C_25
REMARK    9  A    between atoms: C_25  and  C_26
REMARK   10  A    between atoms: C_26  and  C_27
REMARK   11  A    between atoms: C_26  and  C_28
REMARK                            x       y       z     vdW  Elec       q    Type
REMARK                         _______ _______ _______ _____ _____    ______ ____
ROOT
ATOM      1  C   UNL     1       3.786   3.679  17.245  0.00  0.00    +0.000 A 
ATOM      2  C   UNL     1       3.784   2.267  17.418  0.00  0.00    +0.000 A 
ATOM      3  C   UNL     1       2.866   1.592  18.230  0.00  0.00    +0.000 A 
ATOM      4  C   UNL     1       2.045   2.332  19.049  0.00  0.00    +0.000 A 
ATOM      5  F   UNL     1       1.308   1.715  19.981  0.00  0.00    +0.000 F 
ATOM      6  C   UNL     1       2.069   3.717  18.968  0.00  0.00    +0.000 A 
ATOM      7  C   UNL     1       2.756   4.383  17.919  0.00  0.00    +0.000 A 
ATOM      8  C   UNL     1       2.297   5.833  17.704  0.00  0.00    +0.000 C 
ATOM      9  N   UNL     1       2.338   6.617  18.953  0.00  0.00    +0.000 N 
ATOM     10  C   UNL     1       2.139   7.996  19.081  0.00  0.00    +0.000 C 
ATOM     11  O   UNL     1       2.086   8.502  20.214  0.00  0.00    +0.000 OA
ATOM     12  C   UNL     1       2.459   5.831  20.181  0.00  0.00    +0.000 C 
ATOM     13  C   UNL     1       1.598   4.558  20.133  0.00  0.00    +0.000 C 
ENDROOT
BRANCH   1  19
ATOM     14  C   UNL     1       5.754   5.383  17.154  0.00  0.00    +0.000 A 
ATOM     15  C   UNL     1       6.791   5.985  16.415  0.00  0.00    +0.000 A 
ATOM     16  C   UNL     1       7.057   5.619  15.105  0.00  0.00    +0.000 A 
ATOM     17  C   UNL     1       6.302   4.628  14.497  0.00  0.00    +0.000 A 
ATOM     18  C   UNL     1       5.266   4.015  15.229  0.00  0.00    +0.000 A 
ATOM     19  C   UNL     1       4.975   4.334  16.582  0.00  0.00    +0.000 A 
BRANCH  14  20
ATOM     20  O   UNL     1       5.475   5.811  18.436  0.00  0.00    +0.000 OA
BRANCH  20  22
ATOM     21  C   UNL     1       7.670   5.729  19.449  0.00  0.00    +0.000 C 
ATOM     22  C   UNL     1       6.243   5.217  19.491  0.00  0.00    +0.000 C 
ENDBRANCH  20  22
ENDBRANCH  14  20
BRANCH  17  23
ATOM     23  C   UNL     1       6.633   4.211  13.085  0.00  0.00    +0.000 C 
BRANCH  23  24
ATOM     24  C   UNL     1       5.571   3.340  12.455  0.00  0.00    +0.000 C 
ATOM     25  O   UNL     1       4.427   3.680  12.192  0.00  0.00    +0.000 OA
BRANCH  24  26
ATOM     26  O   UNL     1       6.019   2.088  12.189  0.00  0.00    +0.000 OA
ATOM     27  H   UNL     1       6.925   1.896  12.503  0.00  0.00    +0.000 HD
ENDBRANCH  24  26
ENDBRANCH  23  24
ENDBRANCH  17  23
ENDBRANCH   1  19
BRANCH  10  28
ATOM     28  C   UNL     1       1.955   8.866  17.852  0.00  0.00    +0.000 C 
BRANCH  28  29
ATOM     29  C   UNL     1       0.892   9.987  18.086  0.00  0.00    +0.000 C 
ATOM     30  C   UNL     1      -0.241   9.536  19.024  0.00  0.00    +0.000 C 
BRANCH  29  31
ATOM     31  C   UNL     1       1.462  11.303  18.619  0.00  0.00    +0.000 A 
ATOM     32  C   UNL     1       1.073  11.774  19.885  0.00  0.00    +0.000 A 
ATOM     33  C   UNL     1       1.609  12.954  20.410  0.00  0.00    +0.000 A 
ATOM     34  C   UNL     1       2.554  13.675  19.684  0.00  0.00    +0.000 A 
ATOM     35  C   UNL     1       2.971  13.208  18.440  0.00  0.00    +0.000 A 
ATOM     36  C   UNL     1       2.434  12.028  17.913  0.00  0.00    +0.000 A 
ENDBRANCH  29  31
ENDBRANCH  28  29
ENDBRANCH  10  28
TORSDOF 9
ENDMDL
MODEL 6
REMARK VINA RESULT:      -8.0      1.884      3.976
REMARK  Name = 
REMARK  11 active torsions:
REMARK  status: ('A' for Active; 'I' for Inactive)
REMARK    1  A    between atoms: C_1  and  C_2
REMARK    2  A    between atoms: C_2  and  O_3
REMARK    3  A    between atoms: O_3  and  C_4
REMARK    4  A    between atoms: C_7  and  C_8
REMARK    5  A    between atoms: C_8  and  C_9
REMARK    6  A    between atoms: C_9  and  O_11
REMARK    7  A    between atoms: C_13  and  C_14
REMARK    8  A    between atoms: C_23  and  C_25
REMARK    9  A    between atoms: C_25  and  C_26
REMARK   10  A    between atoms: C_26  and  C_27
REMARK   11  A    between atoms: C_26  and  C_28
REMARK                            x       y       z     vdW  Elec       q    Type
REMARK                         _______ _______ _______ _____ _____    ______ ____
ROOT
ATOM      1  C   UNL     1       3.539   3.337  17.672  0.00  0.00    +0.000 A 
ATOM      2  C   UNL     1       3.487   1.958  18.013  0.00  0.00    +0.000 A 
ATOM      3  C   UNL     1       2.600   1.430  18.957  0.00  0.00    +0.000 A 
ATOM      4  C   UNL     1       1.871   2.302  19.733  0.00  0.00    +0.000 A 
ATOM      5  F   UNL     1       1.174   1.836  20.777  0.00  0.00    +0.000 F 
ATOM      6  C   UNL     1       1.950   3.665  19.486  0.00  0.00    +0.000 A 
ATOM      7  C   UNL     1       2.590   4.168  18.322  0.00  0.00    +0.000 A 
ATOM      8  C   UNL     1       2.182   5.605  17.966  0.00  0.00    +0.000 C 
ATOM      9  N   UNL     1       2.345   6.526  19.106  0.00  0.00    +0.000 N 
ATOM     10  C   UNL     1       2.215   7.918  19.082  0.00  0.00    +0.000 C 
ATOM     11  O   UNL     1       2.265   8.555  20.147  0.00  0.00    +0.000 OA
ATOM     12  C   UNL     1       2.516   5.882  20.410  0.00  0.00    +0.000 C 
ATOM     13  C   UNL     1       1.599   4.659  20.570  0.00  0.00    +0.000 C 
ENDROOT
BRANCH   1  19
ATOM     14  C   UNL     1       5.905   4.394  17.408  0.00  0.00    +0.000 A 
ATOM     15  C   UNL     1       6.898   4.924  16.562  0.00  0.00    +0.000 A 
ATOM     16  C   UNL     1       6.729   4.978  15.188  0.00  0.00    +0.000 A 
ATOM     17  C   UNL     1       5.564   4.490  14.615  0.00  0.00    +0.000 A 
ATOM     18  C   UNL     1       4.567   3.953  15.452  0.00  0.00    +0.000 A 
ATOM     19  C   UNL     1       4.707   3.848  16.861  0.00  0.00    +0.000 A 
BRANCH  14  20
ATOM     20  O   UNL     1       6.079   4.410  18.777  0.00  0.00    +0.000 OA
BRANCH  20  22
ATOM     21  C   UNL     1       7.974   5.614  19.675  0.00  0.00    +0.000 C 
ATOM     22  C   UNL     1       6.491   5.655  19.356  0.00  0.00    +0.000 C 
ENDBRANCH  20  22
ENDBRANCH  14  20
BRANCH  17  23
ATOM     23  C   UNL     1       5.414   4.517  13.113  0.00  0.00    +0.000 C 
BRANCH  23  24
ATOM     24  C   UNL     1       6.462   3.700  12.394  0.00  0.00    +0.000 C 
ATOM     25  O   UNL     1       7.482   4.133  11.880  0.00  0.00    +0.000 OA
BRANCH  24  26
ATOM     26  O   UNL     1       6.161   2.378  12.371  0.00  0.00    +0.000 OA
ATOM     27  H   UNL     1       6.407   1.910  11.548  0.00  0.00    +0.000 HD
ENDBRANCH  24  26
ENDBRANCH  23  24
ENDBRANCH  17  23
ENDBRANCH   1  19
BRANCH  10  28
ATOM     28  C   UNL     1       1.985   8.648  17.771  0.00  0.00    +0.000 C 
BRANCH  28  29
ATOM     29  C   UNL     1       0.936   9.796  17.922  0.00  0.00    +0.000 C 
ATOM     30  C   UNL     1      -0.298   9.363  18.734  0.00  0.00    +0.000 C 
BRANCH  29  31
ATOM     31  C   UNL     1       1.487  11.085  18.535  0.00  0.00    +0.000 A 
ATOM     32  C   UNL     1       2.458  11.831  17.843  0.00  0.00    +0.000 A 
ATOM     33  C   UNL     1       2.949  13.032  18.364  0.00  0.00    +0.000 A 
ATOM     34  C   UNL     1       2.467  13.514  19.579  0.00  0.00    +0.000 A 
ATOM     35  C   UNL     1       1.487  12.801  20.264  0.00  0.00    +0.000 A 
ATOM     36  C   UNL     1       0.995  11.599  19.744  0.00  0.00    +0.000 A 
ENDBRANCH  29  31
ENDBRANCH  28  29
ENDBRANCH  10  28
TORSDOF 9
ENDMDL
MODEL 7
REMARK VINA RESULT:      -8.0      0.684      1.130
REMARK  Name = 
REMARK  11 active torsions:
REMARK  status: ('A' for Active; 'I' for Inactive)
REMARK    1  A    between atoms: C_1  and  C_2
REMARK    2  A    between atoms: C_2  and  O_3
REMARK    3  A    between atoms: O_3  and  C_4
REMARK    4  A    between atoms: C_7  and  C_8
REMARK    5  A    between atoms: C_8  and  C_9
REMARK    6  A    between atoms: C_9  and  O_11
REMARK    7  A    between atoms: C_13  and  C_14
REMARK    8  A    between atoms: C_23  and  C_25
REMARK    9  A    between atoms: C_25  and  C_26
REMARK   10  A    between atoms: C_26  and  C_27
REMARK   11  A    between atoms: C_26  and  C_28
REMARK                            x       y       z     vdW  Elec       q    Type
REMARK                         _______ _______ _______ _____ _____    ______ ____
ROOT
ATOM      1  C   UNL     1       3.782   4.010  17.122  0.00  0.00    +0.000 A 
ATOM      2  C   UNL     1       3.859   2.590  17.147  0.00  0.00    +0.000 A 
ATOM      3  C   UNL     1       2.988   1.784  17.888  0.00  0.00    +0.000 A 
ATOM      4  C   UNL     1       2.136   2.389  18.782  0.00  0.00    +0.000 A 
ATOM      5  F   UNL     1       1.442   1.638  19.648  0.00  0.00    +0.000 F 
ATOM      6  C   UNL     1       2.082   3.774  18.847  0.00  0.00    +0.000 A 
ATOM      7  C   UNL     1       2.721   4.582  17.869  0.00  0.00    +0.000 A 
ATOM      8  C   UNL     1       2.182   6.019  17.809  0.00  0.00    +0.000 C 
ATOM      9  N   UNL     1       2.191   6.670  19.132  0.00  0.00    +0.000 N 
ATOM     10  C   UNL     1       1.918   8.015  19.404  0.00  0.00    +0.000 C 
ATOM     11  O   UNL     1       1.848   8.397  20.584  0.00  0.00    +0.000 OA
ATOM     12  C   UNL     1       2.367   5.768  20.272  0.00  0.00    +0.000 C 
ATOM     13  C   UNL     1       1.577   4.462  20.094  0.00  0.00    +0.000 C 
ENDROOT
BRANCH   1  19
ATOM     14  C   UNL     1       5.579   4.487  15.296  0.00  0.00    +0.000 A 
ATOM     15  C   UNL     1       6.695   5.233  14.873  0.00  0.00    +0.000 A 
ATOM     16  C   UNL     1       7.225   6.251  15.650  0.00  0.00    +0.000 A 
ATOM     17  C   UNL     1       6.645   6.563  16.871  0.00  0.00    +0.000 A 
ATOM     18  C   UNL     1       5.525   5.826  17.300  0.00  0.00    +0.000 A 
ATOM     19  C   UNL     1       4.927   4.796  16.527  0.00  0.00    +0.000 A 
BRANCH  14  20
ATOM     20  O   UNL     1       5.111   3.440  14.527  0.00  0.00    +0.000 OA
BRANCH  20  22
ATOM     21  C   UNL     1       6.223   3.117  12.404  0.00  0.00    +0.000 C 
ATOM     22  C   UNL     1       5.008   3.678  13.117  0.00  0.00    +0.000 C 
ENDBRANCH  20  22
ENDBRANCH  14  20
BRANCH  17  23
ATOM     23  C   UNL     1       7.209   7.702  17.685  0.00  0.00    +0.000 C 
BRANCH  23  24
ATOM     24  C   UNL     1       8.190   7.252  18.742  0.00  0.00    +0.000 C 
ATOM     25  O   UNL     1       8.310   6.115  19.173  0.00  0.00    +0.000 OA
BRANCH  24  26
ATOM     26  O   UNL     1       8.968   8.268  19.191  0.00  0.00    +0.000 OA
ATOM     27  H   UNL     1       9.517   8.703  18.509  0.00  0.00    +0.000 HD
ENDBRANCH  24  26
ENDBRANCH  23  24
ENDBRANCH  17  23
ENDBRANCH   1  19
BRANCH  10  28
ATOM     28  C   UNL     1       1.675   8.997  18.273  0.00  0.00    +0.000 C 
BRANCH  28  29
ATOM     29  C   UNL     1       1.138  10.367  18.797  0.00  0.00    +0.000 C 
ATOM     30  C   UNL     1       1.936  11.561  18.246  0.00  0.00    +0.000 C 
BRANCH  29  31
ATOM     31  C   UNL     1      -0.347  10.614  18.524  0.00  0.00    +0.000 A 
ATOM     32  C   UNL     1      -1.037   9.798  17.610  0.00  0.00    +0.000 A 
ATOM     33  C   UNL     1      -2.403   9.979  17.371  0.00  0.00    +0.000 A 
ATOM     34  C   UNL     1      -3.105  10.970  18.053  0.00  0.00    +0.000 A 
ATOM     35  C   UNL     1      -2.442  11.770  18.981  0.00  0.00    +0.000 A 
ATOM     36  C   UNL     1      -1.075  11.590  19.220  0.00  0.00    +0.000 A 
ENDBRANCH  29  31
ENDBRANCH  28  29
ENDBRANCH  10  28
TORSDOF 9
ENDMDL
MODEL 8
REMARK VINA RESULT:      -7.7      1.704      3.386
REMARK  Name = 
REMARK  11 active torsions:
REMARK  status: ('A' for Active; 'I' for Inactive)
REMARK    1  A    between atoms: C_1  and  C_2
REMARK    2  A    between atoms: C_2  and  O_3
REMARK    3  A    between atoms: O_3  and  C_4
REMARK    4  A    between atoms: C_7  and  C_8
REMARK    5  A    between atoms: C_8  and  C_9
REMARK    6  A    between atoms: C_9  and  O_11
REMARK    7  A    between atoms: C_13  and  C_14
REMARK    8  A    between atoms: C_23  and  C_25
REMARK    9  A    between atoms: C_25  and  C_26
REMARK   10  A    between atoms: C_26  and  C_27
REMARK   11  A    between atoms: C_26  and  C_28
REMARK                            x       y       z     vdW  Elec       q    Type
REMARK                         _______ _______ _______ _____ _____    ______ ____
ROOT
ATOM      1  C   UNL     1       3.254   3.513  17.512  0.00  0.00    +0.000 A 
ATOM      2  C   UNL     1       2.980   2.119  17.542  0.00  0.00    +0.000 A 
ATOM      3  C   UNL     1       1.832   1.571  18.126  0.00  0.00    +0.000 A 
ATOM      4  C   UNL     1       1.019   2.392  18.872  0.00  0.00    +0.000 A 
ATOM      5  F   UNL     1       0.035   1.859  19.607  0.00  0.00    +0.000 F 
ATOM      6  C   UNL     1       1.293   3.751  18.934  0.00  0.00    +0.000 A 
ATOM      7  C   UNL     1       2.257   4.348  18.079  0.00  0.00    +0.000 A 
ATOM      8  C   UNL     1       2.097   5.870  17.939  0.00  0.00    +0.000 C 
ATOM      9  N   UNL     1       2.052   6.544  19.250  0.00  0.00    +0.000 N 
ATOM     10  C   UNL     1       2.072   7.924  19.481  0.00  0.00    +0.000 C 
ATOM     11  O   UNL     1       1.908   8.352  20.636  0.00  0.00    +0.000 OA
ATOM     12  C   UNL     1       1.819   5.666  20.398  0.00  0.00    +0.000 C 
ATOM     13  C   UNL     1       0.775   4.582  20.086  0.00  0.00    +0.000 C 
ENDROOT
BRANCH   1  19
ATOM     14  C   UNL     1       5.653   4.386  18.030  0.00  0.00    +0.000 A 
ATOM     15  C   UNL     1       6.878   4.889  17.555  0.00  0.00    +0.000 A 
ATOM     16  C   UNL     1       7.120   5.053  16.200  0.00  0.00    +0.000 A 
ATOM     17  C   UNL     1       6.145   4.705  15.277  0.00  0.00    +0.000 A 
ATOM     18  C   UNL     1       4.917   4.195  15.743  0.00  0.00    +0.000 A 
ATOM     19  C   UNL     1       4.635   3.981  17.118  0.00  0.00    +0.000 A 
BRANCH  14  20
ATOM     20  O   UNL     1       5.421   4.292  19.388  0.00  0.00    +0.000 OA
BRANCH  20  22
ATOM     21  C   UNL     1       4.215   2.704  20.757  0.00  0.00    +0.000 C 
ATOM     22  C   UNL     1       5.475   2.976  19.957  0.00  0.00    +0.000 C 
ENDBRANCH  20  22
ENDBRANCH  14  20
BRANCH  17  23
ATOM     23  C   UNL     1       6.440   4.849  13.804  0.00  0.00    +0.000 C 
BRANCH  23  24
ATOM     24  C   UNL     1       5.805   3.768  12.959  0.00  0.00    +0.000 C 
ATOM     25  O   UNL     1       4.638   3.732  12.598  0.00  0.00    +0.000 OA
BRANCH  24  26
ATOM     26  O   UNL     1       6.685   2.796  12.616  0.00  0.00    +0.000 OA
ATOM     27  H   UNL     1       6.795   2.657  11.654  0.00  0.00    +0.000 HD
ENDBRANCH  24  26
ENDBRANCH  23  24
ENDBRANCH  17  23
ENDBRANCH   1  19
BRANCH  10  28
ATOM     28  C   UNL     1       2.258   8.896  18.331  0.00  0.00    +0.000 C 
BRANCH  28  29
ATOM     29  C   UNL     1       1.713  10.319  18.678  0.00  0.00    +0.000 C 
ATOM     30  C   UNL     1       2.427  11.430  17.889  0.00  0.00    +0.000 C 
BRANCH  29  31
ATOM     31  C   UNL     1       0.205  10.486  18.486  0.00  0.00    +0.000 A 
ATOM     32  C   UNL     1      -0.471  11.539  19.126  0.00  0.00    +0.000 A 
ATOM     33  C   UNL     1      -1.843  11.736  18.936  0.00  0.00    +0.000 A 
ATOM     34  C   UNL     1      -2.558  10.891  18.091  0.00  0.00    +0.000 A 
ATOM     35  C   UNL     1      -1.899   9.859  17.428  0.00  0.00    +0.000 A 
ATOM     36  C   UNL     1      -0.527   9.661  17.618  0.00  0.00    +0.000 A 
ENDBRANCH  29  31
ENDBRANCH  28  29
ENDBRANCH  10  28
TORSDOF 9
ENDMDL
MODEL 9
REMARK VINA RESULT:      -7.3      1.565      2.202
REMARK  Name = 
REMARK  11 active torsions:
REMARK  status: ('A' for Active; 'I' for Inactive)
REMARK    1  A    between atoms: C_1  and  C_2
REMARK    2  A    between atoms: C_2  and  O_3
REMARK    3  A    between atoms: O_3  and  C_4
REMARK    4  A    between atoms: C_7  and  C_8
REMARK    5  A    between atoms: C_8  and  C_9
REMARK    6  A    between atoms: C_9  and  O_11
REMARK    7  A    between atoms: C_13  and  C_14
REMARK    8  A    between atoms: C_23  and  C_25
REMARK    9  A    between atoms: C_25  and  C_26
REMARK   10  A    between atoms: C_26  and  C_27
REMARK   11  A    between atoms: C_26  and  C_28
REMARK                            x       y       z     vdW  Elec       q    Type
REMARK                         _______ _______ _______ _____ _____    ______ ____
ROOT
ATOM      1  C   UNL     1       3.651   4.033  17.340  0.00  0.00    +0.000 A 
ATOM      2  C   UNL     1       3.552   2.617  17.264  0.00  0.00    +0.000 A 
ATOM      3  C   UNL     1       2.485   1.889  17.803  0.00  0.00    +0.000 A 
ATOM      4  C   UNL     1       1.583   2.545  18.607  0.00  0.00    +0.000 A 
ATOM      5  F   UNL     1       0.678   1.841  19.299  0.00  0.00    +0.000 F 
ATOM      6  C   UNL     1       1.687   3.919  18.772  0.00  0.00    +0.000 A 
ATOM      7  C   UNL     1       2.563   4.694  17.966  0.00  0.00    +0.000 A 
ATOM      8  C   UNL     1       2.217   6.190  17.940  0.00  0.00    +0.000 C 
ATOM      9  N   UNL     1       2.098   6.754  19.298  0.00  0.00    +0.000 N 
ATOM     10  C   UNL     1       1.949   8.104  19.632  0.00  0.00    +0.000 C 
ATOM     11  O   UNL     1       1.744   8.421  20.815  0.00  0.00    +0.000 OA
ATOM     12  C   UNL     1       1.984   5.771  20.376  0.00  0.00    +0.000 C 
ATOM     13  C   UNL     1       1.080   4.592  19.982  0.00  0.00    +0.000 C 
ENDROOT
BRANCH   1  19
ATOM     14  C   UNL     1       5.538   4.719  15.680  0.00  0.00    +0.000 A 
ATOM     15  C   UNL     1       6.808   5.290  15.472  0.00  0.00    +0.000 A 
ATOM     16  C   UNL     1       7.556   5.800  16.521  0.00  0.00    +0.000 A 
ATOM     17  C   UNL     1       7.050   5.767  17.811  0.00  0.00    +0.000 A 
ATOM     18  C   UNL     1       5.777   5.203  18.029  0.00  0.00    +0.000 A 
ATOM     19  C   UNL     1       4.961   4.696  16.984  0.00  0.00    +0.000 A 
BRANCH  14  20
ATOM     20  O   UNL     1       4.844   4.165  14.623  0.00  0.00    +0.000 OA
BRANCH  20  22
ATOM     21  C   UNL     1       4.888   3.196  12.407  0.00  0.00    +0.000 C 
ATOM     22  C   UNL     1       5.466   4.249  13.334  0.00  0.00    +0.000 C 
ENDBRANCH  20  22
ENDBRANCH  14  20
BRANCH  17  23
ATOM     23  C   UNL     1       7.858   6.366  18.936  0.00  0.00    +0.000 C 
BRANCH  23  24
ATOM     24  C   UNL     1       8.520   5.329  19.813  0.00  0.00    +0.000 C 
ATOM     25  O   UNL     1       9.331   4.491  19.448  0.00  0.00    +0.000 OA
BRANCH  24  26
ATOM     26  O   UNL     1       8.120   5.414  21.106  0.00  0.00    +0.000 OA
ATOM     27  H   UNL     1       7.214   5.093  21.283  0.00  0.00    +0.000 HD
ENDBRANCH  24  26
ENDBRANCH  23  24
ENDBRANCH  17  23
ENDBRANCH   1  19
BRANCH  10  28
ATOM     28  C   UNL     1       2.006   9.175  18.558  0.00  0.00    +0.000 C 
BRANCH  28  29
ATOM     29  C   UNL     1       0.746  10.099  18.591  0.00  0.00    +0.000 C 
ATOM     30  C   UNL     1      -0.218   9.739  19.735  0.00  0.00    +0.000 C 
BRANCH  29  31
ATOM     31  C   UNL     1       1.057  11.594  18.677  0.00  0.00    +0.000 A 
ATOM     32  C   UNL     1       0.138  12.467  19.287  0.00  0.00    +0.000 A 
ATOM     33  C   UNL     1       0.416  13.832  19.412  0.00  0.00    +0.000 A 
ATOM     34  C   UNL     1       1.624  14.344  18.943  0.00  0.00    +0.000 A 
ATOM     35  C   UNL     1       2.556  13.489  18.361  0.00  0.00    +0.000 A 
ATOM     36  C   UNL     1       2.278  12.123  18.234  0.00  0.00    +0.000 A 
ENDBRANCH  29  31
ENDBRANCH  28  29
ENDBRANCH  10  28
TORSDOF 9
ENDMDL
