MODEL 1
REMARK VINA RESULT:      -6.9      0.000      0.000
REMARK  Name = 
REMARK  7 active torsions:
REMARK  status: ('A' for Active; 'I' for Inactive)
REMARK    1  A    between atoms: C_1  and  C_2
REMARK    2  A    between atoms: C_2  and  C_3
REMARK    3  A    between atoms: C_3  and  C_4
REMARK    4  A    between atoms: C_7  and  N_8
REMARK    5  A    between atoms: N_11  and  C_12
REMARK    6  A    between atoms: C_15  and  N_16
REMARK    7  A    between atoms: C_20  and  O_21
REMARK                            x       y       z     vdW  Elec       q    Type
REMARK                         _______ _______ _______ _____ _____    ______ ____
ROOT
ATOM      1  N   UNL     1       8.415   7.462  18.894  0.00  0.00    +0.000 N 
ATOM      2  C   UNL     1       8.438   8.817  18.614  0.00  0.00    +0.000 C 
ATOM      3  O   UNL     1       7.611   9.403  17.925  0.00  0.00    +0.000 OA
ATOM      4  N   UNL     1       9.526   9.442  19.202  0.00  0.00    +0.000 N 
ATOM      5  H   UNL     1       8.836   7.191  19.771  0.00  0.00    +0.000 HD
ATOM      6  H   UNL     1      10.383   8.899  19.189  0.00  0.00    +0.000 HD
ENDROOT
BRANCH   1  10
ATOM      7  C   UNL     1       5.725   4.711  17.133  0.00  0.00    +0.000 A 
ATOM      8  C   UNL     1       6.481   5.564  16.325  0.00  0.00    +0.000 A 
ATOM      9  C   UNL     1       7.382   6.461  16.896  0.00  0.00    +0.000 A 
ATOM     10  C   UNL     1       7.536   6.540  18.283  0.00  0.00    +0.000 A 
ATOM     11  C   UNL     1       6.812   5.663  19.094  0.00  0.00    +0.000 A 
ATOM     12  C   UNL     1       5.902   4.761  18.522  0.00  0.00    +0.000 A 
BRANCH   7  13
ATOM     13  C   UNL     1       4.738   3.747  16.516  0.00  0.00    +0.000 C 
BRANCH  13  15
ATOM     14  C   UNL     1       2.417   3.780  17.568  0.00  0.00    +0.000 C 
ATOM     15  C   UNL     1       3.779   3.103  17.522  0.00  0.00    +0.000 C 
ENDBRANCH  13  15
ENDBRANCH   7  13
ENDBRANCH   1  10
BRANCH   4  16
ATOM     16  C   UNL     1       9.731  10.834  19.053  0.00  0.00    +0.000 A 
ATOM     17  C   UNL     1      10.074  11.402  17.820  0.00  0.00    +0.000 A 
ATOM     18  C   UNL     1      10.335  12.770  17.726  0.00  0.00    +0.000 A 
ATOM     19  C   UNL     1      10.254  13.567  18.876  0.00  0.00    +0.000 A 
ATOM     20  C   UNL     1       9.894  13.012  20.114  0.00  0.00    +0.000 A 
ATOM     21  C   UNL     1       9.612  11.650  20.184  0.00  0.00    +0.000 A 
BRANCH  19  22
ATOM     22  N   UNL     1      10.553  15.003  18.786  0.00  0.00    +0.000 N 
ATOM     23  O   UNL     1      10.052  15.641  17.849  0.00  0.00    +0.000 OA
ATOM     24  O   UNL     1      11.286  15.491  19.658  0.00  0.00    +0.000 OA
ENDBRANCH  19  22
BRANCH  21  25
ATOM     25  O   UNL     1       9.263  11.063  21.373  0.00  0.00    +0.000 OA
ATOM     26  H   UNL     1       8.720  10.277  21.190  0.00  0.00    +0.000 HD
ENDBRANCH  21  25
ENDBRANCH   4  16
TORSDOF 6
ENDMDL
MODEL 2
REMARK VINA RESULT:      -6.9      1.753      2.433
REMARK  Name = 
REMARK  7 active torsions:
REMARK  status: ('A' for Active; 'I' for Inactive)
REMARK    1  A    between atoms: C_1  and  C_2
REMARK    2  A    between atoms: C_2  and  C_3
REMARK    3  A    between atoms: C_3  and  C_4
REMARK    4  A    between atoms: C_7  and  N_8
REMARK    5  A    between atoms: N_11  and  C_12
REMARK    6  A    between atoms: C_15  and  N_16
REMARK    7  A    between atoms: C_20  and  O_21
REMARK                            x       y       z     vdW  Elec       q    Type
REMARK                         _______ _______ _______ _____ _____    ______ ____
ROOT
ATOM      1  N   UNL     1       8.831   8.485  19.024  0.00  0.00    +0.000 N 
ATOM      2  C   UNL     1       8.810   9.773  18.519  0.00  0.00    +0.000 C 
ATOM      3  O   UNL     1       8.062  10.163  17.629  0.00  0.00    +0.000 OA
ATOM      4  N   UNL     1       9.752  10.580  19.137  0.00  0.00    +0.000 N 
ATOM      5  H   UNL     1       9.128   8.398  19.985  0.00  0.00    +0.000 HD
ATOM      6  H   UNL     1      10.633  10.121  19.339  0.00  0.00    +0.000 HD
ENDROOT
BRANCH   1  10
ATOM      7  C   UNL     1       6.725   5.263  17.266  0.00  0.00    +0.000 A 
ATOM      8  C   UNL     1       7.318   5.108  18.522  0.00  0.00    +0.000 A 
ATOM      9  C   UNL     1       7.999   6.170  19.115  0.00  0.00    +0.000 A 
ATOM     10  C   UNL     1       8.118   7.401  18.465  0.00  0.00    +0.000 A 
ATOM     11  C   UNL     1       7.494   7.573  17.227  0.00  0.00    +0.000 A 
ATOM     12  C   UNL     1       6.811   6.506  16.625  0.00  0.00    +0.000 A 
BRANCH   7  13
ATOM     13  C   UNL     1       5.998   4.108  16.616  0.00  0.00    +0.000 C 
BRANCH  13  15
ATOM     14  C   UNL     1       6.174   3.917  14.080  0.00  0.00    +0.000 C 
ATOM     15  C   UNL     1       5.371   4.447  15.260  0.00  0.00    +0.000 C 
ENDBRANCH  13  15
ENDBRANCH   7  13
ENDBRANCH   1  10
BRANCH   4  16
ATOM     16  C   UNL     1       9.887  11.942  18.779  0.00  0.00    +0.000 A 
ATOM     17  C   UNL     1       9.003  12.921  19.249  0.00  0.00    +0.000 A 
ATOM     18  C   UNL     1       9.128  14.243  18.821  0.00  0.00    +0.000 A 
ATOM     19  C   UNL     1      10.141  14.580  17.913  0.00  0.00    +0.000 A 
ATOM     20  C   UNL     1      11.044  13.611  17.448  0.00  0.00    +0.000 A 
ATOM     21  C   UNL     1      10.922  12.302  17.907  0.00  0.00    +0.000 A 
BRANCH  19  22
ATOM     22  N   UNL     1      10.259  15.966  17.440  0.00  0.00    +0.000 N 
ATOM     23  O   UNL     1      11.165  16.228  16.636  0.00  0.00    +0.000 OA
ATOM     24  O   UNL     1       9.440  16.790  17.871  0.00  0.00    +0.000 OA
ENDBRANCH  19  22
BRANCH  21  25
ATOM     25  O   UNL     1      11.775  11.321  17.474  0.00  0.00    +0.000 OA
ATOM     26  H   UNL     1      12.672  11.692  17.403  0.00  0.00    +0.000 HD
ENDBRANCH  21  25
ENDBRANCH   4  16
TORSDOF 6
ENDMDL
MODEL 3
REMARK VINA RESULT:      -6.7      1.683      2.227
REMARK  Name = 
REMARK  7 active torsions:
REMARK  status: ('A' for Active; 'I' for Inactive)
REMARK    1  A    between atoms: C_1  and  C_2
REMARK    2  A    between atoms: C_2  and  C_3
REMARK    3  A    between atoms: C_3  and  C_4
REMARK    4  A    between atoms: C_7  and  N_8
REMARK    5  A    between atoms: N_11  and  C_12
REMARK    6  A    between atoms: C_15  and  N_16
REMARK    7  A    between atoms: C_20  and  O_21
REMARK                            x       y       z     vdW  Elec       q    Type
REMARK                         _______ _______ _______ _____ _____    ______ ____
ROOT
ATOM      1  N   UNL     1       8.833   8.587  18.970  0.00  0.00    +0.000 N 
ATOM      2  C   UNL     1       8.831   9.891  18.508  0.00  0.00    +0.000 C 
ATOM      3  O   UNL     1       8.058  10.333  17.666  0.00  0.00    +0.000 OA
ATOM      4  N   UNL     1       9.826  10.647  19.107  0.00  0.00    +0.000 N 
ATOM      5  H   UNL     1       9.171   8.459  19.914  0.00  0.00    +0.000 HD
ATOM      6  H   UNL     1      10.700  10.155  19.254  0.00  0.00    +0.000 HD
ENDROOT
BRANCH   1  10
ATOM      7  C   UNL     1       6.503   5.435  17.378  0.00  0.00    +0.000 A 
ATOM      8  C   UNL     1       6.511   6.683  16.751  0.00  0.00    +0.000 A 
ATOM      9  C   UNL     1       7.289   7.722  17.260  0.00  0.00    +0.000 A 
ATOM     10  C   UNL     1       8.062   7.545  18.410  0.00  0.00    +0.000 A 
ATOM     11  C   UNL     1       8.088   6.287  19.018  0.00  0.00    +0.000 A 
ATOM     12  C   UNL     1       7.304   5.241  18.511  0.00  0.00    +0.000 A 
BRANCH   7  13
ATOM     13  C   UNL     1       5.650   4.312  16.834  0.00  0.00    +0.000 C 
BRANCH  13  15
ATOM     14  C   UNL     1       5.522   4.273  14.289  0.00  0.00    +0.000 C 
ATOM     15  C   UNL     1       6.178   3.696  15.535  0.00  0.00    +0.000 C 
ENDBRANCH  13  15
ENDBRANCH   7  13
ENDBRANCH   1  10
BRANCH   4  16
ATOM     16  C   UNL     1       9.989  12.016  18.787  0.00  0.00    +0.000 A 
ATOM     17  C   UNL     1       9.148  13.004  19.314  0.00  0.00    +0.000 A 
ATOM     18  C   UNL     1       9.297  14.335  18.922  0.00  0.00    +0.000 A 
ATOM     19  C   UNL     1      10.291  14.672  17.993  0.00  0.00    +0.000 A 
ATOM     20  C   UNL     1      11.152  13.694  17.471  0.00  0.00    +0.000 A 
ATOM     21  C   UNL     1      11.006  12.374  17.894  0.00  0.00    +0.000 A 
BRANCH  19  22
ATOM     22  N   UNL     1      10.434  16.068  17.558  0.00  0.00    +0.000 N 
ATOM     23  O   UNL     1       9.637  16.901  18.012  0.00  0.00    +0.000 OA
ATOM     24  O   UNL     1      11.350  16.330  16.765  0.00  0.00    +0.000 OA
ENDBRANCH  19  22
BRANCH  21  25
ATOM     25  O   UNL     1      11.818  11.384  17.405  0.00  0.00    +0.000 OA
ATOM     26  H   UNL     1      12.353  11.745  16.677  0.00  0.00    +0.000 HD
ENDBRANCH  21  25
ENDBRANCH   4  16
TORSDOF 6
ENDMDL
MODEL 4
REMARK VINA RESULT:      -6.7      6.242      9.248
REMARK  Name = 
REMARK  7 active torsions:
REMARK  status: ('A' for Active; 'I' for Inactive)
REMARK    1  A    between atoms: C_1  and  C_2
REMARK    2  A    between atoms: C_2  and  C_3
REMARK    3  A    between atoms: C_3  and  C_4
REMARK    4  A    between atoms: C_7  and  N_8
REMARK    5  A    between atoms: N_11  and  C_12
REMARK    6  A    between atoms: C_15  and  N_16
REMARK    7  A    between atoms: C_20  and  O_21
REMARK                            x       y       z     vdW  Elec       q    Type
REMARK                         _______ _______ _______ _____ _____    ______ ____
ROOT
ATOM      1  N   UNL     1       2.209   7.302  20.191  0.00  0.00    +0.000 N 
ATOM      2  C   UNL     1       2.978   7.182  19.047  0.00  0.00    +0.000 C 
ATOM      3  O   UNL     1       3.106   8.056  18.196  0.00  0.00    +0.000 OA
ATOM      4  N   UNL     1       3.585   5.940  18.967  0.00  0.00    +0.000 N 
ATOM      5  H   UNL     1       2.516   6.755  20.982  0.00  0.00    +0.000 HD
ATOM      6  H   UNL     1       3.009   5.167  19.283  0.00  0.00    +0.000 HD
ENDROOT
BRANCH   1  10
ATOM      7  C   UNL     1      -0.389  10.531  21.047  0.00  0.00    +0.000 A 
ATOM      8  C   UNL     1       0.162  10.397  19.770  0.00  0.00    +0.000 A 
ATOM      9  C   UNL     1       1.006   9.327  19.475  0.00  0.00    +0.000 A 
ATOM     10  C   UNL     1       1.330   8.378  20.448  0.00  0.00    +0.000 A 
ATOM     11  C   UNL     1       0.751   8.485  21.715  0.00  0.00    +0.000 A 
ATOM     12  C   UNL     1      -0.095   9.562  22.016  0.00  0.00    +0.000 A 
BRANCH   7  13
ATOM     13  C   UNL     1      -1.293  11.698  21.371  0.00  0.00    +0.000 C 
BRANCH  13  15
ATOM     14  C   UNL     1      -2.869  12.125  23.329  0.00  0.00    +0.000 C 
ATOM     15  C   UNL     1      -1.424  11.990  22.870  0.00  0.00    +0.000 C 
ENDBRANCH  13  15
ENDBRANCH   7  13
ENDBRANCH   1  10
BRANCH   4  16
ATOM     16  C   UNL     1       4.430   5.614  17.879  0.00  0.00    +0.000 A 
ATOM     17  C   UNL     1       5.582   6.354  17.591  0.00  0.00    +0.000 A 
ATOM     18  C   UNL     1       6.354   6.044  16.470  0.00  0.00    +0.000 A 
ATOM     19  C   UNL     1       5.962   4.989  15.635  0.00  0.00    +0.000 A 
ATOM     20  C   UNL     1       4.819   4.227  15.923  0.00  0.00    +0.000 A 
ATOM     21  C   UNL     1       4.075   4.534  17.061  0.00  0.00    +0.000 A 
BRANCH  19  22
ATOM     22  N   UNL     1       6.757   4.676  14.440  0.00  0.00    +0.000 N 
ATOM     23  O   UNL     1       7.783   5.341  14.236  0.00  0.00    +0.000 OA
ATOM     24  O   UNL     1       6.355   3.760  13.708  0.00  0.00    +0.000 OA
ENDBRANCH  19  22
BRANCH  21  25
ATOM     25  O   UNL     1       2.947   3.823  17.378  0.00  0.00    +0.000 OA
ATOM     26  H   UNL     1       2.204   4.155  16.844  0.00  0.00    +0.000 HD
ENDBRANCH  21  25
ENDBRANCH   4  16
TORSDOF 6
ENDMDL
MODEL 5
REMARK VINA RESULT:      -6.7      8.042      9.231
REMARK  Name = 
REMARK  7 active torsions:
REMARK  status: ('A' for Active; 'I' for Inactive)
REMARK    1  A    between atoms: C_1  and  C_2
REMARK    2  A    between atoms: C_2  and  C_3
REMARK    3  A    between atoms: C_3  and  C_4
REMARK    4  A    between atoms: C_7  and  N_8
REMARK    5  A    between atoms: N_11  and  C_12
REMARK    6  A    between atoms: C_15  and  N_16
REMARK    7  A    between atoms: C_20  and  O_21
REMARK                            x       y       z     vdW  Elec       q    Type
REMARK                         _______ _______ _______ _____ _____    ______ ____
ROOT
ATOM      1  N   UNL     1       1.825   7.967  21.150  0.00  0.00    +0.000 N 
ATOM      2  C   UNL     1       0.740   8.826  21.179  0.00  0.00    +0.000 C 
ATOM      3  O   UNL     1      -0.284   8.681  20.521  0.00  0.00    +0.000 OA
ATOM      4  N   UNL     1       0.952   9.889  22.042  0.00  0.00    +0.000 N 
ATOM      5  H   UNL     1       2.370   7.925  21.999  0.00  0.00    +0.000 HD
ATOM      6  H   UNL     1       1.898  10.254  22.037  0.00  0.00    +0.000 HD
ENDROOT
BRANCH   1  10
ATOM      7  C   UNL     1       2.191   4.749  18.428  0.00  0.00    +0.000 A 
ATOM      8  C   UNL     1       2.580   6.034  18.045  0.00  0.00    +0.000 A 
ATOM      9  C   UNL     1       2.479   7.097  18.942  0.00  0.00    +0.000 A 
ATOM     10  C   UNL     1       1.972   6.905  20.230  0.00  0.00    +0.000 A 
ATOM     11  C   UNL     1       1.618   5.614  20.630  0.00  0.00    +0.000 A 
ATOM     12  C   UNL     1       1.716   4.544  19.730  0.00  0.00    +0.000 A 
BRANCH   7  13
ATOM     13  C   UNL     1       2.288   3.598  17.452  0.00  0.00    +0.000 C 
BRANCH  13  15
ATOM     14  C   UNL     1       3.544   1.580  18.373  0.00  0.00    +0.000 C 
ATOM     15  C   UNL     1       2.188   2.215  18.103  0.00  0.00    +0.000 C 
ENDBRANCH  13  15
ENDBRANCH   7  13
ENDBRANCH   1  10
BRANCH   4  16
ATOM     16  C   UNL     1      -0.041  10.878  22.232  0.00  0.00    +0.000 A 
ATOM     17  C   UNL     1      -1.110  10.692  23.116  0.00  0.00    +0.000 A 
ATOM     18  C   UNL     1      -2.107  11.663  23.227  0.00  0.00    +0.000 A 
ATOM     19  C   UNL     1      -2.030  12.821  22.442  0.00  0.00    +0.000 A 
ATOM     20  C   UNL     1      -0.953  13.028  21.566  0.00  0.00    +0.000 A 
ATOM     21  C   UNL     1       0.046  12.061  21.488  0.00  0.00    +0.000 A 
BRANCH  19  22
ATOM     22  N   UNL     1      -3.091  13.833  22.537  0.00  0.00    +0.000 N 
ATOM     23  O   UNL     1      -4.182  13.486  23.011  0.00  0.00    +0.000 OA
ATOM     24  O   UNL     1      -2.827  14.978  22.141  0.00  0.00    +0.000 OA
ENDBRANCH  19  22
BRANCH  21  25
ATOM     25  O   UNL     1       1.112  12.216  20.640  0.00  0.00    +0.000 OA
ATOM     26  H   UNL     1       0.855  11.914  19.752  0.00  0.00    +0.000 HD
ENDBRANCH  21  25
ENDBRANCH   4  16
TORSDOF 6
ENDMDL
MODEL 6
REMARK VINA RESULT:      -6.7      1.538      2.173
REMARK  Name = 
REMARK  7 active torsions:
REMARK  status: ('A' for Active; 'I' for Inactive)
REMARK    1  A    between atoms: C_1  and  C_2
REMARK    2  A    between atoms: C_2  and  C_3
REMARK    3  A    between atoms: C_3  and  C_4
REMARK    4  A    between atoms: C_7  and  N_8
REMARK    5  A    between atoms: N_11  and  C_12
REMARK    6  A    between atoms: C_15  and  N_16
REMARK    7  A    between atoms: C_20  and  O_21
REMARK                            x       y       z     vdW  Elec       q    Type
REMARK                         _______ _______ _______ _____ _____    ______ ____
ROOT
ATOM      1  N   UNL     1       8.836   8.546  19.004  0.00  0.00    +0.000 N 
ATOM      2  C   UNL     1       8.812   9.829  18.488  0.00  0.00    +0.000 C 
ATOM      3  O   UNL     1       8.071  10.206  17.587  0.00  0.00    +0.000 OA
ATOM      4  N   UNL     1       9.742  10.647  19.108  0.00  0.00    +0.000 N 
ATOM      5  H   UNL     1       9.123   8.470  19.970  0.00  0.00    +0.000 HD
ATOM      6  H   UNL     1      10.624  10.196  19.324  0.00  0.00    +0.000 HD
ENDROOT
BRANCH   1  10
ATOM      7  C   UNL     1       6.765   5.297  17.254  0.00  0.00    +0.000 A 
ATOM      8  C   UNL     1       7.406   5.135  18.485  0.00  0.00    +0.000 A 
ATOM      9  C   UNL     1       8.076   6.205  19.077  0.00  0.00    +0.000 A 
ATOM     10  C   UNL     1       8.136   7.452  18.448  0.00  0.00    +0.000 A 
ATOM     11  C   UNL     1       7.463   7.630  17.236  0.00  0.00    +0.000 A 
ATOM     12  C   UNL     1       6.791   6.555  16.637  0.00  0.00    +0.000 A 
BRANCH   7  13
ATOM     13  C   UNL     1       6.049   4.135  16.606  0.00  0.00    +0.000 C 
BRANCH  13  15
ATOM     14  C   UNL     1       3.943   3.563  17.924  0.00  0.00    +0.000 C 
ATOM     15  C   UNL     1       4.521   4.221  16.679  0.00  0.00    +0.000 C 
ENDBRANCH  13  15
ENDBRANCH   7  13
ENDBRANCH   1  10
BRANCH   4  16
ATOM     16  C   UNL     1       9.872  12.007  18.739  0.00  0.00    +0.000 A 
ATOM     17  C   UNL     1       8.988  12.987  19.204  0.00  0.00    +0.000 A 
ATOM     18  C   UNL     1       9.107  14.307  18.765  0.00  0.00    +0.000 A 
ATOM     19  C   UNL     1      10.117  14.639  17.852  0.00  0.00    +0.000 A 
ATOM     20  C   UNL     1      11.021  13.669  17.392  0.00  0.00    +0.000 A 
ATOM     21  C   UNL     1      10.904  12.363  17.861  0.00  0.00    +0.000 A 
BRANCH  19  22
ATOM     22  N   UNL     1      10.229  16.022  17.367  0.00  0.00    +0.000 N 
ATOM     23  O   UNL     1       9.373  16.837  17.737  0.00  0.00    +0.000 OA
ATOM     24  O   UNL     1      11.181  16.290  16.619  0.00  0.00    +0.000 OA
ENDBRANCH  19  22
BRANCH  21  25
ATOM     25  O   UNL     1      11.759  11.382  17.434  0.00  0.00    +0.000 OA
ATOM     26  H   UNL     1      11.334  10.515  17.560  0.00  0.00    +0.000 HD
ENDBRANCH  21  25
ENDBRANCH   4  16
TORSDOF 6
ENDMDL
MODEL 7
REMARK VINA RESULT:      -6.7      2.707      9.126
REMARK  Name = 
REMARK  7 active torsions:
REMARK  status: ('A' for Active; 'I' for Inactive)
REMARK    1  A    between atoms: C_1  and  C_2
REMARK    2  A    between atoms: C_2  and  C_3
REMARK    3  A    between atoms: C_3  and  C_4
REMARK    4  A    between atoms: C_7  and  N_8
REMARK    5  A    between atoms: N_11  and  C_12
REMARK    6  A    between atoms: C_15  and  N_16
REMARK    7  A    between atoms: C_20  and  O_21
REMARK                            x       y       z     vdW  Elec       q    Type
REMARK                         _______ _______ _______ _____ _____    ______ ____
ROOT
ATOM      1  N   UNL     1       9.614   9.730  19.332  0.00  0.00    +0.000 N 
ATOM      2  C   UNL     1       8.637   9.024  18.652  0.00  0.00    +0.000 C 
ATOM      3  O   UNL     1       7.856   9.514  17.844  0.00  0.00    +0.000 OA
ATOM      4  N   UNL     1       8.637   7.683  19.002  0.00  0.00    +0.000 N 
ATOM      5  H   UNL     1      10.431   9.198  19.596  0.00  0.00    +0.000 HD
ATOM      6  H   UNL     1       8.811   7.504  19.985  0.00  0.00    +0.000 HD
ENDROOT
BRANCH   1  10
ATOM      7  C   UNL     1       9.952  13.945  19.207  0.00  0.00    +0.000 A 
ATOM      8  C   UNL     1       9.317  13.327  20.288  0.00  0.00    +0.000 A 
ATOM      9  C   UNL     1       9.217  11.938  20.345  0.00  0.00    +0.000 A 
ATOM     10  C   UNL     1       9.730  11.137  19.321  0.00  0.00    +0.000 A 
ATOM     11  C   UNL     1      10.400  11.748  18.258  0.00  0.00    +0.000 A 
ATOM     12  C   UNL     1      10.500  13.146  18.196  0.00  0.00    +0.000 A 
BRANCH   7  13
ATOM     13  C   UNL     1      10.050  15.452  19.138  0.00  0.00    +0.000 C 
BRANCH  13  15
ATOM     14  C   UNL     1      10.614  16.637  16.953  0.00  0.00    +0.000 C 
ATOM     15  C   UNL     1       9.518  16.055  17.833  0.00  0.00    +0.000 C 
ENDBRANCH  13  15
ENDBRANCH   7  13
ENDBRANCH   1  10
BRANCH   4  16
ATOM     16  C   UNL     1       7.724   6.779  18.410  0.00  0.00    +0.000 A 
ATOM     17  C   UNL     1       7.233   6.968  17.112  0.00  0.00    +0.000 A 
ATOM     18  C   UNL     1       6.282   6.092  16.587  0.00  0.00    +0.000 A 
ATOM     19  C   UNL     1       5.821   5.026  17.370  0.00  0.00    +0.000 A 
ATOM     20  C   UNL     1       6.319   4.815  18.666  0.00  0.00    +0.000 A 
ATOM     21  C   UNL     1       7.287   5.683  19.165  0.00  0.00    +0.000 A 
BRANCH  19  22
ATOM     22  N   UNL     1       4.801   4.116  16.830  0.00  0.00    +0.000 N 
ATOM     23  O   UNL     1       3.855   3.805  17.566  0.00  0.00    +0.000 OA
ATOM     24  O   UNL     1       4.949   3.719  15.665  0.00  0.00    +0.000 OA
ENDBRANCH  19  22
BRANCH  21  25
ATOM     25  O   UNL     1       7.796   5.521  20.427  0.00  0.00    +0.000 OA
ATOM     26  H   UNL     1       7.160   5.877  21.072  0.00  0.00    +0.000 HD
ENDBRANCH  21  25
ENDBRANCH   4  16
TORSDOF 6
ENDMDL
MODEL 8
REMARK VINA RESULT:      -6.7      6.639      9.801
REMARK  Name = 
REMARK  7 active torsions:
REMARK  status: ('A' for Active; 'I' for Inactive)
REMARK    1  A    between atoms: C_1  and  C_2
REMARK    2  A    between atoms: C_2  and  C_3
REMARK    3  A    between atoms: C_3  and  C_4
REMARK    4  A    between atoms: C_7  and  N_8
REMARK    5  A    between atoms: N_11  and  C_12
REMARK    6  A    between atoms: C_15  and  N_16
REMARK    7  A    between atoms: C_20  and  O_21
REMARK                            x       y       z     vdW  Elec       q    Type
REMARK                         _______ _______ _______ _____ _____    ______ ____
ROOT
ATOM      1  N   UNL     1       1.441   7.389  21.134  0.00  0.00    +0.000 N 
ATOM      2  C   UNL     1       2.336   7.143  20.109  0.00  0.00    +0.000 C 
ATOM      3  O   UNL     1       2.711   7.977  19.293  0.00  0.00    +0.000 OA
ATOM      4  N   UNL     1       2.757   5.823  20.103  0.00  0.00    +0.000 N 
ATOM      5  H   UNL     1       1.550   6.811  21.956  0.00  0.00    +0.000 HD
ATOM      6  H   UNL     1       2.034   5.148  20.328  0.00  0.00    +0.000 HD
ENDROOT
BRANCH   1  10
ATOM      7  C   UNL     1      -0.815  10.951  21.489  0.00  0.00    +0.000 A 
ATOM      8  C   UNL     1      -0.336  10.311  22.635  0.00  0.00    +0.000 A 
ATOM      9  C   UNL     1       0.422   9.146  22.526  0.00  0.00    +0.000 A 
ATOM     10  C   UNL     1       0.705   8.587  21.276  0.00  0.00    +0.000 A 
ATOM     11  C   UNL     1       0.262   9.245  20.126  0.00  0.00    +0.000 A 
ATOM     12  C   UNL     1      -0.504  10.415  20.233  0.00  0.00    +0.000 A 
BRANCH   7  13
ATOM     13  C   UNL     1      -1.648  12.207  21.607  0.00  0.00    +0.000 C 
BRANCH  13  15
ATOM     14  C   UNL     1      -1.353  13.857  23.528  0.00  0.00    +0.000 C 
ATOM     15  C   UNL     1      -2.022  12.578  23.046  0.00  0.00    +0.000 C 
ENDBRANCH  13  15
ENDBRANCH   7  13
ENDBRANCH   1  10
BRANCH   4  16
ATOM     16  C   UNL     1       3.687   5.362  19.141  0.00  0.00    +0.000 A 
ATOM     17  C   UNL     1       5.068   5.410  19.367  0.00  0.00    +0.000 A 
ATOM     18  C   UNL     1       5.957   5.009  18.369  0.00  0.00    +0.000 A 
ATOM     19  C   UNL     1       5.455   4.564  17.138  0.00  0.00    +0.000 A 
ATOM     20  C   UNL     1       4.073   4.494  16.906  0.00  0.00    +0.000 A 
ATOM     21  C   UNL     1       3.200   4.873  17.923  0.00  0.00    +0.000 A 
BRANCH  19  22
ATOM     22  N   UNL     1       6.389   4.166  16.076  0.00  0.00    +0.000 N 
ATOM     23  O   UNL     1       5.959   3.437  15.170  0.00  0.00    +0.000 OA
ATOM     24  O   UNL     1       7.552   4.588  16.148  0.00  0.00    +0.000 OA
ENDBRANCH  19  22
BRANCH  21  25
ATOM     25  O   UNL     1       1.842   4.829  17.739  0.00  0.00    +0.000 OA
ATOM     26  H   UNL     1       1.439   4.343  18.480  0.00  0.00    +0.000 HD
ENDBRANCH  21  25
ENDBRANCH   4  16
TORSDOF 6
ENDMDL
MODEL 9
REMARK VINA RESULT:      -6.7      1.191      1.775
REMARK  Name = 
REMARK  7 active torsions:
REMARK  status: ('A' for Active; 'I' for Inactive)
REMARK    1  A    between atoms: C_1  and  C_2
REMARK    2  A    between atoms: C_2  and  C_3
REMARK    3  A    between atoms: C_3  and  C_4
REMARK    4  A    between atoms: C_7  and  N_8
REMARK    5  A    between atoms: N_11  and  C_12
REMARK    6  A    between atoms: C_15  and  N_16
REMARK    7  A    between atoms: C_20  and  O_21
REMARK                            x       y       z     vdW  Elec       q    Type
REMARK                         _______ _______ _______ _____ _____    ______ ____
ROOT
ATOM      1  N   UNL     1       8.285   7.577  18.902  0.00  0.00    +0.000 N 
ATOM      2  C   UNL     1       8.498   8.897  18.545  0.00  0.00    +0.000 C 
ATOM      3  O   UNL     1       7.988   9.450  17.577  0.00  0.00    +0.000 OA
ATOM      4  N   UNL     1       9.374   9.527  19.414  0.00  0.00    +0.000 N 
ATOM      5  H   UNL     1       8.373   7.372  19.887  0.00  0.00    +0.000 HD
ATOM      6  H   UNL     1      10.145   8.948  19.729  0.00  0.00    +0.000 HD
ENDROOT
BRANCH   1  10
ATOM      7  C   UNL     1       6.204   4.832  16.445  0.00  0.00    +0.000 A 
ATOM      8  C   UNL     1       7.214   4.380  17.297  0.00  0.00    +0.000 A 
ATOM      9  C   UNL     1       7.893   5.275  18.122  0.00  0.00    +0.000 A 
ATOM     10  C   UNL     1       7.592   6.640  18.104  0.00  0.00    +0.000 A 
ATOM     11  C   UNL     1       6.557   7.092  17.282  0.00  0.00    +0.000 A 
ATOM     12  C   UNL     1       5.874   6.194  16.448  0.00  0.00    +0.000 A 
BRANCH   7  13
ATOM     13  C   UNL     1       5.476   3.865  15.540  0.00  0.00    +0.000 C 
BRANCH  13  15
ATOM     14  C   UNL     1       6.290   3.673  13.132  0.00  0.00    +0.000 C 
ATOM     15  C   UNL     1       5.326   4.351  14.095  0.00  0.00    +0.000 C 
ENDBRANCH  13  15
ENDBRANCH   7  13
ENDBRANCH   1  10
BRANCH   4  16
ATOM     16  C   UNL     1       9.718  10.888  19.238  0.00  0.00    +0.000 A 
ATOM     17  C   UNL     1      10.063  11.407  17.984  0.00  0.00    +0.000 A 
ATOM     18  C   UNL     1      10.461  12.739  17.861  0.00  0.00    +0.000 A 
ATOM     19  C   UNL     1      10.516  13.549  19.003  0.00  0.00    +0.000 A 
ATOM     20  C   UNL     1      10.155  13.046  20.263  0.00  0.00    +0.000 A 
ATOM     21  C   UNL     1       9.735  11.722  20.363  0.00  0.00    +0.000 A 
BRANCH  19  22
ATOM     22  N   UNL     1      10.960  14.945  18.881  0.00  0.00    +0.000 N 
ATOM     23  O   UNL     1      11.007  15.440  17.746  0.00  0.00    +0.000 OA
ATOM     24  O   UNL     1      11.255  15.545  19.925  0.00  0.00    +0.000 OA
ENDBRANCH  19  22
BRANCH  21  25
ATOM     25  O   UNL     1       9.381  11.185  21.573  0.00  0.00    +0.000 OA
ATOM     26  H   UNL     1       9.211  10.234  21.459  0.00  0.00    +0.000 HD
ENDBRANCH  21  25
ENDBRANCH   4  16
TORSDOF 6
ENDMDL
