MODEL 1
REMARK VINA RESULT:      -7.5      0.000      0.000
REMARK  Name = 
REMARK  6 active torsions:
REMARK  status: ('A' for Active; 'I' for Inactive)
REMARK    1  A    between atoms: C_1  and  C_2
REMARK    2  A    between atoms: C_5  and  C_6
REMARK    3  A    between atoms: C_10  and  C_11
REMARK    4  A    between atoms: C_12  and  N_13
REMARK    5  A    between atoms: N_18  and  C_19
REMARK    6  A    between atoms: N_30  and  C_31
REMARK                            x       y       z     vdW  Elec       q    Type
REMARK                         _______ _______ _______ _____ _____    ______ ____
ROOT
ATOM      1  C   UNL     1      -4.372  12.414  20.097  0.00  0.00    +0.000 A 
ATOM      2  N   UNL     1      -5.553  12.009  20.715  0.00  0.00    +0.000 N 
ATOM      3  C   UNL     1      -5.692  12.624  21.932  0.00  0.00    +0.000 A 
ATOM      4  C   UNL     1      -4.598  13.414  22.145  0.00  0.00    +0.000 A 
ATOM      5  C   UNL     1      -3.755  13.269  21.018  0.00  0.00    +0.000 A 
ATOM      6  C   UNL     1      -4.493  14.191  23.349  0.00  0.00    +0.000 A 
ATOM      7  O   UNL     1      -3.547  14.920  23.622  0.00  0.00    +0.000 OA
ATOM      8  N   UNL     1      -5.567  14.028  24.199  0.00  0.00    +0.000 N 
ATOM      9  C   UNL     1      -6.675  13.234  24.009  0.00  0.00    +0.000 A 
ATOM     10  O   UNL     1      -7.545  13.205  24.882  0.00  0.00    +0.000 OA
ATOM     11  N   UNL     1      -6.750  12.493  22.816  0.00  0.00    +0.000 N 
ATOM     12  C   UNL     1      -7.911  11.661  22.568  0.00  0.00    +0.000 C 
ATOM     13  H   UNL     1      -6.203  11.341  20.324  0.00  0.00    +0.000 HD
ATOM     14  H   UNL     1      -5.541  14.548  25.059  0.00  0.00    +0.000 HD
ENDROOT
BRANCH   5  15
ATOM     15  C   UNL     1      -2.510  13.959  20.835  0.00  0.00    +0.000 A 
ATOM     16  C   UNL     1      -1.267  13.486  21.144  0.00  0.00    +0.000 A 
ATOM     17  N   UNL     1      -0.150  14.335  20.896  0.00  0.00    +0.000 N 
ATOM     18  C   UNL     1       1.237  13.905  21.015  0.00  0.00    +0.000 C 
ATOM     19  C   UNL     1      -0.278  15.643  20.436  0.00  0.00    +0.000 A 
ATOM     20  O   UNL     1       0.667  16.410  20.254  0.00  0.00    +0.000 OA
ATOM     21  N   UNL     1      -1.530  16.071  20.154  0.00  0.00    +0.000 N 
ATOM     22  C   UNL     1      -2.666  15.359  20.331  0.00  0.00    +0.000 A 
ATOM     23  O   UNL     1      -3.758  15.871  20.090  0.00  0.00    +0.000 OA
ATOM     24  H   UNL     1      -1.627  17.018  19.823  0.00  0.00    +0.000 HD
BRANCH  16  25
ATOM     25  N   UNL     1      -1.065  12.148  21.668  0.00  0.00    +0.000 N 
ATOM     26  C   UNL     1      -0.595  11.016  21.005  0.00  0.00    +0.000 A 
ATOM     27  C   UNL     1      -0.409   9.966  21.872  0.00  0.00    +0.000 A 
ATOM     28  C   UNL     1      -0.843  10.404  23.125  0.00  0.00    +0.000 A 
ATOM     29  C   UNL     1      -1.290  11.700  22.971  0.00  0.00    +0.000 A 
ENDBRANCH  16  25
ENDBRANCH   5  15
BRANCH   1  34
ATOM     30  C   UNL     1      -2.872  10.200  14.932  0.00  0.00    +0.000 C 
ATOM     31  C   UNL     1      -3.195  10.847  16.241  0.00  0.00    +0.000 A 
ATOM     32  C   UNL     1      -2.272  10.926  17.289  0.00  0.00    +0.000 A 
ATOM     33  C   UNL     1      -2.638  11.456  18.537  0.00  0.00    +0.000 A 
ATOM     34  C   UNL     1      -3.939  11.918  18.768  0.00  0.00    +0.000 A 
ATOM     35  C   UNL     1      -4.828  11.883  17.680  0.00  0.00    +0.000 A 
ATOM     36  C   UNL     1      -4.469  11.367  16.436  0.00  0.00    +0.000 A 
ENDBRANCH   1  34
TORSDOF 3
ENDMDL
MODEL 2
REMARK VINA RESULT:      -7.1      2.598      5.230
REMARK  Name = 
REMARK  6 active torsions:
REMARK  status: ('A' for Active; 'I' for Inactive)
REMARK    1  A    between atoms: C_1  and  C_2
REMARK    2  A    between atoms: C_5  and  C_6
REMARK    3  A    between atoms: C_10  and  C_11
REMARK    4  A    between atoms: C_12  and  N_13
REMARK    5  A    between atoms: N_18  and  C_19
REMARK    6  A    between atoms: N_30  and  C_31
REMARK                            x       y       z     vdW  Elec       q    Type
REMARK                         _______ _______ _______ _____ _____    ______ ____
ROOT
ATOM      1  C   UNL     1      -1.597  12.995  19.311  0.00  0.00    +0.000 A 
ATOM      2  N   UNL     1      -2.346  12.298  18.365  0.00  0.00    +0.000 N 
ATOM      3  C   UNL     1      -3.624  12.099  18.821  0.00  0.00    +0.000 A 
ATOM      4  C   UNL     1      -3.725  12.631  20.074  0.00  0.00    +0.000 A 
ATOM      5  C   UNL     1      -2.458  13.170  20.401  0.00  0.00    +0.000 A 
ATOM      6  C   UNL     1      -4.974  12.574  20.784  0.00  0.00    +0.000 A 
ATOM      7  O   UNL     1      -5.150  13.021  21.910  0.00  0.00    +0.000 OA
ATOM      8  N   UNL     1      -5.975  11.942  20.077  0.00  0.00    +0.000 N 
ATOM      9  C   UNL     1      -5.894  11.392  18.818  0.00  0.00    +0.000 A 
ATOM     10  O   UNL     1      -6.895  10.858  18.335  0.00  0.00    +0.000 OA
ATOM     11  N   UNL     1      -4.661  11.472  18.148  0.00  0.00    +0.000 N 
ATOM     12  C   UNL     1      -4.540  10.925  16.811  0.00  0.00    +0.000 C 
ATOM     13  H   UNL     1      -1.988  11.971  17.480  0.00  0.00    +0.000 HD
ATOM     14  H   UNL     1      -6.869  11.872  20.531  0.00  0.00    +0.000 HD
ENDROOT
BRANCH   5  15
ATOM     15  C   UNL     1      -2.150  13.850  21.626  0.00  0.00    +0.000 A 
ATOM     16  C   UNL     1      -2.324  15.179  21.882  0.00  0.00    +0.000 A 
ATOM     17  N   UNL     1      -1.943  15.667  23.165  0.00  0.00    +0.000 N 
ATOM     18  C   UNL     1      -2.226  17.016  23.637  0.00  0.00    +0.000 C 
ATOM     19  C   UNL     1      -1.328  14.870  24.128  0.00  0.00    +0.000 A 
ATOM     20  O   UNL     1      -0.951  15.277  25.227  0.00  0.00    +0.000 OA
ATOM     21  N   UNL     1      -1.167  13.562  23.825  0.00  0.00    +0.000 N 
ATOM     22  C   UNL     1      -1.499  12.977  22.652  0.00  0.00    +0.000 A 
ATOM     23  O   UNL     1      -1.255  11.786  22.467  0.00  0.00    +0.000 OA
ATOM     24  H   UNL     1      -0.720  12.983  24.518  0.00  0.00    +0.000 HD
BRANCH  16  25
ATOM     25  N   UNL     1      -2.918  16.076  20.908  0.00  0.00    +0.000 N 
ATOM     26  C   UNL     1      -4.267  16.297  20.638  0.00  0.00    +0.000 A 
ATOM     27  C   UNL     1      -4.440  17.324  19.742  0.00  0.00    +0.000 A 
ATOM     28  C   UNL     1      -3.162  17.733  19.357  0.00  0.00    +0.000 A 
ATOM     29  C   UNL     1      -2.259  16.931  20.024  0.00  0.00    +0.000 A 
ENDBRANCH  16  25
ENDBRANCH   5  15
BRANCH   1  34
ATOM     30  C   UNL     1       3.911  14.506  18.207  0.00  0.00    +0.000 C 
ATOM     31  C   UNL     1       2.524  14.092  18.585  0.00  0.00    +0.000 A 
ATOM     32  C   UNL     1       2.171  12.756  18.801  0.00  0.00    +0.000 A 
ATOM     33  C   UNL     1       0.839  12.393  19.063  0.00  0.00    +0.000 A 
ATOM     34  C   UNL     1      -0.172  13.359  19.110  0.00  0.00    +0.000 A 
ATOM     35  C   UNL     1       0.220  14.698  18.950  0.00  0.00    +0.000 A 
ATOM     36  C   UNL     1       1.540  15.067  18.700  0.00  0.00    +0.000 A 
ENDBRANCH   1  34
TORSDOF 3
ENDMDL
MODEL 3
REMARK VINA RESULT:      -6.9      3.500      6.137
REMARK  Name = 
REMARK  6 active torsions:
REMARK  status: ('A' for Active; 'I' for Inactive)
REMARK    1  A    between atoms: C_1  and  C_2
REMARK    2  A    between atoms: C_5  and  C_6
REMARK    3  A    between atoms: C_10  and  C_11
REMARK    4  A    between atoms: C_12  and  N_13
REMARK    5  A    between atoms: N_18  and  C_19
REMARK    6  A    between atoms: N_30  and  C_31
REMARK                            x       y       z     vdW  Elec       q    Type
REMARK                         _______ _______ _______ _____ _____    ______ ____
ROOT
ATOM      1  C   UNL     1      -1.283  13.335  19.262  0.00  0.00    +0.000 A 
ATOM      2  N   UNL     1      -1.036  14.632  18.818  0.00  0.00    +0.000 N 
ATOM      3  C   UNL     1       0.243  15.009  19.135  0.00  0.00    +0.000 A 
ATOM      4  C   UNL     1       0.842  13.986  19.812  0.00  0.00    +0.000 A 
ATOM      5  C   UNL     1      -0.111  12.945  19.921  0.00  0.00    +0.000 A 
ATOM      6  C   UNL     1       2.204  14.112  20.253  0.00  0.00    +0.000 A 
ATOM      7  O   UNL     1       2.814  13.247  20.870  0.00  0.00    +0.000 OA
ATOM      8  N   UNL     1       2.773  15.326  19.929  0.00  0.00    +0.000 N 
ATOM      9  C   UNL     1       2.187  16.373  19.255  0.00  0.00    +0.000 A 
ATOM     10  O   UNL     1       2.847  17.395  19.054  0.00  0.00    +0.000 OA
ATOM     11  N   UNL     1       0.857  16.214  18.830  0.00  0.00    +0.000 N 
ATOM     12  C   UNL     1       0.211  17.285  18.098  0.00  0.00    +0.000 C 
ATOM     13  H   UNL     1      -1.714  15.214  18.347  0.00  0.00    +0.000 HD
ATOM     14  H   UNL     1       3.725  15.466  20.219  0.00  0.00    +0.000 HD
ENDROOT
BRANCH   5  15
ATOM     15  C   UNL     1       0.132  11.676  20.541  0.00  0.00    +0.000 A 
ATOM     16  C   UNL     1      -0.269  11.291  21.788  0.00  0.00    +0.000 A 
ATOM     17  N   UNL     1       0.085   9.983  22.230  0.00  0.00    +0.000 N 
ATOM     18  C   UNL     1      -0.415   9.378  23.456  0.00  0.00    +0.000 C 
ATOM     19  C   UNL     1       0.887   9.122  21.484  0.00  0.00    +0.000 A 
ATOM     20  O   UNL     1       1.243   8.005  21.860  0.00  0.00    +0.000 OA
ATOM     21  N   UNL     1       1.270   9.551  20.260  0.00  0.00    +0.000 N 
ATOM     22  C   UNL     1       0.987  10.759  19.723  0.00  0.00    +0.000 A 
ATOM     23  O   UNL     1       1.436  11.064  18.619  0.00  0.00    +0.000 OA
ATOM     24  H   UNL     1       1.853   8.932  19.719  0.00  0.00    +0.000 HD
BRANCH  16  25
ATOM     25  N   UNL     1      -1.070  12.154  22.636  0.00  0.00    +0.000 N 
ATOM     26  C   UNL     1      -0.757  13.416  23.137  0.00  0.00    +0.000 A 
ATOM     27  C   UNL     1      -1.827  13.979  23.788  0.00  0.00    +0.000 A 
ATOM     28  C   UNL     1      -2.845  13.023  23.778  0.00  0.00    +0.000 A 
ATOM     29  C   UNL     1      -2.351  11.909  23.132  0.00  0.00    +0.000 A 
ENDBRANCH  16  25
ENDBRANCH   5  15
BRANCH   1  34
ATOM     30  C   UNL     1      -6.423  10.812  18.232  0.00  0.00    +0.000 C 
ATOM     31  C   UNL     1      -5.094  11.405  18.581  0.00  0.00    +0.000 A 
ATOM     32  C   UNL     1      -4.922  12.278  19.660  0.00  0.00    +0.000 A 
ATOM     33  C   UNL     1      -3.681  12.891  19.904  0.00  0.00    +0.000 A 
ATOM     34  C   UNL     1      -2.584  12.646  19.071  0.00  0.00    +0.000 A 
ATOM     35  C   UNL     1      -2.769  11.717  18.032  0.00  0.00    +0.000 A 
ATOM     36  C   UNL     1      -3.994  11.099  17.790  0.00  0.00    +0.000 A 
ENDBRANCH   1  34
TORSDOF 3
ENDMDL
MODEL 4
REMARK VINA RESULT:      -6.8      2.918      7.399
REMARK  Name = 
REMARK  6 active torsions:
REMARK  status: ('A' for Active; 'I' for Inactive)
REMARK    1  A    between atoms: C_1  and  C_2
REMARK    2  A    between atoms: C_5  and  C_6
REMARK    3  A    between atoms: C_10  and  C_11
REMARK    4  A    between atoms: C_12  and  N_13
REMARK    5  A    between atoms: N_18  and  C_19
REMARK    6  A    between atoms: N_30  and  C_31
REMARK                            x       y       z     vdW  Elec       q    Type
REMARK                         _______ _______ _______ _____ _____    ______ ____
ROOT
ATOM      1  C   UNL     1      -2.186  14.322  22.064  0.00  0.00    +0.000 A 
ATOM      2  N   UNL     1      -1.287  13.933  21.074  0.00  0.00    +0.000 N 
ATOM      3  C   UNL     1      -1.924  13.180  20.120  0.00  0.00    +0.000 A 
ATOM      4  C   UNL     1      -3.233  13.040  20.482  0.00  0.00    +0.000 A 
ATOM      5  C   UNL     1      -3.402  13.726  21.709  0.00  0.00    +0.000 A 
ATOM      6  C   UNL     1      -4.138  12.302  19.645  0.00  0.00    +0.000 A 
ATOM      7  O   UNL     1      -5.324  12.123  19.896  0.00  0.00    +0.000 OA
ATOM      8  N   UNL     1      -3.538  11.786  18.515  0.00  0.00    +0.000 N 
ATOM      9  C   UNL     1      -2.222  11.909  18.134  0.00  0.00    +0.000 A 
ATOM     10  O   UNL     1      -1.853  11.375  17.085  0.00  0.00    +0.000 OA
ATOM     11  N   UNL     1      -1.365  12.644  18.972  0.00  0.00    +0.000 N 
ATOM     12  C   UNL     1       0.024  12.815  18.595  0.00  0.00    +0.000 C 
ATOM     13  H   UNL     1      -0.303  14.160  21.073  0.00  0.00    +0.000 HD
ATOM     14  H   UNL     1      -4.128  11.257  17.896  0.00  0.00    +0.000 HD
ENDROOT
BRANCH   5  15
ATOM     15  C   UNL     1      -4.644  13.844  22.415  0.00  0.00    +0.000 A 
ATOM     16  C   UNL     1      -5.588  14.815  22.241  0.00  0.00    +0.000 A 
ATOM     17  N   UNL     1      -6.757  14.764  23.054  0.00  0.00    +0.000 N 
ATOM     18  C   UNL     1      -7.916  15.625  22.863  0.00  0.00    +0.000 C 
ATOM     19  C   UNL     1      -6.936  13.825  24.066  0.00  0.00    +0.000 A 
ATOM     20  O   UNL     1      -7.916  13.785  24.810  0.00  0.00    +0.000 OA
ATOM     21  N   UNL     1      -5.969  12.890  24.209  0.00  0.00    +0.000 N 
ATOM     22  C   UNL     1      -4.825  12.822  23.492  0.00  0.00    +0.000 A 
ATOM     23  O   UNL     1      -3.989  11.956  23.747  0.00  0.00    +0.000 OA
ATOM     24  H   UNL     1      -6.094  12.210  24.942  0.00  0.00    +0.000 HD
BRANCH  16  25
ATOM     25  N   UNL     1      -5.446  15.850  21.233  0.00  0.00    +0.000 N 
ATOM     26  C   UNL     1      -5.870  15.837  19.906  0.00  0.00    +0.000 A 
ATOM     27  C   UNL     1      -5.678  17.056  19.303  0.00  0.00    +0.000 A 
ATOM     28  C   UNL     1      -5.038  17.867  20.244  0.00  0.00    +0.000 A 
ATOM     29  C   UNL     1      -4.852  17.105  21.379  0.00  0.00    +0.000 A 
ENDBRANCH  16  25
ENDBRANCH   5  15
BRANCH   1  34
ATOM     30  C   UNL     1      -0.982  17.558  26.746  0.00  0.00    +0.000 C 
ATOM     31  C   UNL     1      -1.192  16.726  25.520  0.00  0.00    +0.000 A 
ATOM     32  C   UNL     1      -1.034  17.238  24.228  0.00  0.00    +0.000 A 
ATOM     33  C   UNL     1      -1.330  16.456  23.099  0.00  0.00    +0.000 A 
ATOM     34  C   UNL     1      -1.796  15.144  23.237  0.00  0.00    +0.000 A 
ATOM     35  C   UNL     1      -1.887  14.635  24.544  0.00  0.00    +0.000 A 
ATOM     36  C   UNL     1      -1.585  15.401  25.668  0.00  0.00    +0.000 A 
ENDBRANCH   1  34
TORSDOF 3
ENDMDL
MODEL 5
REMARK VINA RESULT:      -6.8      2.614      4.582
REMARK  Name = 
REMARK  6 active torsions:
REMARK  status: ('A' for Active; 'I' for Inactive)
REMARK    1  A    between atoms: C_1  and  C_2
REMARK    2  A    between atoms: C_5  and  C_6
REMARK    3  A    between atoms: C_10  and  C_11
REMARK    4  A    between atoms: C_12  and  N_13
REMARK    5  A    between atoms: N_18  and  C_19
REMARK    6  A    between atoms: N_30  and  C_31
REMARK                            x       y       z     vdW  Elec       q    Type
REMARK                         _______ _______ _______ _____ _____    ______ ____
ROOT
ATOM      1  C   UNL     1      -4.251  14.198  22.208  0.00  0.00    +0.000 A 
ATOM      2  N   UNL     1      -4.826  15.353  22.733  0.00  0.00    +0.000 N 
ATOM      3  C   UNL     1      -3.958  15.969  23.597  0.00  0.00    +0.000 A 
ATOM      4  C   UNL     1      -2.820  15.218  23.676  0.00  0.00    +0.000 A 
ATOM      5  C   UNL     1      -3.002  14.096  22.834  0.00  0.00    +0.000 A 
ATOM      6  C   UNL     1      -1.729  15.647  24.508  0.00  0.00    +0.000 A 
ATOM      7  O   UNL     1      -0.677  15.034  24.640  0.00  0.00    +0.000 OA
ATOM      8  N   UNL     1      -1.982  16.829  25.173  0.00  0.00    +0.000 N 
ATOM      9  C   UNL     1      -3.122  17.597  25.114  0.00  0.00    +0.000 A 
ATOM     10  O   UNL     1      -3.179  18.631  25.784  0.00  0.00    +0.000 OA
ATOM     11  N   UNL     1      -4.167  17.153  24.285  0.00  0.00    +0.000 N 
ATOM     12  C   UNL     1      -5.376  17.945  24.178  0.00  0.00    +0.000 C 
ATOM     13  H   UNL     1      -5.758  15.676  22.518  0.00  0.00    +0.000 HD
ATOM     14  H   UNL     1      -1.251  17.171  25.772  0.00  0.00    +0.000 HD
ENDROOT
BRANCH   5  15
ATOM     15  C   UNL     1      -2.022  13.073  22.612  0.00  0.00    +0.000 A 
ATOM     16  C   UNL     1      -0.955  13.141  21.762  0.00  0.00    +0.000 A 
ATOM     17  N   UNL     1      -0.098  12.007  21.674  0.00  0.00    +0.000 N 
ATOM     18  C   UNL     1       1.164  11.998  20.948  0.00  0.00    +0.000 C 
ATOM     19  C   UNL     1      -0.348  10.813  22.347  0.00  0.00    +0.000 A 
ATOM     20  O   UNL     1       0.353   9.805  22.256  0.00  0.00    +0.000 OA
ATOM     21  N   UNL     1      -1.423  10.789  23.168  0.00  0.00    +0.000 N 
ATOM     22  C   UNL     1      -2.300  11.801  23.349  0.00  0.00    +0.000 A 
ATOM     23  O   UNL     1      -3.276  11.647  24.082  0.00  0.00    +0.000 OA
ATOM     24  H   UNL     1      -1.609   9.926  23.654  0.00  0.00    +0.000 HD
BRANCH  16  25
ATOM     25  N   UNL     1      -0.659  14.339  20.998  0.00  0.00    +0.000 N 
ATOM     26  C   UNL     1       0.119  15.435  21.364  0.00  0.00    +0.000 A 
ATOM     27  C   UNL     1       0.278  16.312  20.319  0.00  0.00    +0.000 A 
ATOM     28  C   UNL     1      -0.484  15.810  19.261  0.00  0.00    +0.000 A 
ATOM     29  C   UNL     1      -1.090  14.654  19.708  0.00  0.00    +0.000 A 
ENDBRANCH  16  25
ENDBRANCH   5  15
BRANCH   1  34
ATOM     30  C   UNL     1      -6.896  10.455  18.626  0.00  0.00    +0.000 C 
ATOM     31  C   UNL     1      -6.242  11.492  19.483  0.00  0.00    +0.000 A 
ATOM     32  C   UNL     1      -5.076  12.160  19.097  0.00  0.00    +0.000 A 
ATOM     33  C   UNL     1      -4.436  13.060  19.966  0.00  0.00    +0.000 A 
ATOM     34  C   UNL     1      -4.947  13.309  21.245  0.00  0.00    +0.000 A 
ATOM     35  C   UNL     1      -6.152  12.672  21.583  0.00  0.00    +0.000 A 
ATOM     36  C   UNL     1      -6.798  11.786  20.723  0.00  0.00    +0.000 A 
ENDBRANCH   1  34
TORSDOF 3
ENDMDL
MODEL 6
REMARK VINA RESULT:      -6.8      2.572      5.292
REMARK  Name = 
REMARK  6 active torsions:
REMARK  status: ('A' for Active; 'I' for Inactive)
REMARK    1  A    between atoms: C_1  and  C_2
REMARK    2  A    between atoms: C_5  and  C_6
REMARK    3  A    between atoms: C_10  and  C_11
REMARK    4  A    between atoms: C_12  and  N_13
REMARK    5  A    between atoms: N_18  and  C_19
REMARK    6  A    between atoms: N_30  and  C_31
REMARK                            x       y       z     vdW  Elec       q    Type
REMARK                         _______ _______ _______ _____ _____    ______ ____
ROOT
ATOM      1  C   UNL     1      -1.645  13.137  19.311  0.00  0.00    +0.000 A 
ATOM      2  N   UNL     1      -2.374  12.437  18.354  0.00  0.00    +0.000 N 
ATOM      3  C   UNL     1      -3.635  12.165  18.819  0.00  0.00    +0.000 A 
ATOM      4  C   UNL     1      -3.743  12.652  20.089  0.00  0.00    +0.000 A 
ATOM      5  C   UNL     1      -2.497  13.238  20.417  0.00  0.00    +0.000 A 
ATOM      6  C   UNL     1      -4.977  12.515  20.813  0.00  0.00    +0.000 A 
ATOM      7  O   UNL     1      -5.158  12.918  21.955  0.00  0.00    +0.000 OA
ATOM      8  N   UNL     1      -5.959  11.860  20.098  0.00  0.00    +0.000 N 
ATOM      9  C   UNL     1      -5.870  11.355  18.821  0.00  0.00    +0.000 A 
ATOM     10  O   UNL     1      -6.853  10.790  18.335  0.00  0.00    +0.000 OA
ATOM     11  N   UNL     1      -4.652  11.513  18.139  0.00  0.00    +0.000 N 
ATOM     12  C   UNL     1      -4.525  11.013  16.784  0.00  0.00    +0.000 C 
ATOM     13  H   UNL     1      -2.014  12.155  17.453  0.00  0.00    +0.000 HD
ATOM     14  H   UNL     1      -6.842  11.735  20.561  0.00  0.00    +0.000 HD
ENDROOT
BRANCH   5  15
ATOM     15  C   UNL     1      -2.204  13.893  21.659  0.00  0.00    +0.000 A 
ATOM     16  C   UNL     1      -2.457  15.198  21.969  0.00  0.00    +0.000 A 
ATOM     17  N   UNL     1      -2.077  15.664  23.260  0.00  0.00    +0.000 N 
ATOM     18  C   UNL     1      -2.436  16.973  23.789  0.00  0.00    +0.000 C 
ATOM     19  C   UNL     1      -1.387  14.876  24.178  0.00  0.00    +0.000 A 
ATOM     20  O   UNL     1      -1.009  15.266  25.283  0.00  0.00    +0.000 OA
ATOM     21  N   UNL     1      -1.148  13.593  23.823  0.00  0.00    +0.000 N 
ATOM     22  C   UNL     1      -1.471  13.029  22.637  0.00  0.00    +0.000 A 
ATOM     23  O   UNL     1      -1.155  11.864  22.402  0.00  0.00    +0.000 OA
ATOM     24  H   UNL     1      -0.647  13.020  24.483  0.00  0.00    +0.000 HD
BRANCH  16  25
ATOM     25  N   UNL     1      -3.134  16.088  21.043  0.00  0.00    +0.000 N 
ATOM     26  C   UNL     1      -2.578  17.001  20.150  0.00  0.00    +0.000 A 
ATOM     27  C   UNL     1      -3.536  17.563  19.342  0.00  0.00    +0.000 A 
ATOM     28  C   UNL     1      -4.764  17.057  19.773  0.00  0.00    +0.000 A 
ATOM     29  C   UNL     1      -4.509  16.216  20.837  0.00  0.00    +0.000 A 
ENDBRANCH  16  25
ENDBRANCH   5  15
BRANCH   1  34
ATOM     30  C   UNL     1       3.926  14.734  18.810  0.00  0.00    +0.000 C 
ATOM     31  C   UNL     1       2.478  14.360  18.846  0.00  0.00    +0.000 A 
ATOM     32  C   UNL     1       1.458  15.313  18.920  0.00  0.00    +0.000 A 
ATOM     33  C   UNL     1       0.113  14.926  19.046  0.00  0.00    +0.000 A 
ATOM     34  C   UNL     1      -0.241  13.573  19.104  0.00  0.00    +0.000 A 
ATOM     35  C   UNL     1       0.798  12.637  18.966  0.00  0.00    +0.000 A 
ATOM     36  C   UNL     1       2.132  13.014  18.831  0.00  0.00    +0.000 A 
ENDBRANCH   1  34
TORSDOF 3
ENDMDL
MODEL 7
REMARK VINA RESULT:      -6.7      2.620      6.615
REMARK  Name = 
REMARK  6 active torsions:
REMARK  status: ('A' for Active; 'I' for Inactive)
REMARK    1  A    between atoms: C_1  and  C_2
REMARK    2  A    between atoms: C_5  and  C_6
REMARK    3  A    between atoms: C_10  and  C_11
REMARK    4  A    between atoms: C_12  and  N_13
REMARK    5  A    between atoms: N_18  and  C_19
REMARK    6  A    between atoms: N_30  and  C_31
REMARK                            x       y       z     vdW  Elec       q    Type
REMARK                         _______ _______ _______ _____ _____    ______ ____
ROOT
ATOM      1  C   UNL     1       0.936  12.521  19.911  0.00  0.00    +0.000 A 
ATOM      2  N   UNL     1       2.070  13.329  19.868  0.00  0.00    +0.000 N 
ATOM      3  C   UNL     1       1.714  14.639  19.673  0.00  0.00    +0.000 A 
ATOM      4  C   UNL     1       0.356  14.707  19.556  0.00  0.00    +0.000 A 
ATOM      5  C   UNL     1      -0.139  13.386  19.677  0.00  0.00    +0.000 A 
ATOM      6  C   UNL     1      -0.289  15.976  19.359  0.00  0.00    +0.000 A 
ATOM      7  O   UNL     1      -1.499  16.126  19.239  0.00  0.00    +0.000 OA
ATOM      8  N   UNL     1       0.594  17.034  19.298  0.00  0.00    +0.000 N 
ATOM      9  C   UNL     1       1.965  16.988  19.406  0.00  0.00    +0.000 A 
ATOM     10  O   UNL     1       2.604  18.039  19.322  0.00  0.00    +0.000 OA
ATOM     11  N   UNL     1       2.564  15.732  19.606  0.00  0.00    +0.000 N 
ATOM     12  C   UNL     1       4.004  15.644  19.747  0.00  0.00    +0.000 C 
ATOM     13  H   UNL     1       3.017  12.991  19.951  0.00  0.00    +0.000 HD
ATOM     14  H   UNL     1       0.193  17.944  19.157  0.00  0.00    +0.000 HD
ENDROOT
BRANCH   5  15
ATOM     15  C   UNL     1      -1.527  13.026  19.639  0.00  0.00    +0.000 A 
ATOM     16  C   UNL     1      -2.432  13.175  20.650  0.00  0.00    +0.000 A 
ATOM     17  N   UNL     1      -3.769  12.742  20.419  0.00  0.00    +0.000 N 
ATOM     18  C   UNL     1      -4.873  12.992  21.335  0.00  0.00    +0.000 C 
ATOM     19  C   UNL     1      -4.167  12.103  19.247  0.00  0.00    +0.000 A 
ATOM     20  O   UNL     1      -5.305  11.682  19.038  0.00  0.00    +0.000 OA
ATOM     21  N   UNL     1      -3.233  11.968  18.278  0.00  0.00    +0.000 N 
ATOM     22  C   UNL     1      -1.940  12.350  18.370  0.00  0.00    +0.000 A 
ATOM     23  O   UNL     1      -1.163  12.127  17.442  0.00  0.00    +0.000 OA
ATOM     24  H   UNL     1      -3.517  11.504  17.429  0.00  0.00    +0.000 HD
BRANCH  16  25
ATOM     25  N   UNL     1      -2.074  13.793  21.914  0.00  0.00    +0.000 N 
ATOM     26  C   UNL     1      -1.387  13.237  22.991  0.00  0.00    +0.000 A 
ATOM     27  C   UNL     1      -1.117  14.178  23.956  0.00  0.00    +0.000 A 
ATOM     28  C   UNL     1      -1.714  15.366  23.528  0.00  0.00    +0.000 A 
ATOM     29  C   UNL     1      -2.336  15.101  22.326  0.00  0.00    +0.000 A 
ENDBRANCH  16  25
ENDBRANCH   5  15
BRANCH   1  34
ATOM     30  C   UNL     1       1.444   6.804  20.860  0.00  0.00    +0.000 C 
ATOM     31  C   UNL     1       1.231   8.254  20.560  0.00  0.00    +0.000 A 
ATOM     32  C   UNL     1       1.428   8.795  19.286  0.00  0.00    +0.000 A 
ATOM     33  C   UNL     1       1.310  10.177  19.060  0.00  0.00    +0.000 A 
ATOM     34  C   UNL     1       0.995  11.051  20.107  0.00  0.00    +0.000 A 
ATOM     35  C   UNL     1       0.742  10.473  21.363  0.00  0.00    +0.000 A 
ATOM     36  C   UNL     1       0.848   9.103  21.592  0.00  0.00    +0.000 A 
ENDBRANCH   1  34
TORSDOF 3
ENDMDL
MODEL 8
REMARK VINA RESULT:      -6.7      8.263     12.556
REMARK  Name = 
REMARK  6 active torsions:
REMARK  status: ('A' for Active; 'I' for Inactive)
REMARK    1  A    between atoms: C_1  and  C_2
REMARK    2  A    between atoms: C_5  and  C_6
REMARK    3  A    between atoms: C_10  and  C_11
REMARK    4  A    between atoms: C_12  and  N_13
REMARK    5  A    between atoms: N_18  and  C_19
REMARK    6  A    between atoms: N_30  and  C_31
REMARK                            x       y       z     vdW  Elec       q    Type
REMARK                         _______ _______ _______ _____ _____    ______ ____
ROOT
ATOM      1  C   UNL     1       7.419  15.672  21.293  0.00  0.00    +0.000 A 
ATOM      2  N   UNL     1       6.089  15.362  21.570  0.00  0.00    +0.000 N 
ATOM      3  C   UNL     1       5.431  15.008  20.421  0.00  0.00    +0.000 A 
ATOM      4  C   UNL     1       6.303  15.107  19.374  0.00  0.00    +0.000 A 
ATOM      5  C   UNL     1       7.540  15.547  19.903  0.00  0.00    +0.000 A 
ATOM      6  C   UNL     1       5.873  14.776  18.043  0.00  0.00    +0.000 A 
ATOM      7  O   UNL     1       6.587  14.842  17.050  0.00  0.00    +0.000 OA
ATOM      8  N   UNL     1       4.552  14.384  17.978  0.00  0.00    +0.000 N 
ATOM      9  C   UNL     1       3.655  14.283  19.016  0.00  0.00    +0.000 A 
ATOM     10  O   UNL     1       2.502  13.918  18.774  0.00  0.00    +0.000 OA
ATOM     11  N   UNL     1       4.110  14.607  20.307  0.00  0.00    +0.000 N 
ATOM     12  C   UNL     1       3.202  14.493  21.431  0.00  0.00    +0.000 C 
ATOM     13  H   UNL     1       5.670  15.411  22.488  0.00  0.00    +0.000 HD
ATOM     14  H   UNL     1       4.201  14.145  17.067  0.00  0.00    +0.000 HD
ENDROOT
BRANCH   5  15
ATOM     15  C   UNL     1       8.732  15.750  19.133  0.00  0.00    +0.000 A 
ATOM     16  C   UNL     1       9.760  14.865  18.979  0.00  0.00    +0.000 A 
ATOM     17  N   UNL     1      10.869  15.262  18.178  0.00  0.00    +0.000 N 
ATOM     18  C   UNL     1      11.949  14.367  17.787  0.00  0.00    +0.000 C 
ATOM     19  C   UNL     1      10.986  16.534  17.621  0.00  0.00    +0.000 A 
ATOM     20  O   UNL     1      11.952  16.916  16.961  0.00  0.00    +0.000 OA
ATOM     21  N   UNL     1       9.948  17.380  17.810  0.00  0.00    +0.000 N 
ATOM     22  C   UNL     1       8.837  17.117  18.534  0.00  0.00    +0.000 A 
ATOM     23  O   UNL     1       7.979  17.986  18.684  0.00  0.00    +0.000 OA
ATOM     24  H   UNL     1      10.030  18.302  17.411  0.00  0.00    +0.000 HD
BRANCH  16  25
ATOM     25  N   UNL     1       9.723  13.538  19.567  0.00  0.00    +0.000 N 
ATOM     26  C   UNL     1       9.218  12.359  19.023  0.00  0.00    +0.000 A 
ATOM     27  C   UNL     1       9.489  11.278  19.826  0.00  0.00    +0.000 A 
ATOM     28  C   UNL     1      10.123  11.779  20.965  0.00  0.00    +0.000 A 
ATOM     29  C   UNL     1      10.202  13.149  20.819  0.00  0.00    +0.000 A 
ENDBRANCH  16  25
ENDBRANCH   5  15
BRANCH   1  34
ATOM     30  C   UNL     1      11.463  17.303  25.143  0.00  0.00    +0.000 C 
ATOM     31  C   UNL     1      10.353  16.894  24.226  0.00  0.00    +0.000 A 
ATOM     32  C   UNL     1       9.685  15.672  24.355  0.00  0.00    +0.000 A 
ATOM     33  C   UNL     1       8.712  15.278  23.421  0.00  0.00    +0.000 A 
ATOM     34  C   UNL     1       8.388  16.096  22.333  0.00  0.00    +0.000 A 
ATOM     35  C   UNL     1       9.031  17.344  22.263  0.00  0.00    +0.000 A 
ATOM     36  C   UNL     1       9.989  17.746  23.191  0.00  0.00    +0.000 A 
ENDBRANCH   1  34
TORSDOF 3
ENDMDL
MODEL 9
REMARK VINA RESULT:      -6.7      3.076      5.944
REMARK  Name = 
REMARK  6 active torsions:
REMARK  status: ('A' for Active; 'I' for Inactive)
REMARK    1  A    between atoms: C_1  and  C_2
REMARK    2  A    between atoms: C_5  and  C_6
REMARK    3  A    between atoms: C_10  and  C_11
REMARK    4  A    between atoms: C_12  and  N_13
REMARK    5  A    between atoms: N_18  and  C_19
REMARK    6  A    between atoms: N_30  and  C_31
REMARK                            x       y       z     vdW  Elec       q    Type
REMARK                         _______ _______ _______ _____ _____    ______ ____
ROOT
ATOM      1  C   UNL     1       0.202  13.814  19.998  0.00  0.00    +0.000 A 
ATOM      2  N   UNL     1       0.582  12.568  19.504  0.00  0.00    +0.000 N 
ATOM      3  C   UNL     1       0.274  11.582  20.406  0.00  0.00    +0.000 A 
ATOM      4  C   UNL     1      -0.282  12.163  21.510  0.00  0.00    +0.000 A 
ATOM      5  C   UNL     1      -0.307  13.559  21.277  0.00  0.00    +0.000 A 
ATOM      6  C   UNL     1      -0.715  11.350  22.612  0.00  0.00    +0.000 A 
ATOM      7  O   UNL     1      -1.218  11.788  23.640  0.00  0.00    +0.000 OA
ATOM      8  N   UNL     1      -0.495  10.002  22.416  0.00  0.00    +0.000 N 
ATOM      9  C   UNL     1       0.069   9.396  21.317  0.00  0.00    +0.000 A 
ATOM     10  O   UNL     1       0.194   8.169  21.312  0.00  0.00    +0.000 OA
ATOM     11  N   UNL     1       0.474  10.220  20.253  0.00  0.00    +0.000 N 
ATOM     12  C   UNL     1       1.053   9.618  19.068  0.00  0.00    +0.000 C 
ATOM     13  H   UNL     1       1.037  12.420  18.615  0.00  0.00    +0.000 HD
ATOM     14  H   UNL     1      -0.778   9.389  23.161  0.00  0.00    +0.000 HD
ENDROOT
BRANCH   5  15
ATOM     15  C   UNL     1      -0.845  14.530  22.186  0.00  0.00    +0.000 A 
ATOM     16  C   UNL     1      -2.166  14.799  22.399  0.00  0.00    +0.000 A 
ATOM     17  N   UNL     1      -2.497  15.815  23.341  0.00  0.00    +0.000 N 
ATOM     18  C   UNL     1      -3.853  16.090  23.795  0.00  0.00    +0.000 C 
ATOM     19  C   UNL     1      -1.538  16.595  23.984  0.00  0.00    +0.000 A 
ATOM     20  O   UNL     1      -1.798  17.506  24.770  0.00  0.00    +0.000 OA
ATOM     21  N   UNL     1      -0.243  16.299  23.733  0.00  0.00    +0.000 N 
ATOM     22  C   UNL     1       0.198  15.352  22.875  0.00  0.00    +0.000 A 
ATOM     23  O   UNL     1       1.405  15.207  22.684  0.00  0.00    +0.000 OA
ATOM     24  H   UNL     1       0.454  16.863  24.194  0.00  0.00    +0.000 HD
BRANCH  16  25
ATOM     25  N   UNL     1      -3.217  14.054  21.731  0.00  0.00    +0.000 N 
ATOM     26  C   UNL     1      -3.926  12.946  22.190  0.00  0.00    +0.000 A 
ATOM     27  C   UNL     1      -4.940  12.604  21.329  0.00  0.00    +0.000 A 
ATOM     28  C   UNL     1      -4.841  13.468  20.237  0.00  0.00    +0.000 A 
ATOM     29  C   UNL     1      -3.761  14.295  20.468  0.00  0.00    +0.000 A 
ENDBRANCH  16  25
ENDBRANCH   5  15
BRANCH   1  34
ATOM     30  C   UNL     1       0.871  18.631  16.806  0.00  0.00    +0.000 C 
ATOM     31  C   UNL     1       0.743  17.441  17.704  0.00  0.00    +0.000 A 
ATOM     32  C   UNL     1       1.847  16.690  18.119  0.00  0.00    +0.000 A 
ATOM     33  C   UNL     1       1.683  15.524  18.885  0.00  0.00    +0.000 A 
ATOM     34  C   UNL     1       0.408  15.080  19.252  0.00  0.00    +0.000 A 
ATOM     35  C   UNL     1      -0.679  15.887  18.874  0.00  0.00    +0.000 A 
ATOM     36  C   UNL     1      -0.523  17.050  18.122  0.00  0.00    +0.000 A 
ENDBRANCH   1  34
TORSDOF 3
ENDMDL
