MODEL 1
REMARK VINA RESULT:      -7.3      0.000      0.000
REMARK  Name = 
REMARK  12 active torsions:
REMARK  status: ('A' for Active; 'I' for Inactive)
REMARK    1  A    between atoms: C_1  and  C_2
REMARK    2  A    between atoms: C_2  and  C_3
REMARK    3  A    between atoms: C_3  and  N_4
REMARK    4  A    between atoms: C_8  and  C_9
REMARK    5  A    between atoms: C_10  and  N_11
REMARK    6  A    between atoms: N_11  and  C_12
REMARK    7  A    between atoms: C_12  and  C_13
REMARK    8  A    between atoms: C_13  and  C_14
REMARK    9  A    between atoms: C_14  and  O_15
REMARK   10  A    between atoms: O_15  and  C_16
REMARK   11  A    between atoms: C_16  and  C_17
REMARK   12  A    between atoms: C_20  and  C_21
REMARK                            x       y       z     vdW  Elec       q    Type
REMARK                         _______ _______ _______ _____ _____    ______ ____
ROOT
ATOM      1  C   UNL     1       2.212   6.960  18.983  0.00  0.00    +0.000 A 
ATOM      2  C   UNL     1       1.862   6.680  20.262  0.00  0.00    +0.000 A 
ATOM      3  N   UNL     1       1.274   7.623  21.068  0.00  0.00    +0.000 NA
ATOM      4  C   UNL     1       1.023   8.809  20.604  0.00  0.00    +0.000 A 
ATOM      5  C   UNL     1       0.353   9.837  21.479  0.00  0.00    +0.000 A 
ATOM      6  C   UNL     1       0.091   9.523  22.918  0.00  0.00    +0.000 C 
ATOM      7  C   UNL     1       0.028  11.028  20.951  0.00  0.00    +0.000 A 
ATOM      8  C   UNL     1       0.346  11.355  19.589  0.00  0.00    +0.000 A 
ATOM      9  C   UNL     1       1.003  10.472  18.836  0.00  0.00    +0.000 A 
ATOM     10  N   UNL     1       1.345   9.213  19.315  0.00  0.00    +0.000 N 
ATOM     11  C   UNL     1       2.024   8.348  18.479  0.00  0.00    +0.000 A 
ATOM     12  O   UNL     1       2.463   8.654  17.366  0.00  0.00    +0.000 OA
ENDROOT
BRANCH   1  17
ATOM     13  N   UNL     1       5.895   4.619  17.046  0.00  0.00    +0.000 N 
ATOM     14  C   UNL     1       4.515   4.679  16.955  0.00  0.00    +0.000 C 
ATOM     15  O   UNL     1       3.824   4.205  16.064  0.00  0.00    +0.000 OA
ATOM     16  C   UNL     1       3.975   5.478  18.082  0.00  0.00    +0.000 C 
ATOM     17  C   UNL     1       2.745   5.990  18.041  0.00  0.00    +0.000 C 
ATOM     18  S   UNL     1       5.209   5.751  19.246  0.00  0.00    +0.000 S 
ATOM     19  C   UNL     1       6.469   5.195  18.161  0.00  0.00    +0.000 C 
ATOM     20  S   UNL     1       8.089   5.383  18.512  0.00  0.00    +0.000 S 
BRANCH  13  21
ATOM     21  C   UNL     1       6.633   3.898  16.016  0.00  0.00    +0.000 C 
BRANCH  21  23
ATOM     22  C   UNL     1       6.330   4.031  13.521  0.00  0.00    +0.000 C 
ATOM     23  C   UNL     1       6.781   4.765  14.768  0.00  0.00    +0.000 C 
ENDBRANCH  21  23
ENDBRANCH  13  21
ENDBRANCH   1  17
BRANCH   2  24
ATOM     24  N   UNL     1       2.045   5.413  20.836  0.00  0.00    +0.000 N 
ATOM     25  H   UNL     1       3.035   5.183  20.789  0.00  0.00    +0.000 HD
BRANCH  24  26
ATOM     26  C   UNL     1       1.158   4.288  20.552  0.00  0.00    +0.000 C 
BRANCH  26  27
ATOM     27  C   UNL     1       1.305   3.132  21.539  0.00  0.00    +0.000 C 
BRANCH  27  28
ATOM     28  C   UNL     1       2.375   2.183  20.993  0.00  0.00    +0.000 C 
BRANCH  28  29
ATOM     29  O   UNL     1       3.543   2.882  20.566  0.00  0.00    +0.000 OA
BRANCH  29  30
ATOM     30  C   UNL     1       4.238   2.113  19.577  0.00  0.00    +0.000 C 
ATOM     31  C   UNL     1       3.268   1.636  18.515  0.00  0.00    +0.000 C 
ENDBRANCH  29  30
ENDBRANCH  28  29
ENDBRANCH  27  28
ENDBRANCH  26  27
ENDBRANCH  24  26
ENDBRANCH   2  24
TORSDOF 9
ENDMDL
MODEL 2
REMARK VINA RESULT:      -5.9      0.980      1.040
REMARK  Name = 
REMARK  12 active torsions:
REMARK  status: ('A' for Active; 'I' for Inactive)
REMARK    1  A    between atoms: C_1  and  C_2
REMARK    2  A    between atoms: C_2  and  C_3
REMARK    3  A    between atoms: C_3  and  N_4
REMARK    4  A    between atoms: C_8  and  C_9
REMARK    5  A    between atoms: C_10  and  N_11
REMARK    6  A    between atoms: N_11  and  C_12
REMARK    7  A    between atoms: C_12  and  C_13
REMARK    8  A    between atoms: C_13  and  C_14
REMARK    9  A    between atoms: C_14  and  O_15
REMARK   10  A    between atoms: O_15  and  C_16
REMARK   11  A    between atoms: C_16  and  C_17
REMARK   12  A    between atoms: C_20  and  C_21
REMARK                            x       y       z     vdW  Elec       q    Type
REMARK                         _______ _______ _______ _____ _____    ______ ____
ROOT
ATOM      1  C   UNL     1       2.309   7.889  18.746  0.00  0.00    +0.000 A 
ATOM      2  C   UNL     1       2.046   7.307  19.942  0.00  0.00    +0.000 A 
ATOM      3  N   UNL     1       1.299   7.946  20.900  0.00  0.00    +0.000 NA
ATOM      4  C   UNL     1       0.810   9.125  20.665  0.00  0.00    +0.000 A 
ATOM      5  C   UNL     1      -0.033   9.815  21.707  0.00  0.00    +0.000 A 
ATOM      6  C   UNL     1      -0.199   9.189  23.055  0.00  0.00    +0.000 C 
ATOM      7  C   UNL     1      -0.596  10.997  21.409  0.00  0.00    +0.000 A 
ATOM      8  C   UNL     1      -0.376  11.632  20.140  0.00  0.00    +0.000 A 
ATOM      9  C   UNL     1       0.428  11.055  19.245  0.00  0.00    +0.000 A 
ATOM     10  N   UNL     1       1.021   9.821  19.482  0.00  0.00    +0.000 N 
ATOM     11  C   UNL     1       1.841   9.282  18.511  0.00  0.00    +0.000 A 
ATOM     12  O   UNL     1       2.189   9.874  17.484  0.00  0.00    +0.000 OA
ENDROOT
BRANCH   1  17
ATOM     13  N   UNL     1       6.175   5.738  16.949  0.00  0.00    +0.000 N 
ATOM     14  C   UNL     1       4.891   6.092  16.572  0.00  0.00    +0.000 C 
ATOM     15  O   UNL     1       4.448   6.114  15.432  0.00  0.00    +0.000 OA
ATOM     16  C   UNL     1       4.120   6.520  17.765  0.00  0.00    +0.000 C 
ATOM     17  C   UNL     1       3.004   7.240  17.646  0.00  0.00    +0.000 C 
ATOM     18  S   UNL     1       4.984   6.111  19.194  0.00  0.00    +0.000 S 
ATOM     19  C   UNL     1       6.450   5.751  18.302  0.00  0.00    +0.000 C 
ATOM     20  S   UNL     1       7.909   5.484  19.064  0.00  0.00    +0.000 S 
BRANCH  13  21
ATOM     21  C   UNL     1       7.113   5.308  15.920  0.00  0.00    +0.000 C 
BRANCH  21  23
ATOM     22  C   UNL     1       6.404   3.925  13.940  0.00  0.00    +0.000 C 
ATOM     23  C   UNL     1       6.743   3.915  15.417  0.00  0.00    +0.000 C 
ENDBRANCH  21  23
ENDBRANCH  13  21
ENDBRANCH   1  17
BRANCH   2  24
ATOM     24  N   UNL     1       2.487   6.016  20.267  0.00  0.00    +0.000 N 
ATOM     25  H   UNL     1       2.994   5.642  19.468  0.00  0.00    +0.000 HD
BRANCH  24  26
ATOM     26  C   UNL     1       1.631   5.041  20.938  0.00  0.00    +0.000 C 
BRANCH  26  27
ATOM     27  C   UNL     1       0.977   4.045  19.982  0.00  0.00    +0.000 C 
BRANCH  27  28
ATOM     28  C   UNL     1       2.090   3.207  19.348  0.00  0.00    +0.000 C 
BRANCH  28  29
ATOM     29  O   UNL     1       3.238   3.115  20.189  0.00  0.00    +0.000 OA
BRANCH  29  30
ATOM     30  C   UNL     1       4.207   2.240  19.600  0.00  0.00    +0.000 C 
ATOM     31  C   UNL     1       3.585   1.475  18.450  0.00  0.00    +0.000 C 
ENDBRANCH  29  30
ENDBRANCH  28  29
ENDBRANCH  27  28
ENDBRANCH  26  27
ENDBRANCH  24  26
ENDBRANCH   2  24
TORSDOF 9
ENDMDL
MODEL 3
REMARK VINA RESULT:      -5.8      3.369      8.624
REMARK  Name = 
REMARK  12 active torsions:
REMARK  status: ('A' for Active; 'I' for Inactive)
REMARK    1  A    between atoms: C_1  and  C_2
REMARK    2  A    between atoms: C_2  and  C_3
REMARK    3  A    between atoms: C_3  and  N_4
REMARK    4  A    between atoms: C_8  and  C_9
REMARK    5  A    between atoms: C_10  and  N_11
REMARK    6  A    between atoms: N_11  and  C_12
REMARK    7  A    between atoms: C_12  and  C_13
REMARK    8  A    between atoms: C_13  and  C_14
REMARK    9  A    between atoms: C_14  and  O_15
REMARK   10  A    between atoms: O_15  and  C_16
REMARK   11  A    between atoms: C_16  and  C_17
REMARK   12  A    between atoms: C_20  and  C_21
REMARK                            x       y       z     vdW  Elec       q    Type
REMARK                         _______ _______ _______ _____ _____    ______ ____
ROOT
ATOM      1  C   UNL     1       5.467   5.090  16.968  0.00  0.00    +0.000 A 
ATOM      2  C   UNL     1       6.562   5.875  16.820  0.00  0.00    +0.000 A 
ATOM      3  N   UNL     1       7.292   5.876  15.657  0.00  0.00    +0.000 NA
ATOM      4  C   UNL     1       6.928   5.127  14.662  0.00  0.00    +0.000 A 
ATOM      5  C   UNL     1       7.713   5.147  13.375  0.00  0.00    +0.000 A 
ATOM      6  C   UNL     1       8.980   5.938  13.296  0.00  0.00    +0.000 C 
ATOM      7  C   UNL     1       7.269   4.428  12.331  0.00  0.00    +0.000 A 
ATOM      8  C   UNL     1       6.093   3.611  12.431  0.00  0.00    +0.000 A 
ATOM      9  C   UNL     1       5.438   3.538  13.592  0.00  0.00    +0.000 A 
ATOM     10  N   UNL     1       5.831   4.276  14.701  0.00  0.00    +0.000 N 
ATOM     11  C   UNL     1       5.107   4.152  15.871  0.00  0.00    +0.000 A 
ATOM     12  O   UNL     1       4.197   3.335  16.044  0.00  0.00    +0.000 OA
ENDROOT
BRANCH   1  17
ATOM     13  N   UNL     1       2.181   7.252  19.675  0.00  0.00    +0.000 N 
ATOM     14  C   UNL     1       2.881   6.060  19.614  0.00  0.00    +0.000 C 
ATOM     15  O   UNL     1       2.979   5.227  20.504  0.00  0.00    +0.000 OA
ATOM     16  C   UNL     1       3.576   5.956  18.307  0.00  0.00    +0.000 C 
ATOM     17  C   UNL     1       4.588   5.108  18.126  0.00  0.00    +0.000 C 
ATOM     18  S   UNL     1       2.999   7.177  17.243  0.00  0.00    +0.000 S 
ATOM     19  C   UNL     1       2.177   8.030  18.535  0.00  0.00    +0.000 C 
ATOM     20  S   UNL     1       1.526   9.550  18.321  0.00  0.00    +0.000 S 
BRANCH  13  21
ATOM     21  C   UNL     1       1.443   7.567  20.892  0.00  0.00    +0.000 C 
BRANCH  21  23
ATOM     22  C   UNL     1       0.684   9.578  22.202  0.00  0.00    +0.000 C 
ATOM     23  C   UNL     1       1.801   8.970  21.379  0.00  0.00    +0.000 C 
ENDBRANCH  21  23
ENDBRANCH  13  21
ENDBRANCH   1  17
BRANCH   2  24
ATOM     24  N   UNL     1       7.002   6.756  17.820  0.00  0.00    +0.000 N 
ATOM     25  H   UNL     1       6.270   6.828  18.524  0.00  0.00    +0.000 HD
BRANCH  24  26
ATOM     26  C   UNL     1       7.663   8.021  17.515  0.00  0.00    +0.000 C 
BRANCH  26  27
ATOM     27  C   UNL     1       8.565   8.524  18.641  0.00  0.00    +0.000 C 
BRANCH  27  28
ATOM     28  C   UNL     1       8.858  10.003  18.381  0.00  0.00    +0.000 C 
BRANCH  28  29
ATOM     29  O   UNL     1       9.658  10.580  19.411  0.00  0.00    +0.000 OA
BRANCH  29  30
ATOM     30  C   UNL     1      10.690  11.388  18.833  0.00  0.00    +0.000 C 
ATOM     31  C   UNL     1      11.509  12.045  19.925  0.00  0.00    +0.000 C 
ENDBRANCH  29  30
ENDBRANCH  28  29
ENDBRANCH  27  28
ENDBRANCH  26  27
ENDBRANCH  24  26
ENDBRANCH   2  24
TORSDOF 9
ENDMDL
MODEL 4
REMARK VINA RESULT:      -5.8      1.119      1.261
REMARK  Name = 
REMARK  12 active torsions:
REMARK  status: ('A' for Active; 'I' for Inactive)
REMARK    1  A    between atoms: C_1  and  C_2
REMARK    2  A    between atoms: C_2  and  C_3
REMARK    3  A    between atoms: C_3  and  N_4
REMARK    4  A    between atoms: C_8  and  C_9
REMARK    5  A    between atoms: C_10  and  N_11
REMARK    6  A    between atoms: N_11  and  C_12
REMARK    7  A    between atoms: C_12  and  C_13
REMARK    8  A    between atoms: C_13  and  C_14
REMARK    9  A    between atoms: C_14  and  O_15
REMARK   10  A    between atoms: O_15  and  C_16
REMARK   11  A    between atoms: C_16  and  C_17
REMARK   12  A    between atoms: C_20  and  C_21
REMARK                            x       y       z     vdW  Elec       q    Type
REMARK                         _______ _______ _______ _____ _____    ______ ____
ROOT
ATOM      1  C   UNL     1       1.947   6.724  19.158  0.00  0.00    +0.000 A 
ATOM      2  C   UNL     1       1.453   6.429  20.385  0.00  0.00    +0.000 A 
ATOM      3  N   UNL     1       1.005   7.413  21.233  0.00  0.00    +0.000 NA
ATOM      4  C   UNL     1       1.032   8.655  20.858  0.00  0.00    +0.000 A 
ATOM      5  C   UNL     1       0.515   9.732  21.777  0.00  0.00    +0.000 A 
ATOM      6  C   UNL     1       0.089   9.376  23.165  0.00  0.00    +0.000 C 
ATOM      7  C   UNL     1       0.475  11.000  21.335  0.00  0.00    +0.000 A 
ATOM      8  C   UNL     1       0.953  11.352  20.027  0.00  0.00    +0.000 A 
ATOM      9  C   UNL     1       1.476  10.409  19.241  0.00  0.00    +0.000 A 
ATOM     10  N   UNL     1       1.524   9.076  19.629  0.00  0.00    +0.000 N 
ATOM     11  C   UNL     1       2.078   8.153  18.765  0.00  0.00    +0.000 A 
ATOM     12  O   UNL     1       2.651   8.442  17.710  0.00  0.00    +0.000 OA
ENDROOT
BRANCH   1  17
ATOM     13  N   UNL     1       5.329   4.319  16.796  0.00  0.00    +0.000 N 
ATOM     14  C   UNL     1       3.949   4.391  16.884  0.00  0.00    +0.000 C 
ATOM     15  O   UNL     1       3.145   3.912  16.097  0.00  0.00    +0.000 OA
ATOM     16  C   UNL     1       3.566   5.211  18.059  0.00  0.00    +0.000 C 
ATOM     17  C   UNL     1       2.345   5.735  18.169  0.00  0.00    +0.000 C 
ATOM     18  S   UNL     1       4.943   5.488  19.049  0.00  0.00    +0.000 S 
ATOM     19  C   UNL     1       6.048   4.904  17.819  0.00  0.00    +0.000 C 
ATOM     20  S   UNL     1       7.700   5.081  17.954  0.00  0.00    +0.000 S 
BRANCH  13  21
ATOM     21  C   UNL     1       5.921   3.576  15.690  0.00  0.00    +0.000 C 
BRANCH  21  23
ATOM     22  C   UNL     1       6.255   3.619  13.196  0.00  0.00    +0.000 C 
ATOM     23  C   UNL     1       5.959   4.443  14.433  0.00  0.00    +0.000 C 
ENDBRANCH  21  23
ENDBRANCH  13  21
ENDBRANCH   1  17
BRANCH   2  24
ATOM     24  N   UNL     1       1.336   5.114  20.858  0.00  0.00    +0.000 N 
ATOM     25  H   UNL     1       0.434   5.022  21.321  0.00  0.00    +0.000 HD
BRANCH  24  26
ATOM     26  C   UNL     1       2.428   4.424  21.538  0.00  0.00    +0.000 C 
BRANCH  26  27
ATOM     27  C   UNL     1       2.326   2.902  21.466  0.00  0.00    +0.000 C 
BRANCH  27  28
ATOM     28  C   UNL     1       3.644   2.371  20.897  0.00  0.00    +0.000 C 
BRANCH  28  29
ATOM     29  O   UNL     1       4.305   1.491  21.805  0.00  0.00    +0.000 OA
BRANCH  29  30
ATOM     30  C   UNL     1       5.481   0.951  21.193  0.00  0.00    +0.000 C 
ATOM     31  C   UNL     1       6.242   0.100  22.190  0.00  0.00    +0.000 C 
ENDBRANCH  29  30
ENDBRANCH  28  29
ENDBRANCH  27  28
ENDBRANCH  26  27
ENDBRANCH  24  26
ENDBRANCH   2  24
TORSDOF 9
ENDMDL
MODEL 5
REMARK VINA RESULT:      -5.8      6.757      9.388
REMARK  Name = 
REMARK  12 active torsions:
REMARK  status: ('A' for Active; 'I' for Inactive)
REMARK    1  A    between atoms: C_1  and  C_2
REMARK    2  A    between atoms: C_2  and  C_3
REMARK    3  A    between atoms: C_3  and  N_4
REMARK    4  A    between atoms: C_8  and  C_9
REMARK    5  A    between atoms: C_10  and  N_11
REMARK    6  A    between atoms: N_11  and  C_12
REMARK    7  A    between atoms: C_12  and  C_13
REMARK    8  A    between atoms: C_13  and  C_14
REMARK    9  A    between atoms: C_14  and  O_15
REMARK   10  A    between atoms: O_15  and  C_16
REMARK   11  A    between atoms: C_16  and  C_17
REMARK   12  A    between atoms: C_20  and  C_21
REMARK                            x       y       z     vdW  Elec       q    Type
REMARK                         _______ _______ _______ _____ _____    ______ ____
ROOT
ATOM      1  C   UNL     1      -2.671  12.540  21.238  0.00  0.00    +0.000 A 
ATOM      2  C   UNL     1      -3.382  12.420  20.090  0.00  0.00    +0.000 A 
ATOM      3  N   UNL     1      -4.754  12.476  20.088  0.00  0.00    +0.000 NA
ATOM      4  C   UNL     1      -5.398  12.665  21.199  0.00  0.00    +0.000 A 
ATOM      5  C   UNL     1      -6.903  12.754  21.194  0.00  0.00    +0.000 A 
ATOM      6  C   UNL     1      -7.653  12.499  19.925  0.00  0.00    +0.000 C 
ATOM      7  C   UNL     1      -7.542  13.033  22.341  0.00  0.00    +0.000 A 
ATOM      8  C   UNL     1      -6.826  13.205  23.574  0.00  0.00    +0.000 A 
ATOM      9  C   UNL     1      -5.500  13.056  23.592  0.00  0.00    +0.000 A 
ATOM     10  N   UNL     1      -4.778  12.791  22.435  0.00  0.00    +0.000 N 
ATOM     11  C   UNL     1      -3.407  12.651  22.526  0.00  0.00    +0.000 A 
ATOM     12  O   UNL     1      -2.778  12.622  23.589  0.00  0.00    +0.000 OA
ENDROOT
BRANCH   1  17
ATOM     13  N   UNL     1       1.488  14.588  20.095  0.00  0.00    +0.000 N 
ATOM     14  C   UNL     1       1.002  13.530  20.843  0.00  0.00    +0.000 C 
ATOM     15  O   UNL     1       1.654  12.600  21.298  0.00  0.00    +0.000 OA
ATOM     16  C   UNL     1      -0.473  13.640  20.963  0.00  0.00    +0.000 C 
ATOM     17  C   UNL     1      -1.220  12.591  21.309  0.00  0.00    +0.000 C 
ATOM     18  S   UNL     1      -0.986  15.189  20.423  0.00  0.00    +0.000 S 
ATOM     19  C   UNL     1       0.575  15.549  19.711  0.00  0.00    +0.000 C 
ATOM     20  S   UNL     1       0.818  16.874  18.728  0.00  0.00    +0.000 S 
BRANCH  13  21
ATOM     21  C   UNL     1       2.921  14.658  19.833  0.00  0.00    +0.000 C 
BRANCH  21  23
ATOM     22  C   UNL     1       2.725  12.899  18.043  0.00  0.00    +0.000 C 
ATOM     23  C   UNL     1       3.209  14.296  18.378  0.00  0.00    +0.000 C 
ENDBRANCH  21  23
ENDBRANCH  13  21
ENDBRANCH   1  17
BRANCH   2  24
ATOM     24  N   UNL     1      -2.774  12.266  18.836  0.00  0.00    +0.000 N 
ATOM     25  H   UNL     1      -2.519  13.189  18.490  0.00  0.00    +0.000 HD
BRANCH  24  26
ATOM     26  C   UNL     1      -3.305  11.372  17.811  0.00  0.00    +0.000 C 
BRANCH  26  27
ATOM     27  C   UNL     1      -2.539  10.056  17.693  0.00  0.00    +0.000 C 
BRANCH  27  28
ATOM     28  C   UNL     1      -1.061  10.349  17.964  0.00  0.00    +0.000 C 
BRANCH  28  29
ATOM     29  O   UNL     1      -0.679   9.997  19.292  0.00  0.00    +0.000 OA
BRANCH  29  30
ATOM     30  C   UNL     1       0.739   9.804  19.359  0.00  0.00    +0.000 C 
ATOM     31  C   UNL     1       1.272   9.401  17.999  0.00  0.00    +0.000 C 
ENDBRANCH  29  30
ENDBRANCH  28  29
ENDBRANCH  27  28
ENDBRANCH  26  27
ENDBRANCH  24  26
ENDBRANCH   2  24
TORSDOF 9
ENDMDL
MODEL 6
REMARK VINA RESULT:      -5.8      6.119     11.123
REMARK  Name = 
REMARK  12 active torsions:
REMARK  status: ('A' for Active; 'I' for Inactive)
REMARK    1  A    between atoms: C_1  and  C_2
REMARK    2  A    between atoms: C_2  and  C_3
REMARK    3  A    between atoms: C_3  and  N_4
REMARK    4  A    between atoms: C_8  and  C_9
REMARK    5  A    between atoms: C_10  and  N_11
REMARK    6  A    between atoms: N_11  and  C_12
REMARK    7  A    between atoms: C_12  and  C_13
REMARK    8  A    between atoms: C_13  and  C_14
REMARK    9  A    between atoms: C_14  and  O_15
REMARK   10  A    between atoms: O_15  and  C_16
REMARK   11  A    between atoms: C_16  and  C_17
REMARK   12  A    between atoms: C_20  and  C_21
REMARK                            x       y       z     vdW  Elec       q    Type
REMARK                         _______ _______ _______ _____ _____    ______ ____
ROOT
ATOM      1  C   UNL     1      -1.747  11.770  19.874  0.00  0.00    +0.000 A 
ATOM      2  C   UNL     1      -1.288  11.494  18.629  0.00  0.00    +0.000 A 
ATOM      3  N   UNL     1      -0.277  10.588  18.423  0.00  0.00    +0.000 NA
ATOM      4  C   UNL     1       0.248   9.961  19.430  0.00  0.00    +0.000 A 
ATOM      5  C   UNL     1       1.340   8.946  19.202  0.00  0.00    +0.000 A 
ATOM      6  C   UNL     1       1.897   8.758  17.827  0.00  0.00    +0.000 C 
ATOM      7  C   UNL     1       1.809   8.249  20.250  0.00  0.00    +0.000 A 
ATOM      8  C   UNL     1       1.325   8.482  21.581  0.00  0.00    +0.000 A 
ATOM      9  C   UNL     1       0.410   9.430  21.793  0.00  0.00    +0.000 A 
ATOM     10  N   UNL     1      -0.134  10.169  20.749  0.00  0.00    +0.000 N 
ATOM     11  C   UNL     1      -1.078  11.134  21.040  0.00  0.00    +0.000 A 
ATOM     12  O   UNL     1      -1.392  11.479  22.184  0.00  0.00    +0.000 OA
ENDROOT
BRANCH   1  17
ATOM     13  N   UNL     1      -3.563  15.750  21.788  0.00  0.00    +0.000 N 
ATOM     14  C   UNL     1      -3.972  14.644  21.064  0.00  0.00    +0.000 C 
ATOM     15  O   UNL     1      -5.125  14.273  20.893  0.00  0.00    +0.000 OA
ATOM     16  C   UNL     1      -2.785  13.906  20.567  0.00  0.00    +0.000 C 
ATOM     17  C   UNL     1      -2.877  12.639  20.164  0.00  0.00    +0.000 C 
ATOM     18  S   UNL     1      -1.372  14.860  20.786  0.00  0.00    +0.000 S 
ATOM     19  C   UNL     1      -2.206  16.003  21.822  0.00  0.00    +0.000 C 
ATOM     20  S   UNL     1      -1.393  17.178  22.682  0.00  0.00    +0.000 S 
BRANCH  13  21
ATOM     21  C   UNL     1      -4.577  16.606  22.391  0.00  0.00    +0.000 C 
BRANCH  21  23
ATOM     22  C   UNL     1      -4.360  16.659  24.898  0.00  0.00    +0.000 C 
ATOM     23  C   UNL     1      -5.051  16.010  23.715  0.00  0.00    +0.000 C 
ENDBRANCH  21  23
ENDBRANCH  13  21
ENDBRANCH   1  17
BRANCH   2  24
ATOM     24  N   UNL     1      -1.828  12.082  17.476  0.00  0.00    +0.000 N 
ATOM     25  H   UNL     1      -2.276  12.956  17.745  0.00  0.00    +0.000 HD
BRANCH  24  26
ATOM     26  C   UNL     1      -2.567  11.316  16.477  0.00  0.00    +0.000 C 
BRANCH  26  27
ATOM     27  C   UNL     1      -3.404  10.186  17.074  0.00  0.00    +0.000 C 
BRANCH  27  28
ATOM     28  C   UNL     1      -4.741  10.779  17.522  0.00  0.00    +0.000 C 
BRANCH  28  29
ATOM     29  O   UNL     1      -4.845  12.166  17.204  0.00  0.00    +0.000 OA
BRANCH  29  30
ATOM     30  C   UNL     1      -6.217  12.576  17.247  0.00  0.00    +0.000 C 
ATOM     31  C   UNL     1      -6.976  11.745  18.262  0.00  0.00    +0.000 C 
ENDBRANCH  29  30
ENDBRANCH  28  29
ENDBRANCH  27  28
ENDBRANCH  26  27
ENDBRANCH  24  26
ENDBRANCH   2  24
TORSDOF 9
ENDMDL
MODEL 7
REMARK VINA RESULT:      -5.7      4.278      9.684
REMARK  Name = 
REMARK  12 active torsions:
REMARK  status: ('A' for Active; 'I' for Inactive)
REMARK    1  A    between atoms: C_1  and  C_2
REMARK    2  A    between atoms: C_2  and  C_3
REMARK    3  A    between atoms: C_3  and  N_4
REMARK    4  A    between atoms: C_8  and  C_9
REMARK    5  A    between atoms: C_10  and  N_11
REMARK    6  A    between atoms: N_11  and  C_12
REMARK    7  A    between atoms: C_12  and  C_13
REMARK    8  A    between atoms: C_13  and  C_14
REMARK    9  A    between atoms: C_14  and  O_15
REMARK   10  A    between atoms: O_15  and  C_16
REMARK   11  A    between atoms: C_16  and  C_17
REMARK   12  A    between atoms: C_20  and  C_21
REMARK                            x       y       z     vdW  Elec       q    Type
REMARK                         _______ _______ _______ _____ _____    ______ ____
ROOT
ATOM      1  C   UNL     1       1.331   9.430  19.461  0.00  0.00    +0.000 A 
ATOM      2  C   UNL     1       1.990   9.711  18.310  0.00  0.00    +0.000 A 
ATOM      3  N   UNL     1       2.790   8.780  17.696  0.00  0.00    +0.000 NA
ATOM      4  C   UNL     1       2.916   7.593  18.208  0.00  0.00    +0.000 A 
ATOM      5  C   UNL     1       3.773   6.561  17.520  0.00  0.00    +0.000 A 
ATOM      6  C   UNL     1       4.574   6.949  16.318  0.00  0.00    +0.000 C 
ATOM      7  C   UNL     1       3.821   5.317  18.022  0.00  0.00    +0.000 A 
ATOM      8  C   UNL     1       3.109   4.964  19.219  0.00  0.00    +0.000 A 
ATOM      9  C   UNL     1       2.408   5.896  19.867  0.00  0.00    +0.000 A 
ATOM     10  N   UNL     1       2.298   7.196  19.386  0.00  0.00    +0.000 N 
ATOM     11  C   UNL     1       1.555   8.109  20.107  0.00  0.00    +0.000 A 
ATOM     12  O   UNL     1       1.073   7.890  21.223  0.00  0.00    +0.000 OA
ENDROOT
BRANCH   1  17
ATOM     13  N   UNL     1      -2.692  12.001  19.419  0.00  0.00    +0.000 N 
ATOM     14  C   UNL     1      -1.654  11.678  20.275  0.00  0.00    +0.000 C 
ATOM     15  O   UNL     1      -1.383  12.231  21.332  0.00  0.00    +0.000 OA
ATOM     16  C   UNL     1      -0.847  10.580  19.688  0.00  0.00    +0.000 C 
ATOM     17  C   UNL     1       0.390  10.326  20.114  0.00  0.00    +0.000 C 
ATOM     18  S   UNL     1      -1.677   9.902  18.344  0.00  0.00    +0.000 S 
ATOM     19  C   UNL     1      -2.835  11.217  18.292  0.00  0.00    +0.000 C 
ATOM     20  S   UNL     1      -3.904  11.409  17.027  0.00  0.00    +0.000 S 
BRANCH  13  21
ATOM     21  C   UNL     1      -3.598  13.080  19.795  0.00  0.00    +0.000 C 
BRANCH  21  23
ATOM     22  C   UNL     1      -4.834  12.869  21.977  0.00  0.00    +0.000 C 
ATOM     23  C   UNL     1      -4.826  12.515  20.503  0.00  0.00    +0.000 C 
ENDBRANCH  21  23
ENDBRANCH  13  21
ENDBRANCH   1  17
BRANCH   2  24
ATOM     24  N   UNL     1       1.875  10.947  17.655  0.00  0.00    +0.000 N 
ATOM     25  H   UNL     1       1.862  10.774  16.652  0.00  0.00    +0.000 HD
BRANCH  24  26
ATOM     26  C   UNL     1       2.653  12.118  18.049  0.00  0.00    +0.000 C 
BRANCH  26  27
ATOM     27  C   UNL     1       1.813  13.217  18.697  0.00  0.00    +0.000 C 
BRANCH  27  28
ATOM     28  C   UNL     1       2.516  14.553  18.446  0.00  0.00    +0.000 C 
BRANCH  28  29
ATOM     29  O   UNL     1       1.852  15.638  19.092  0.00  0.00    +0.000 OA
BRANCH  29  30
ATOM     30  C   UNL     1       1.986  16.829  18.308  0.00  0.00    +0.000 C 
ATOM     31  C   UNL     1       3.081  16.652  17.277  0.00  0.00    +0.000 C 
ENDBRANCH  29  30
ENDBRANCH  28  29
ENDBRANCH  27  28
ENDBRANCH  26  27
ENDBRANCH  24  26
ENDBRANCH   2  24
TORSDOF 9
ENDMDL
MODEL 8
REMARK VINA RESULT:      -5.7      4.983      8.125
REMARK  Name = 
REMARK  12 active torsions:
REMARK  status: ('A' for Active; 'I' for Inactive)
REMARK    1  A    between atoms: C_1  and  C_2
REMARK    2  A    between atoms: C_2  and  C_3
REMARK    3  A    between atoms: C_3  and  N_4
REMARK    4  A    between atoms: C_8  and  C_9
REMARK    5  A    between atoms: C_10  and  N_11
REMARK    6  A    between atoms: N_11  and  C_12
REMARK    7  A    between atoms: C_12  and  C_13
REMARK    8  A    between atoms: C_13  and  C_14
REMARK    9  A    between atoms: C_14  and  O_15
REMARK   10  A    between atoms: O_15  and  C_16
REMARK   11  A    between atoms: C_16  and  C_17
REMARK   12  A    between atoms: C_20  and  C_21
REMARK                            x       y       z     vdW  Elec       q    Type
REMARK                         _______ _______ _______ _____ _____    ______ ____
ROOT
ATOM      1  C   UNL     1       0.034  11.999  19.860  0.00  0.00    +0.000 A 
ATOM      2  C   UNL     1       0.102  11.175  18.786  0.00  0.00    +0.000 A 
ATOM      3  N   UNL     1      -1.029  10.769  18.122  0.00  0.00    +0.000 NA
ATOM      4  C   UNL     1      -2.195  11.189  18.507  0.00  0.00    +0.000 A 
ATOM      5  C   UNL     1      -3.435  10.765  17.762  0.00  0.00    +0.000 A 
ATOM      6  C   UNL     1      -3.325   9.763  16.657  0.00  0.00    +0.000 C 
ATOM      7  C   UNL     1      -4.620  11.278  18.127  0.00  0.00    +0.000 A 
ATOM      8  C   UNL     1      -4.734  12.184  19.235  0.00  0.00    +0.000 A 
ATOM      9  C   UNL     1      -3.647  12.504  19.940  0.00  0.00    +0.000 A 
ATOM     10  N   UNL     1      -2.388  12.026  19.598  0.00  0.00    +0.000 N 
ATOM     11  C   UNL     1      -1.305  12.398  20.371  0.00  0.00    +0.000 A 
ATOM     12  O   UNL     1      -1.388  13.034  21.426  0.00  0.00    +0.000 OA
ENDROOT
BRANCH   1  17
ATOM     13  N   UNL     1       3.735  15.010  20.048  0.00  0.00    +0.000 N 
ATOM     14  C   UNL     1       3.114  14.050  20.827  0.00  0.00    +0.000 C 
ATOM     15  O   UNL     1       3.568  13.525  21.834  0.00  0.00    +0.000 OA
ATOM     16  C   UNL     1       1.811  13.682  20.220  0.00  0.00    +0.000 C 
ATOM     17  C   UNL     1       1.188  12.551  20.552  0.00  0.00    +0.000 C 
ATOM     18  S   UNL     1       1.410  14.800  18.978  0.00  0.00    +0.000 S 
ATOM     19  C   UNL     1       3.021  15.493  18.969  0.00  0.00    +0.000 C 
ATOM     20  S   UNL     1       3.521  16.561  17.790  0.00  0.00    +0.000 S 
BRANCH  13  21
ATOM     21  C   UNL     1       5.048  15.497  20.453  0.00  0.00    +0.000 C 
BRANCH  21  23
ATOM     22  C   UNL     1       5.610  17.938  20.705  0.00  0.00    +0.000 C 
ATOM     23  C   UNL     1       4.903  16.746  21.320  0.00  0.00    +0.000 C 
ENDBRANCH  21  23
ENDBRANCH  13  21
ENDBRANCH   1  17
BRANCH   2  24
ATOM     24  N   UNL     1       1.319  10.711  18.265  0.00  0.00    +0.000 N 
ATOM     25  H   UNL     1       1.686  11.422  17.635  0.00  0.00    +0.000 HD
BRANCH  24  26
ATOM     26  C   UNL     1       1.497   9.343  17.786  0.00  0.00    +0.000 C 
BRANCH  26  27
ATOM     27  C   UNL     1       1.952   8.372  18.874  0.00  0.00    +0.000 C 
BRANCH  27  28
ATOM     28  C   UNL     1       2.819   7.299  18.211  0.00  0.00    +0.000 C 
BRANCH  28  29
ATOM     29  O   UNL     1       2.339   5.982  18.476  0.00  0.00    +0.000 OA
BRANCH  29  30
ATOM     30  C   UNL     1       2.797   5.546  19.762  0.00  0.00    +0.000 C 
ATOM     31  C   UNL     1       1.645   4.958  20.551  0.00  0.00    +0.000 C 
ENDBRANCH  29  30
ENDBRANCH  28  29
ENDBRANCH  27  28
ENDBRANCH  26  27
ENDBRANCH  24  26
ENDBRANCH   2  24
TORSDOF 9
ENDMDL
MODEL 9
REMARK VINA RESULT:      -5.6      3.395      8.181
REMARK  Name = 
REMARK  12 active torsions:
REMARK  status: ('A' for Active; 'I' for Inactive)
REMARK    1  A    between atoms: C_1  and  C_2
REMARK    2  A    between atoms: C_2  and  C_3
REMARK    3  A    between atoms: C_3  and  N_4
REMARK    4  A    between atoms: C_8  and  C_9
REMARK    5  A    between atoms: C_10  and  N_11
REMARK    6  A    between atoms: N_11  and  C_12
REMARK    7  A    between atoms: C_12  and  C_13
REMARK    8  A    between atoms: C_13  and  C_14
REMARK    9  A    between atoms: C_14  and  O_15
REMARK   10  A    between atoms: O_15  and  C_16
REMARK   11  A    between atoms: C_16  and  C_17
REMARK   12  A    between atoms: C_20  and  C_21
REMARK                            x       y       z     vdW  Elec       q    Type
REMARK                         _______ _______ _______ _____ _____    ______ ____
ROOT
ATOM      1  C   UNL     1       1.960   8.288  19.614  0.00  0.00    +0.000 A 
ATOM      2  C   UNL     1       1.653   7.654  20.772  0.00  0.00    +0.000 A 
ATOM      3  N   UNL     1       1.734   6.288  20.884  0.00  0.00    +0.000 NA
ATOM      4  C   UNL     1       2.128   5.575  19.874  0.00  0.00    +0.000 A 
ATOM      5  C   UNL     1       2.243   4.078  20.004  0.00  0.00    +0.000 A 
ATOM      6  C   UNL     1       1.783   3.410  21.261  0.00  0.00    +0.000 C 
ATOM      7  C   UNL     1       2.732   3.371  18.973  0.00  0.00    +0.000 A 
ATOM      8  C   UNL     1       3.104   4.006  17.739  0.00  0.00    +0.000 A 
ATOM      9  C   UNL     1       2.935   5.322  17.599  0.00  0.00    +0.000 A 
ATOM     10  N   UNL     1       2.458   6.113  18.636  0.00  0.00    +0.000 N 
ATOM     11  C   UNL     1       2.309   7.469  18.422  0.00  0.00    +0.000 A 
ATOM     12  O   UNL     1       2.455   8.022  17.327  0.00  0.00    +0.000 OA
ENDROOT
BRANCH   1  17
ATOM     13  N   UNL     1      -0.155  12.400  18.421  0.00  0.00    +0.000 N 
ATOM     14  C   UNL     1       1.057  11.936  18.901  0.00  0.00    +0.000 C 
ATOM     15  O   UNL     1       2.108  12.560  18.949  0.00  0.00    +0.000 OA
ATOM     16  C   UNL     1       0.924  10.512  19.299  0.00  0.00    +0.000 C 
ATOM     17  C   UNL     1       1.995   9.732  19.447  0.00  0.00    +0.000 C 
ATOM     18  S   UNL     1      -0.736  10.069  19.327  0.00  0.00    +0.000 S 
ATOM     19  C   UNL     1      -1.226  11.532  18.494  0.00  0.00    +0.000 C 
ATOM     20  S   UNL     1      -2.774  11.745  17.912  0.00  0.00    +0.000 S 
BRANCH  13  21
ATOM     21  C   UNL     1      -0.239  13.777  17.950  0.00  0.00    +0.000 C 
BRANCH  21  23
ATOM     22  C   UNL     1      -0.346  16.177  18.699  0.00  0.00    +0.000 C 
ATOM     23  C   UNL     1      -0.440  14.727  19.128  0.00  0.00    +0.000 C 
ENDBRANCH  21  23
ENDBRANCH  13  21
ENDBRANCH   1  17
BRANCH   2  24
ATOM     24  N   UNL     1       1.269   8.342  21.933  0.00  0.00    +0.000 N 
ATOM     25  H   UNL     1       1.820   7.985  22.711  0.00  0.00    +0.000 HD
BRANCH  24  26
ATOM     26  C   UNL     1      -0.129   8.603  22.263  0.00  0.00    +0.000 C 
BRANCH  26  27
ATOM     27  C   UNL     1      -0.308   9.498  23.489  0.00  0.00    +0.000 C 
BRANCH  27  28
ATOM     28  C   UNL     1      -1.026  10.772  23.037  0.00  0.00    +0.000 C 
BRANCH  28  29
ATOM     29  O   UNL     1      -0.127  11.718  22.461  0.00  0.00    +0.000 OA
BRANCH  29  30
ATOM     30  C   UNL     1      -0.820  12.938  22.174  0.00  0.00    +0.000 C 
ATOM     31  C   UNL     1      -2.270  12.647  21.843  0.00  0.00    +0.000 C 
ENDBRANCH  29  30
ENDBRANCH  28  29
ENDBRANCH  27  28
ENDBRANCH  26  27
ENDBRANCH  24  26
ENDBRANCH   2  24
TORSDOF 9
ENDMDL
