MODEL 1
REMARK VINA RESULT:      -7.6      0.000      0.000
REMARK  Name = 
REMARK  6 active torsions:
REMARK  status: ('A' for Active; 'I' for Inactive)
REMARK    1  A    between atoms: C_2  and  C_3
REMARK    2  A    between atoms: C_2  and  C_20
REMARK    3  A    between atoms: C_10  and  O_11
REMARK    4  A    between atoms: O_11  and  C_12
REMARK    5  A    between atoms: C_12  and  C_13
REMARK    6  A    between atoms: C_23  and  C_24
REMARK                            x       y       z     vdW  Elec       q    Type
REMARK                         _______ _______ _______ _____ _____    ______ ____
ROOT
ATOM      1  C   UNL     1       3.210   6.915  18.110  0.00  0.00    +0.000 A 
ATOM      2  C   UNL     1       3.176   7.925  17.164  0.00  0.00    +0.000 A 
ATOM      3  N   UNL     1       2.414   8.952  17.636  0.00  0.00    +0.000 N 
ATOM      4  C   UNL     1       1.892   8.630  18.864  0.00  0.00    +0.000 A 
ATOM      5  C   UNL     1       1.058   9.386  19.690  0.00  0.00    +0.000 A 
ATOM      6  C   UNL     1       0.658   8.820  20.898  0.00  0.00    +0.000 A 
ATOM      7  C   UNL     1       1.072   7.537  21.255  0.00  0.00    +0.000 A 
ATOM      8  C   UNL     1       1.907   6.781  20.415  0.00  0.00    +0.000 A 
ATOM      9  C   UNL     1       2.355   7.350  19.195  0.00  0.00    +0.000 A 
ATOM     10  H   UNL     1       2.254   9.827  17.156  0.00  0.00    +0.000 HD
ENDROOT
BRANCH   1  12
ATOM     11  O   UNL     1       3.761   4.851  17.102  0.00  0.00    +0.000 OA
ATOM     12  C   UNL     1       3.998   5.670  17.991  0.00  0.00    +0.000 C 
BRANCH  12  13
ATOM     13  C   UNL     1       5.189   5.452  18.969  0.00  0.00    +0.000 C 
ATOM     14  C   UNL     1       6.188   6.624  18.993  0.00  0.00    +0.000 C 
ATOM     15  S   UNL     1       7.819   5.909  18.650  0.00  0.00    +0.000 S 
ATOM     16  C   UNL     1       7.109   4.420  17.932  0.00  0.00    +0.000 C 
ATOM     17  N   UNL     1       5.907   4.159  18.728  0.00  0.00    +0.000 NA
ATOM     18  H   UNL     1       6.246   3.851  19.640  0.00  0.00    +0.000 HD
BRANCH  16  19
ATOM     19  C   UNL     1       6.839   4.444  16.445  0.00  0.00    +0.000 A 
ATOM     20  C   UNL     1       5.980   3.568  15.770  0.00  0.00    +0.000 A 
ATOM     21  C   UNL     1       5.832   3.644  14.391  0.00  0.00    +0.000 A 
ATOM     22  C   UNL     1       6.545   4.609  13.707  0.00  0.00    +0.000 A 
ATOM     23  N   UNL     1       7.376   5.488  14.307  0.00  0.00    +0.000 NA
ATOM     24  C   UNL     1       7.507   5.377  15.651  0.00  0.00    +0.000 A 
ENDBRANCH  16  19
ENDBRANCH  12  13
ENDBRANCH   1  12
BRANCH   8  25
ATOM     25  O   UNL     1       2.347   5.526  20.727  0.00  0.00    +0.000 OA
BRANCH  25  26
ATOM     26  C   UNL     1       1.429   4.444  20.579  0.00  0.00    +0.000 C 
BRANCH  26  27
ATOM     27  C   UNL     1       2.101   3.336  19.801  0.00  0.00    +0.000 A 
ATOM     28  C   UNL     1       1.627   2.964  18.533  0.00  0.00    +0.000 A 
ATOM     29  C   UNL     1       2.256   1.958  17.802  0.00  0.00    +0.000 A 
ATOM     30  C   UNL     1       3.380   1.320  18.322  0.00  0.00    +0.000 A 
ATOM     31  C   UNL     1       3.876   1.695  19.570  0.00  0.00    +0.000 A 
ATOM     32  C   UNL     1       3.246   2.703  20.304  0.00  0.00    +0.000 A 
ENDBRANCH  26  27
ENDBRANCH  25  26
ENDBRANCH   8  25
TORSDOF 6
ENDMDL
MODEL 2
REMARK VINA RESULT:      -7.6      1.582      2.608
REMARK  Name = 
REMARK  6 active torsions:
REMARK  status: ('A' for Active; 'I' for Inactive)
REMARK    1  A    between atoms: C_2  and  C_3
REMARK    2  A    between atoms: C_2  and  C_20
REMARK    3  A    between atoms: C_10  and  O_11
REMARK    4  A    between atoms: O_11  and  C_12
REMARK    5  A    between atoms: C_12  and  C_13
REMARK    6  A    between atoms: C_23  and  C_24
REMARK                            x       y       z     vdW  Elec       q    Type
REMARK                         _______ _______ _______ _____ _____    ______ ____
ROOT
ATOM      1  C   UNL     1       2.838   7.559  18.324  0.00  0.00    +0.000 A 
ATOM      2  C   UNL     1       2.750   8.641  17.465  0.00  0.00    +0.000 A 
ATOM      3  N   UNL     1       1.901   9.565  17.999  0.00  0.00    +0.000 N 
ATOM      4  C   UNL     1       1.377   9.102  19.179  0.00  0.00    +0.000 A 
ATOM      5  C   UNL     1       0.469   9.721  20.041  0.00  0.00    +0.000 A 
ATOM      6  C   UNL     1       0.085   9.026  21.185  0.00  0.00    +0.000 A 
ATOM      7  C   UNL     1       0.587   7.751  21.446  0.00  0.00    +0.000 A 
ATOM      8  C   UNL     1       1.496   7.133  20.571  0.00  0.00    +0.000 A 
ATOM      9  C   UNL     1       1.927   7.835  19.416  0.00  0.00    +0.000 A 
ATOM     10  H   UNL     1       1.687  10.464  17.589  0.00  0.00    +0.000 HD
ENDROOT
BRANCH   1  12
ATOM     11  O   UNL     1       4.251   5.824  19.082  0.00  0.00    +0.000 OA
ATOM     12  C   UNL     1       3.720   6.390  18.125  0.00  0.00    +0.000 C 
BRANCH  12  13
ATOM     13  C   UNL     1       3.903   5.840  16.681  0.00  0.00    +0.000 C 
ATOM     14  C   UNL     1       4.126   4.317  16.626  0.00  0.00    +0.000 C 
ATOM     15  S   UNL     1       5.663   4.061  15.698  0.00  0.00    +0.000 S 
ATOM     16  C   UNL     1       6.208   5.754  15.969  0.00  0.00    +0.000 C 
ATOM     17  N   UNL     1       4.981   6.552  15.922  0.00  0.00    +0.000 NA
ATOM     18  H   UNL     1       4.689   6.545  14.944  0.00  0.00    +0.000 HD
BRANCH  16  19
ATOM     19  C   UNL     1       7.034   6.012  17.208  0.00  0.00    +0.000 A 
ATOM     20  C   UNL     1       7.532   7.262  17.595  0.00  0.00    +0.000 A 
ATOM     21  C   UNL     1       8.320   7.389  18.732  0.00  0.00    +0.000 A 
ATOM     22  C   UNL     1       8.591   6.255  19.472  0.00  0.00    +0.000 A 
ATOM     23  N   UNL     1       8.127   5.028  19.153  0.00  0.00    +0.000 NA
ATOM     24  C   UNL     1       7.373   4.938  18.031  0.00  0.00    +0.000 A 
ENDBRANCH  16  19
ENDBRANCH  12  13
ENDBRANCH   1  12
BRANCH   8  25
ATOM     25  O   UNL     1       2.022   5.891  20.789  0.00  0.00    +0.000 OA
BRANCH  25  26
ATOM     26  C   UNL     1       1.142   4.772  20.704  0.00  0.00    +0.000 C 
BRANCH  26  27
ATOM     27  C   UNL     1       1.851   3.647  19.986  0.00  0.00    +0.000 A 
ATOM     28  C   UNL     1       1.327   3.115  18.797  0.00  0.00    +0.000 A 
ATOM     29  C   UNL     1       1.988   2.092  18.120  0.00  0.00    +0.000 A 
ATOM     30  C   UNL     1       3.193   1.597  18.614  0.00  0.00    +0.000 A 
ATOM     31  C   UNL     1       3.737   2.131  19.781  0.00  0.00    +0.000 A 
ATOM     32  C   UNL     1       3.075   3.156  20.461  0.00  0.00    +0.000 A 
ENDBRANCH  26  27
ENDBRANCH  25  26
ENDBRANCH   8  25
TORSDOF 6
ENDMDL
MODEL 3
REMARK VINA RESULT:      -7.4      1.591      4.373
REMARK  Name = 
REMARK  6 active torsions:
REMARK  status: ('A' for Active; 'I' for Inactive)
REMARK    1  A    between atoms: C_2  and  C_3
REMARK    2  A    between atoms: C_2  and  C_20
REMARK    3  A    between atoms: C_10  and  O_11
REMARK    4  A    between atoms: O_11  and  C_12
REMARK    5  A    between atoms: C_12  and  C_13
REMARK    6  A    between atoms: C_23  and  C_24
REMARK                            x       y       z     vdW  Elec       q    Type
REMARK                         _______ _______ _______ _____ _____    ______ ____
ROOT
ATOM      1  C   UNL     1       3.371   4.014  17.716  0.00  0.00    +0.000 A 
ATOM      2  C   UNL     1       3.351   2.841  16.980  0.00  0.00    +0.000 A 
ATOM      3  N   UNL     1       2.409   2.004  17.503  0.00  0.00    +0.000 N 
ATOM      4  C   UNL     1       1.830   2.573  18.609  0.00  0.00    +0.000 A 
ATOM      5  C   UNL     1       0.835   2.059  19.443  0.00  0.00    +0.000 A 
ATOM      6  C   UNL     1       0.422   2.842  20.518  0.00  0.00    +0.000 A 
ATOM      7  C   UNL     1       0.998   4.091  20.752  0.00  0.00    +0.000 A 
ATOM      8  C   UNL     1       2.004   4.598  19.911  0.00  0.00    +0.000 A 
ATOM      9  C   UNL     1       2.417   3.832  18.790  0.00  0.00    +0.000 A 
ATOM     10  H   UNL     1       2.167   1.096  17.131  0.00  0.00    +0.000 HD
ENDROOT
BRANCH   1  12
ATOM     11  O   UNL     1       3.881   5.991  16.529  0.00  0.00    +0.000 OA
ATOM     12  C   UNL     1       4.209   5.191  17.407  0.00  0.00    +0.000 C 
BRANCH  12  13
ATOM     13  C   UNL     1       5.477   5.445  18.273  0.00  0.00    +0.000 C 
ATOM     14  C   UNL     1       6.080   6.849  18.085  0.00  0.00    +0.000 C 
ATOM     15  S   UNL     1       7.821   6.599  17.643  0.00  0.00    +0.000 S 
ATOM     16  C   UNL     1       7.538   4.894  17.144  0.00  0.00    +0.000 C 
ATOM     17  N   UNL     1       6.529   4.395  18.080  0.00  0.00    +0.000 NA
ATOM     18  H   UNL     1       7.009   4.308  18.976  0.00  0.00    +0.000 HD
BRANCH  16  19
ATOM     19  C   UNL     1       7.168   4.663  15.696  0.00  0.00    +0.000 A 
ATOM     20  C   UNL     1       6.292   3.670  15.240  0.00  0.00    +0.000 A 
ATOM     21  C   UNL     1       6.049   3.509  13.882  0.00  0.00    +0.000 A 
ATOM     22  C   UNL     1       6.685   4.358  12.998  0.00  0.00    +0.000 A 
ATOM     23  N   UNL     1       7.528   5.340  13.381  0.00  0.00    +0.000 NA
ATOM     24  C   UNL     1       7.753   5.460  14.712  0.00  0.00    +0.000 A 
ENDBRANCH  16  19
ENDBRANCH  12  13
ENDBRANCH   1  12
BRANCH   8  25
ATOM     25  O   UNL     1       2.590   5.818  20.094  0.00  0.00    +0.000 OA
BRANCH  25  26
ATOM     26  C   UNL     1       1.857   6.805  20.817  0.00  0.00    +0.000 C 
BRANCH  26  27
ATOM     27  C   UNL     1       1.650   8.009  19.926  0.00  0.00    +0.000 A 
ATOM     28  C   UNL     1       0.944   9.130  20.392  0.00  0.00    +0.000 A 
ATOM     29  C   UNL     1       0.768  10.250  19.582  0.00  0.00    +0.000 A 
ATOM     30  C   UNL     1       1.310  10.273  18.299  0.00  0.00    +0.000 A 
ATOM     31  C   UNL     1       2.033   9.176  17.831  0.00  0.00    +0.000 A 
ATOM     32  C   UNL     1       2.209   8.052  18.642  0.00  0.00    +0.000 A 
ENDBRANCH  26  27
ENDBRANCH  25  26
ENDBRANCH   8  25
TORSDOF 6
ENDMDL
MODEL 4
REMARK VINA RESULT:      -7.3      8.880     12.309
REMARK  Name = 
REMARK  6 active torsions:
REMARK  status: ('A' for Active; 'I' for Inactive)
REMARK    1  A    between atoms: C_2  and  C_3
REMARK    2  A    between atoms: C_2  and  C_20
REMARK    3  A    between atoms: C_10  and  O_11
REMARK    4  A    between atoms: O_11  and  C_12
REMARK    5  A    between atoms: C_12  and  C_13
REMARK    6  A    between atoms: C_23  and  C_24
REMARK                            x       y       z     vdW  Elec       q    Type
REMARK                         _______ _______ _______ _____ _____    ______ ____
ROOT
ATOM      1  C   UNL     1      -2.639  12.172  19.861  0.00  0.00    +0.000 A 
ATOM      2  C   UNL     1      -1.408  11.660  20.233  0.00  0.00    +0.000 A 
ATOM      3  N   UNL     1      -0.959  10.824  19.254  0.00  0.00    +0.000 N 
ATOM      4  C   UNL     1      -1.890  10.724  18.252  0.00  0.00    +0.000 A 
ATOM      5  C   UNL     1      -1.838   9.975  17.074  0.00  0.00    +0.000 A 
ATOM      6  C   UNL     1      -2.932  10.041  16.215  0.00  0.00    +0.000 A 
ATOM      7  C   UNL     1      -4.042  10.823  16.535  0.00  0.00    +0.000 A 
ATOM      8  C   UNL     1      -4.089  11.570  17.724  0.00  0.00    +0.000 A 
ATOM      9  C   UNL     1      -2.972  11.544  18.599  0.00  0.00    +0.000 A 
ATOM     10  H   UNL     1      -0.069  10.346  19.260  0.00  0.00    +0.000 HD
ENDROOT
BRANCH   1  12
ATOM     11  O   UNL     1      -3.314  14.376  20.378  0.00  0.00    +0.000 OA
ATOM     12  C   UNL     1      -3.407  13.173  20.631  0.00  0.00    +0.000 C 
BRANCH  12  13
ATOM     13  C   UNL     1      -4.398  12.669  21.718  0.00  0.00    +0.000 C 
ATOM     14  C   UNL     1      -5.568  13.635  21.982  0.00  0.00    +0.000 C 
ATOM     15  S   UNL     1      -5.559  13.969  23.765  0.00  0.00    +0.000 S 
ATOM     16  C   UNL     1      -3.853  13.427  23.944  0.00  0.00    +0.000 C 
ATOM     17  N   UNL     1      -3.716  12.312  23.004  0.00  0.00    +0.000 NA
ATOM     18  H   UNL     1      -4.257  11.547  23.409  0.00  0.00    +0.000 HD
BRANCH  16  19
ATOM     19  C   UNL     1      -2.783  14.481  23.772  0.00  0.00    +0.000 A 
ATOM     20  C   UNL     1      -1.435  14.220  23.497  0.00  0.00    +0.000 A 
ATOM     21  C   UNL     1      -0.518  15.258  23.399  0.00  0.00    +0.000 A 
ATOM     22  C   UNL     1      -0.972  16.552  23.569  0.00  0.00    +0.000 A 
ATOM     23  N   UNL     1      -2.261  16.863  23.823  0.00  0.00    +0.000 NA
ATOM     24  C   UNL     1      -3.126  15.825  23.925  0.00  0.00    +0.000 A 
ENDBRANCH  16  19
ENDBRANCH  12  13
ENDBRANCH   1  12
BRANCH   8  25
ATOM     25  O   UNL     1      -5.149  12.357  18.075  0.00  0.00    +0.000 OA
BRANCH  25  26
ATOM     26  C   UNL     1      -6.459  11.870  17.796  0.00  0.00    +0.000 C 
BRANCH  26  27
ATOM     27  C   UNL     1      -6.897  10.970  18.929  0.00  0.00    +0.000 A 
ATOM     28  C   UNL     1      -7.490  11.511  20.082  0.00  0.00    +0.000 A 
ATOM     29  C   UNL     1      -7.915  10.684  21.120  0.00  0.00    +0.000 A 
ATOM     30  C   UNL     1      -7.769   9.303  21.014  0.00  0.00    +0.000 A 
ATOM     31  C   UNL     1      -7.203   8.751  19.866  0.00  0.00    +0.000 A 
ATOM     32  C   UNL     1      -6.775   9.578  18.824  0.00  0.00    +0.000 A 
ENDBRANCH  26  27
ENDBRANCH  25  26
ENDBRANCH   8  25
TORSDOF 6
ENDMDL
MODEL 5
REMARK VINA RESULT:      -7.3      7.931     11.099
REMARK  Name = 
REMARK  6 active torsions:
REMARK  status: ('A' for Active; 'I' for Inactive)
REMARK    1  A    between atoms: C_2  and  C_3
REMARK    2  A    between atoms: C_2  and  C_20
REMARK    3  A    between atoms: C_10  and  O_11
REMARK    4  A    between atoms: O_11  and  C_12
REMARK    5  A    between atoms: C_12  and  C_13
REMARK    6  A    between atoms: C_23  and  C_24
REMARK                            x       y       z     vdW  Elec       q    Type
REMARK                         _______ _______ _______ _____ _____    ______ ____
ROOT
ATOM      1  C   UNL     1      -3.311  11.529  18.126  0.00  0.00    +0.000 A 
ATOM      2  C   UNL     1      -3.559  11.049  16.851  0.00  0.00    +0.000 A 
ATOM      3  N   UNL     1      -4.881  11.217  16.561  0.00  0.00    +0.000 N 
ATOM      4  C   UNL     1      -5.538  11.756  17.637  0.00  0.00    +0.000 A 
ATOM      5  C   UNL     1      -6.890  12.081  17.771  0.00  0.00    +0.000 A 
ATOM      6  C   UNL     1      -7.311  12.615  18.986  0.00  0.00    +0.000 A 
ATOM      7  C   UNL     1      -6.408  12.804  20.032  0.00  0.00    +0.000 A 
ATOM      8  C   UNL     1      -5.050  12.469  19.892  0.00  0.00    +0.000 A 
ATOM      9  C   UNL     1      -4.592  11.955  18.652  0.00  0.00    +0.000 A 
ATOM     10  H   UNL     1      -5.318  10.982  15.680  0.00  0.00    +0.000 HD
ENDROOT
BRANCH   1  12
ATOM     11  O   UNL     1      -1.419  10.565  19.159  0.00  0.00    +0.000 OA
ATOM     12  C   UNL     1      -1.980  11.588  18.763  0.00  0.00    +0.000 C 
BRANCH  12  13
ATOM     13  C   UNL     1      -1.263  12.966  18.852  0.00  0.00    +0.000 C 
ATOM     14  C   UNL     1       0.206  12.928  18.391  0.00  0.00    +0.000 C 
ATOM     15  S   UNL     1       1.185  13.609  19.757  0.00  0.00    +0.000 S 
ATOM     16  C   UNL     1      -0.130  13.328  20.953  0.00  0.00    +0.000 C 
ATOM     17  N   UNL     1      -1.367  13.586  20.213  0.00  0.00    +0.000 NA
ATOM     18  H   UNL     1      -1.388  14.596  20.062  0.00  0.00    +0.000 HD
BRANCH  16  19
ATOM     19  C   UNL     1      -0.131  11.992  21.659  0.00  0.00    +0.000 A 
ATOM     20  C   UNL     1      -1.098  11.572  22.581  0.00  0.00    +0.000 A 
ATOM     21  C   UNL     1      -0.988  10.339  23.211  0.00  0.00    +0.000 A 
ATOM     22  C   UNL     1       0.092   9.537  22.898  0.00  0.00    +0.000 A 
ATOM     23  N   UNL     1       1.046   9.885  22.007  0.00  0.00    +0.000 NA
ATOM     24  C   UNL     1       0.915  11.099  21.422  0.00  0.00    +0.000 A 
ENDBRANCH  16  19
ENDBRANCH  12  13
ENDBRANCH   1  12
BRANCH   8  25
ATOM     25  O   UNL     1      -4.128  12.646  20.884  0.00  0.00    +0.000 OA
BRANCH  25  26
ATOM     26  C   UNL     1      -4.593  12.643  22.232  0.00  0.00    +0.000 C 
BRANCH  26  27
ATOM     27  C   UNL     1      -3.947  13.791  22.973  0.00  0.00    +0.000 A 
ATOM     28  C   UNL     1      -3.740  15.026  22.337  0.00  0.00    +0.000 A 
ATOM     29  C   UNL     1      -3.165  16.094  23.023  0.00  0.00    +0.000 A 
ATOM     30  C   UNL     1      -2.803  15.949  24.360  0.00  0.00    +0.000 A 
ATOM     31  C   UNL     1      -3.023  14.736  25.011  0.00  0.00    +0.000 A 
ATOM     32  C   UNL     1      -3.599  13.663  24.325  0.00  0.00    +0.000 A 
ENDBRANCH  26  27
ENDBRANCH  25  26
ENDBRANCH   8  25
TORSDOF 6
ENDMDL
MODEL 6
REMARK VINA RESULT:      -7.1      8.267     11.790
REMARK  Name = 
REMARK  6 active torsions:
REMARK  status: ('A' for Active; 'I' for Inactive)
REMARK    1  A    between atoms: C_2  and  C_3
REMARK    2  A    between atoms: C_2  and  C_20
REMARK    3  A    between atoms: C_10  and  O_11
REMARK    4  A    between atoms: O_11  and  C_12
REMARK    5  A    between atoms: C_12  and  C_13
REMARK    6  A    between atoms: C_23  and  C_24
REMARK                            x       y       z     vdW  Elec       q    Type
REMARK                         _______ _______ _______ _____ _____    ______ ____
ROOT
ATOM      1  C   UNL     1      -4.819  12.289  18.810  0.00  0.00    +0.000 A 
ATOM      2  C   UNL     1      -5.972  12.428  18.056  0.00  0.00    +0.000 A 
ATOM      3  N   UNL     1      -5.807  11.780  16.867  0.00  0.00    +0.000 N 
ATOM      4  C   UNL     1      -4.545  11.249  16.787  0.00  0.00    +0.000 A 
ATOM      5  C   UNL     1      -3.961  10.520  15.749  0.00  0.00    +0.000 A 
ATOM      6  C   UNL     1      -2.645  10.096  15.914  0.00  0.00    +0.000 A 
ATOM      7  C   UNL     1      -1.938  10.406  17.076  0.00  0.00    +0.000 A 
ATOM      8  C   UNL     1      -2.531  11.145  18.114  0.00  0.00    +0.000 A 
ATOM      9  C   UNL     1      -3.881  11.558  17.982  0.00  0.00    +0.000 A 
ATOM     10  H   UNL     1      -6.511  11.698  16.147  0.00  0.00    +0.000 HD
ENDROOT
BRANCH   1  12
ATOM     11  O   UNL     1      -3.593  13.326  20.542  0.00  0.00    +0.000 OA
ATOM     12  C   UNL     1      -4.645  12.790  20.189  0.00  0.00    +0.000 C 
BRANCH  12  13
ATOM     13  C   UNL     1      -5.851  12.698  21.167  0.00  0.00    +0.000 C 
ATOM     14  C   UNL     1      -6.689  13.988  21.235  0.00  0.00    +0.000 C 
ATOM     15  S   UNL     1      -6.766  14.453  22.986  0.00  0.00    +0.000 S 
ATOM     16  C   UNL     1      -5.336  13.445  23.404  0.00  0.00    +0.000 C 
ATOM     17  N   UNL     1      -5.448  12.265  22.544  0.00  0.00    +0.000 NA
ATOM     18  H   UNL     1      -6.237  11.733  22.915  0.00  0.00    +0.000 HD
BRANCH  16  19
ATOM     19  C   UNL     1      -3.984  14.115  23.316  0.00  0.00    +0.000 A 
ATOM     20  C   UNL     1      -2.764  13.508  23.644  0.00  0.00    +0.000 A 
ATOM     21  C   UNL     1      -1.576  14.223  23.571  0.00  0.00    +0.000 A 
ATOM     22  C   UNL     1      -1.627  15.540  23.157  0.00  0.00    +0.000 A 
ATOM     23  N   UNL     1      -2.771  16.170  22.815  0.00  0.00    +0.000 NA
ATOM     24  C   UNL     1      -3.913  15.448  22.912  0.00  0.00    +0.000 A 
ENDBRANCH  16  19
ENDBRANCH  12  13
ENDBRANCH   1  12
BRANCH   8  25
ATOM     25  O   UNL     1      -1.882  11.463  19.273  0.00  0.00    +0.000 OA
BRANCH  25  26
ATOM     26  C   UNL     1      -0.501  11.121  19.378  0.00  0.00    +0.000 C 
BRANCH  26  27
ATOM     27  C   UNL     1      -0.253  10.505  20.736  0.00  0.00    +0.000 A 
ATOM     28  C   UNL     1       0.739   9.526  20.905  0.00  0.00    +0.000 A 
ATOM     29  C   UNL     1       0.987   8.970  22.158  0.00  0.00    +0.000 A 
ATOM     30  C   UNL     1       0.258   9.397  23.265  0.00  0.00    +0.000 A 
ATOM     31  C   UNL     1      -0.715  10.385  23.117  0.00  0.00    +0.000 A 
ATOM     32  C   UNL     1      -0.965  10.943  21.860  0.00  0.00    +0.000 A 
ENDBRANCH  26  27
ENDBRANCH  25  26
ENDBRANCH   8  25
TORSDOF 6
ENDMDL
MODEL 7
REMARK VINA RESULT:      -7.1      8.298     12.647
REMARK  Name = 
REMARK  6 active torsions:
REMARK  status: ('A' for Active; 'I' for Inactive)
REMARK    1  A    between atoms: C_2  and  C_3
REMARK    2  A    between atoms: C_2  and  C_20
REMARK    3  A    between atoms: C_10  and  O_11
REMARK    4  A    between atoms: O_11  and  C_12
REMARK    5  A    between atoms: C_12  and  C_13
REMARK    6  A    between atoms: C_23  and  C_24
REMARK                            x       y       z     vdW  Elec       q    Type
REMARK                         _______ _______ _______ _____ _____    ______ ____
ROOT
ATOM      1  C   UNL     1      -1.473  11.637  19.472  0.00  0.00    +0.000 A 
ATOM      2  C   UNL     1      -0.289  10.982  19.178  0.00  0.00    +0.000 A 
ATOM      3  N   UNL     1      -0.437  10.302  18.006  0.00  0.00    +0.000 N 
ATOM      4  C   UNL     1      -1.715  10.446  17.530  0.00  0.00    +0.000 A 
ATOM      5  C   UNL     1      -2.289   9.913  16.374  0.00  0.00    +0.000 A 
ATOM      6  C   UNL     1      -3.626  10.207  16.120  0.00  0.00    +0.000 A 
ATOM      7  C   UNL     1      -4.362  10.997  17.003  0.00  0.00    +0.000 A 
ATOM      8  C   UNL     1      -3.779  11.524  18.168  0.00  0.00    +0.000 A 
ATOM      9  C   UNL     1      -2.408  11.266  18.430  0.00  0.00    +0.000 A 
ATOM     10  H   UNL     1       0.290   9.768  17.547  0.00  0.00    +0.000 HD
ENDROOT
BRANCH   1  12
ATOM     11  O   UNL     1      -1.788  12.094  21.768  0.00  0.00    +0.000 OA
ATOM     12  C   UNL     1      -1.677  12.539  20.625  0.00  0.00    +0.000 C 
BRANCH  12  13
ATOM     13  C   UNL     1      -1.671  14.074  20.372  0.00  0.00    +0.000 C 
ATOM     14  C   UNL     1      -0.760  14.854  21.339  0.00  0.00    +0.000 C 
ATOM     15  S   UNL     1      -1.800  16.130  22.099  0.00  0.00    +0.000 S 
ATOM     16  C   UNL     1      -3.320  15.270  21.669  0.00  0.00    +0.000 C 
ATOM     17  N   UNL     1      -3.048  14.665  20.362  0.00  0.00    +0.000 NA
ATOM     18  H   UNL     1      -3.016  15.445  19.704  0.00  0.00    +0.000 HD
BRANCH  16  19
ATOM     19  C   UNL     1      -3.849  14.279  22.680  0.00  0.00    +0.000 A 
ATOM     20  C   UNL     1      -3.327  14.088  23.966  0.00  0.00    +0.000 A 
ATOM     21  C   UNL     1      -3.857  13.119  24.808  0.00  0.00    +0.000 A 
ATOM     22  C   UNL     1      -4.915  12.359  24.350  0.00  0.00    +0.000 A 
ATOM     23  N   UNL     1      -5.467  12.510  23.126  0.00  0.00    +0.000 NA
ATOM     24  C   UNL     1      -4.916  13.454  22.326  0.00  0.00    +0.000 A 
ENDBRANCH  16  19
ENDBRANCH  12  13
ENDBRANCH   1  12
BRANCH   8  25
ATOM     25  O   UNL     1      -4.456  12.310  19.056  0.00  0.00    +0.000 OA
BRANCH  25  26
ATOM     26  C   UNL     1      -5.879  12.333  18.973  0.00  0.00    +0.000 C 
BRANCH  26  27
ATOM     27  C   UNL     1      -6.311  13.649  18.366  0.00  0.00    +0.000 A 
ATOM     28  C   UNL     1      -6.661  13.729  17.008  0.00  0.00    +0.000 A 
ATOM     29  C   UNL     1      -7.080  14.934  16.449  0.00  0.00    +0.000 A 
ATOM     30  C   UNL     1      -7.173  16.074  17.243  0.00  0.00    +0.000 A 
ATOM     31  C   UNL     1      -6.851  16.005  18.598  0.00  0.00    +0.000 A 
ATOM     32  C   UNL     1      -6.429  14.797  19.160  0.00  0.00    +0.000 A 
ENDBRANCH  26  27
ENDBRANCH  25  26
ENDBRANCH   8  25
TORSDOF 6
ENDMDL
MODEL 8
REMARK VINA RESULT:      -7.0      7.194     11.776
REMARK  Name = 
REMARK  6 active torsions:
REMARK  status: ('A' for Active; 'I' for Inactive)
REMARK    1  A    between atoms: C_2  and  C_3
REMARK    2  A    between atoms: C_2  and  C_20
REMARK    3  A    between atoms: C_10  and  O_11
REMARK    4  A    between atoms: O_11  and  C_12
REMARK    5  A    between atoms: C_12  and  C_13
REMARK    6  A    between atoms: C_23  and  C_24
REMARK                            x       y       z     vdW  Elec       q    Type
REMARK                         _______ _______ _______ _____ _____    ______ ____
ROOT
ATOM      1  C   UNL     1      -4.367  12.222  18.841  0.00  0.00    +0.000 A 
ATOM      2  C   UNL     1      -5.492  12.621  18.138  0.00  0.00    +0.000 A 
ATOM      3  N   UNL     1      -5.482  12.029  16.910  0.00  0.00    +0.000 N 
ATOM      4  C   UNL     1      -4.346  11.277  16.754  0.00  0.00    +0.000 A 
ATOM      5  C   UNL     1      -3.937  10.518  15.655  0.00  0.00    +0.000 A 
ATOM      6  C   UNL     1      -2.721   9.846  15.748  0.00  0.00    +0.000 A 
ATOM      7  C   UNL     1      -1.939   9.945  16.899  0.00  0.00    +0.000 A 
ATOM      8  C   UNL     1      -2.355  10.716  17.998  0.00  0.00    +0.000 A 
ATOM      9  C   UNL     1      -3.606  11.382  17.939  0.00  0.00    +0.000 A 
ATOM     10  H   UNL     1      -6.207  12.126  16.212  0.00  0.00    +0.000 HD
ENDROOT
BRANCH   1  12
ATOM     11  O   UNL     1      -4.410  11.872  21.176  0.00  0.00    +0.000 OA
ATOM     12  C   UNL     1      -4.067  12.594  20.239  0.00  0.00    +0.000 C 
BRANCH  12  13
ATOM     13  C   UNL     1      -3.236  13.884  20.498  0.00  0.00    +0.000 C 
ATOM     14  C   UNL     1      -2.363  13.810  21.764  0.00  0.00    +0.000 C 
ATOM     15  S   UNL     1      -2.799  15.255  22.768  0.00  0.00    +0.000 S 
ATOM     16  C   UNL     1      -4.362  15.487  21.909  0.00  0.00    +0.000 C 
ATOM     17  N   UNL     1      -4.080  15.122  20.518  0.00  0.00    +0.000 NA
ATOM     18  H   UNL     1      -3.490  15.872  20.155  0.00  0.00    +0.000 HD
BRANCH  16  19
ATOM     19  C   UNL     1      -5.563  14.766  22.477  0.00  0.00    +0.000 A 
ATOM     20  C   UNL     1      -5.559  14.001  23.650  0.00  0.00    +0.000 A 
ATOM     21  C   UNL     1      -6.707  13.340  24.068  0.00  0.00    +0.000 A 
ATOM     22  C   UNL     1      -7.851  13.466  23.304  0.00  0.00    +0.000 A 
ATOM     23  N   UNL     1      -7.916  14.201  22.173  0.00  0.00    +0.000 NA
ATOM     24  C   UNL     1      -6.775  14.821  21.787  0.00  0.00    +0.000 A 
ENDBRANCH  16  19
ENDBRANCH  12  13
ENDBRANCH   1  12
BRANCH   8  25
ATOM     25  O   UNL     1      -1.629  10.834  19.149  0.00  0.00    +0.000 OA
BRANCH  25  26
ATOM     26  C   UNL     1      -0.255  11.198  19.034  0.00  0.00    +0.000 C 
BRANCH  26  27
ATOM     27  C   UNL     1       0.596   9.968  19.252  0.00  0.00    +0.000 A 
ATOM     28  C   UNL     1       0.598   9.312  20.493  0.00  0.00    +0.000 A 
ATOM     29  C   UNL     1       1.365   8.165  20.693  0.00  0.00    +0.000 A 
ATOM     30  C   UNL     1       2.128   7.648  19.649  0.00  0.00    +0.000 A 
ATOM     31  C   UNL     1       2.119   8.277  18.404  0.00  0.00    +0.000 A 
ATOM     32  C   UNL     1       1.351   9.427  18.203  0.00  0.00    +0.000 A 
ENDBRANCH  26  27
ENDBRANCH  25  26
ENDBRANCH   8  25
TORSDOF 6
ENDMDL
MODEL 9
REMARK VINA RESULT:      -7.0      7.333     11.915
REMARK  Name = 
REMARK  6 active torsions:
REMARK  status: ('A' for Active; 'I' for Inactive)
REMARK    1  A    between atoms: C_2  and  C_3
REMARK    2  A    between atoms: C_2  and  C_20
REMARK    3  A    between atoms: C_10  and  O_11
REMARK    4  A    between atoms: O_11  and  C_12
REMARK    5  A    between atoms: C_12  and  C_13
REMARK    6  A    between atoms: C_23  and  C_24
REMARK                            x       y       z     vdW  Elec       q    Type
REMARK                         _______ _______ _______ _____ _____    ______ ____
ROOT
ATOM      1  C   UNL     1      -4.644  12.163  18.838  0.00  0.00    +0.000 A 
ATOM      2  C   UNL     1      -5.775  12.500  18.113  0.00  0.00    +0.000 A 
ATOM      3  N   UNL     1      -5.680  11.957  16.865  0.00  0.00    +0.000 N 
ATOM      4  C   UNL     1      -4.483  11.303  16.721  0.00  0.00    +0.000 A 
ATOM      5  C   UNL     1      -3.982  10.621  15.611  0.00  0.00    +0.000 A 
ATOM      6  C   UNL     1      -2.719  10.043  15.720  0.00  0.00    +0.000 A 
ATOM      7  C   UNL     1      -1.984  10.159  16.900  0.00  0.00    +0.000 A 
ATOM      8  C   UNL     1      -2.493  10.853  18.011  0.00  0.00    +0.000 A 
ATOM      9  C   UNL     1      -3.791  11.420  17.934  0.00  0.00    +0.000 A 
ATOM     10  H   UNL     1      -6.389  12.023  16.147  0.00  0.00    +0.000 HD
ENDROOT
BRANCH   1  12
ATOM     11  O   UNL     1      -5.113  12.014  21.149  0.00  0.00    +0.000 OA
ATOM     12  C   UNL     1      -4.417  12.505  20.258  0.00  0.00    +0.000 C 
BRANCH  12  13
ATOM     13  C   UNL     1      -3.226  13.441  20.612  0.00  0.00    +0.000 C 
ATOM     14  C   UNL     1      -2.619  13.167  22.001  0.00  0.00    +0.000 C 
ATOM     15  S   UNL     1      -2.646  14.749  22.887  0.00  0.00    +0.000 S 
ATOM     16  C   UNL     1      -3.890  15.442  21.788  0.00  0.00    +0.000 C 
ATOM     17  N   UNL     1      -3.567  14.893  20.469  0.00  0.00    +0.000 NA
ATOM     18  H   UNL     1      -2.705  15.359  20.184  0.00  0.00    +0.000 HD
BRANCH  16  19
ATOM     19  C   UNL     1      -5.335  15.232  22.178  0.00  0.00    +0.000 A 
ATOM     20  C   UNL     1      -6.436  15.506  21.358  0.00  0.00    +0.000 A 
ATOM     21  C   UNL     1      -7.731  15.319  21.825  0.00  0.00    +0.000 A 
ATOM     22  C   UNL     1      -7.902  14.850  23.113  0.00  0.00    +0.000 A 
ATOM     23  N   UNL     1      -6.878  14.557  23.942  0.00  0.00    +0.000 NA
ATOM     24  C   UNL     1      -5.629  14.763  23.459  0.00  0.00    +0.000 A 
ENDBRANCH  16  19
ENDBRANCH  12  13
ENDBRANCH   1  12
BRANCH   8  25
ATOM     25  O   UNL     1      -1.815  10.983  19.189  0.00  0.00    +0.000 OA
BRANCH  25  26
ATOM     26  C   UNL     1      -0.409  11.217  19.124  0.00  0.00    +0.000 C 
BRANCH  26  27
ATOM     27  C   UNL     1       0.309  10.055  19.774  0.00  0.00    +0.000 A 
ATOM     28  C   UNL     1       0.043   9.707  21.107  0.00  0.00    +0.000 A 
ATOM     29  C   UNL     1       0.686   8.624  21.704  0.00  0.00    +0.000 A 
ATOM     30  C   UNL     1       1.593   7.864  20.970  0.00  0.00    +0.000 A 
ATOM     31  C   UNL     1       1.851   8.184  19.638  0.00  0.00    +0.000 A 
ATOM     32  C   UNL     1       1.207   9.270  19.038  0.00  0.00    +0.000 A 
ENDBRANCH  26  27
ENDBRANCH  25  26
ENDBRANCH   8  25
TORSDOF 6
ENDMDL
