MODEL 1
REMARK VINA RESULT:      -9.0      0.000      0.000
REMARK  Name = 
REMARK  5 active torsions:
REMARK  status: ('A' for Active; 'I' for Inactive)
REMARK    1  A    between atoms: C_1  and  C_2
REMARK    2  A    between atoms: C_5  and  N_6
REMARK    3  A    between atoms: C_7  and  C_9
REMARK    4  A    between atoms: C_11  and  S_12
REMARK    5  A    between atoms: S_12  and  N_15
REMARK                            x       y       z     vdW  Elec       q    Type
REMARK                         _______ _______ _______ _____ _____    ______ ____
ROOT
ATOM      1  C   UNL     1       1.349   8.884  19.523  0.00  0.00    +0.000 A 
ATOM      2  C   UNL     1       0.671  10.098  19.299  0.00  0.00    +0.000 A 
ATOM      3  C   UNL     1      -0.044  10.710  20.337  0.00  0.00    +0.000 A 
ATOM      4  C   UNL     1      -0.073  10.132  21.611  0.00  0.00    +0.000 A 
ATOM      5  C   UNL     1       0.580   8.920  21.832  0.00  0.00    +0.000 A 
ATOM      6  C   UNL     1       1.280   8.305  20.793  0.00  0.00    +0.000 A 
ATOM      7  F   UNL     1       1.903   7.147  21.059  0.00  0.00    +0.000 F 
ENDROOT
BRANCH   1   9
ATOM      8  N   UNL     1       2.790   7.090  18.637  0.00  0.00    +0.000 N 
ATOM      9  C   UNL     1       2.138   8.290  18.396  0.00  0.00    +0.000 C 
ATOM     10  O   UNL     1       2.152   8.908  17.335  0.00  0.00    +0.000 OA
ATOM     11  H   UNL     1       2.658   6.665  19.551  0.00  0.00    +0.000 HD
BRANCH   8  16
ATOM     12  C   UNL     1       6.040   3.952  15.088  0.00  0.00    +0.000 C 
ATOM     13  C   UNL     1       5.205   4.794  16.002  0.00  0.00    +0.000 A 
ATOM     14  C   UNL     1       5.270   6.188  15.963  0.00  0.00    +0.000 A 
ATOM     15  C   UNL     1       4.484   6.965  16.825  0.00  0.00    +0.000 A 
ATOM     16  C   UNL     1       3.617   6.367  17.744  0.00  0.00    +0.000 A 
ATOM     17  C   UNL     1       3.567   4.970  17.797  0.00  0.00    +0.000 A 
ATOM     18  C   UNL     1       4.353   4.203  16.935  0.00  0.00    +0.000 A 
ATOM     19  F   UNL     1       4.277   2.866  17.009  0.00  0.00    +0.000 F 
ENDBRANCH   8  16
ENDBRANCH   1   9
BRANCH   3  20
ATOM     20  S   UNL     1      -0.756  12.336  20.103  0.00  0.00    +0.000 S 
ATOM     21  O   UNL     1      -0.368  13.119  21.257  0.00  0.00    +0.000 OA
ATOM     22  O   UNL     1      -0.358  12.777  18.781  0.00  0.00    +0.000 OA
BRANCH  20  23
ATOM     23  N   UNL     1      -2.442  12.053  20.109  0.00  0.00    +0.000 N 
ATOM     24  C   UNL     1      -3.221  12.664  21.218  0.00  0.00    +0.000 C 
ATOM     25  C   UNL     1      -4.148  13.744  20.697  0.00  0.00    +0.000 C 
ATOM     26  C   UNL     1      -5.127  13.148  19.699  0.00  0.00    +0.000 C 
ATOM     27  C   UNL     1      -4.442  12.285  18.672  0.00  0.00    +0.000 A 
ATOM     28  C   UNL     1      -5.163  11.950  17.511  0.00  0.00    +0.000 A 
ATOM     29  C   UNL     1      -4.620  11.092  16.561  0.00  0.00    +0.000 A 
ATOM     30  C   UNL     1      -3.363  10.542  16.774  0.00  0.00    +0.000 A 
ATOM     31  C   UNL     1      -2.646  10.857  17.934  0.00  0.00    +0.000 A 
ATOM     32  C   UNL     1      -3.154  11.751  18.884  0.00  0.00    +0.000 A 
ENDBRANCH  20  23
ENDBRANCH   3  20
TORSDOF 4
ENDMDL
MODEL 2
REMARK VINA RESULT:      -9.0      6.132      9.477
REMARK  Name = 
REMARK  5 active torsions:
REMARK  status: ('A' for Active; 'I' for Inactive)
REMARK    1  A    between atoms: C_1  and  C_2
REMARK    2  A    between atoms: C_5  and  N_6
REMARK    3  A    between atoms: C_7  and  C_9
REMARK    4  A    between atoms: C_11  and  S_12
REMARK    5  A    between atoms: S_12  and  N_15
REMARK                            x       y       z     vdW  Elec       q    Type
REMARK                         _______ _______ _______ _____ _____    ______ ____
ROOT
ATOM      1  C   UNL     1       7.787   7.420  18.067  0.00  0.00    +0.000 A 
ATOM      2  C   UNL     1       6.932   6.998  17.030  0.00  0.00    +0.000 A 
ATOM      3  C   UNL     1       6.536   5.657  16.943  0.00  0.00    +0.000 A 
ATOM      4  C   UNL     1       6.967   4.729  17.897  0.00  0.00    +0.000 A 
ATOM      5  C   UNL     1       7.830   5.138  18.914  0.00  0.00    +0.000 A 
ATOM      6  C   UNL     1       8.235   6.472  18.991  0.00  0.00    +0.000 A 
ATOM      7  F   UNL     1       9.054   6.819  19.996  0.00  0.00    +0.000 F 
ENDROOT
BRANCH   1   9
ATOM      8  N   UNL     1       9.119   9.238  19.066  0.00  0.00    +0.000 N 
ATOM      9  C   UNL     1       8.147   8.872  18.148  0.00  0.00    +0.000 C 
ATOM     10  O   UNL     1       7.556   9.638  17.392  0.00  0.00    +0.000 OA
ATOM     11  H   UNL     1       9.557   8.494  19.600  0.00  0.00    +0.000 HD
BRANCH   8  16
ATOM     12  C   UNL     1      10.984  14.500  20.424  0.00  0.00    +0.000 C 
ATOM     13  C   UNL     1      10.506  13.134  20.042  0.00  0.00    +0.000 A 
ATOM     14  C   UNL     1      10.664  12.648  18.742  0.00  0.00    +0.000 A 
ATOM     15  C   UNL     1      10.211  11.367  18.398  0.00  0.00    +0.000 A 
ATOM     16  C   UNL     1       9.591  10.544  19.344  0.00  0.00    +0.000 A 
ATOM     17  C   UNL     1       9.416  11.038  20.640  0.00  0.00    +0.000 A 
ATOM     18  C   UNL     1       9.870  12.315  20.975  0.00  0.00    +0.000 A 
ATOM     19  F   UNL     1       9.689  12.756  22.229  0.00  0.00    +0.000 F 
ENDBRANCH   8  16
ENDBRANCH   1   9
BRANCH   3  20
ATOM     20  S   UNL     1       5.313   5.156  15.735  0.00  0.00    +0.000 S 
ATOM     21  O   UNL     1       5.038   6.326  14.927  0.00  0.00    +0.000 OA
ATOM     22  O   UNL     1       5.825   3.959  15.097  0.00  0.00    +0.000 OA
BRANCH  20  23
ATOM     23  N   UNL     1       3.948   4.743  16.677  0.00  0.00    +0.000 N 
ATOM     24  C   UNL     1       3.689   3.294  16.883  0.00  0.00    +0.000 C 
ATOM     25  C   UNL     1       3.888   2.909  18.335  0.00  0.00    +0.000 C 
ATOM     26  C   UNL     1       2.931   3.694  19.215  0.00  0.00    +0.000 C 
ATOM     27  C   UNL     1       2.934   5.165  18.894  0.00  0.00    +0.000 A 
ATOM     28  C   UNL     1       2.361   6.043  19.833  0.00  0.00    +0.000 A 
ATOM     29  C   UNL     1       2.261   7.404  19.562  0.00  0.00    +0.000 A 
ATOM     30  C   UNL     1       2.708   7.895  18.343  0.00  0.00    +0.000 A 
ATOM     31  C   UNL     1       3.264   7.027  17.398  0.00  0.00    +0.000 A 
ATOM     32  C   UNL     1       3.414   5.660  17.663  0.00  0.00    +0.000 A 
ENDBRANCH  20  23
ENDBRANCH   3  20
TORSDOF 4
ENDMDL
MODEL 3
REMARK VINA RESULT:      -8.9      6.120      9.499
REMARK  Name = 
REMARK  5 active torsions:
REMARK  status: ('A' for Active; 'I' for Inactive)
REMARK    1  A    between atoms: C_1  and  C_2
REMARK    2  A    between atoms: C_5  and  N_6
REMARK    3  A    between atoms: C_7  and  C_9
REMARK    4  A    between atoms: C_11  and  S_12
REMARK    5  A    between atoms: S_12  and  N_15
REMARK                            x       y       z     vdW  Elec       q    Type
REMARK                         _______ _______ _______ _____ _____    ______ ____
ROOT
ATOM      1  C   UNL     1       7.784   7.447  18.089  0.00  0.00    +0.000 A 
ATOM      2  C   UNL     1       6.926   7.047  17.046  0.00  0.00    +0.000 A 
ATOM      3  C   UNL     1       6.533   5.708  16.929  0.00  0.00    +0.000 A 
ATOM      4  C   UNL     1       6.970   4.760  17.860  0.00  0.00    +0.000 A 
ATOM      5  C   UNL     1       7.835   5.147  18.883  0.00  0.00    +0.000 A 
ATOM      6  C   UNL     1       8.237   6.479  18.990  0.00  0.00    +0.000 A 
ATOM      7  F   UNL     1       9.060   6.805  19.999  0.00  0.00    +0.000 F 
ENDROOT
BRANCH   1   9
ATOM      8  N   UNL     1       9.138   9.241  19.103  0.00  0.00    +0.000 N 
ATOM      9  C   UNL     1       8.142   8.898  18.202  0.00  0.00    +0.000 C 
ATOM     10  O   UNL     1       7.527   9.683  17.485  0.00  0.00    +0.000 OA
ATOM     11  H   UNL     1       9.594   8.483  19.602  0.00  0.00    +0.000 HD
BRANCH   8  16
ATOM     12  C   UNL     1      11.127  14.540  20.094  0.00  0.00    +0.000 C 
ATOM     13  C   UNL     1      10.600  13.157  19.864  0.00  0.00    +0.000 A 
ATOM     14  C   UNL     1       9.967  12.444  20.885  0.00  0.00    +0.000 A 
ATOM     15  C   UNL     1       9.480  11.150  20.656  0.00  0.00    +0.000 A 
ATOM     16  C   UNL     1       9.614  10.540  19.405  0.00  0.00    +0.000 A 
ATOM     17  C   UNL     1      10.265  11.248  18.388  0.00  0.00    +0.000 A 
ATOM     18  C   UNL     1      10.748  12.536  18.624  0.00  0.00    +0.000 A 
ATOM     19  F   UNL     1      11.363  13.187  17.626  0.00  0.00    +0.000 F 
ENDBRANCH   8  16
ENDBRANCH   1   9
BRANCH   3  20
ATOM     20  S   UNL     1       5.307   5.233  15.714  0.00  0.00    +0.000 S 
ATOM     21  O   UNL     1       5.023   6.421  14.937  0.00  0.00    +0.000 OA
ATOM     22  O   UNL     1       5.820   4.054  15.045  0.00  0.00    +0.000 OA
BRANCH  20  23
ATOM     23  N   UNL     1       3.947   4.791  16.652  0.00  0.00    +0.000 N 
ATOM     24  C   UNL     1       3.697   3.337  16.828  0.00  0.00    +0.000 C 
ATOM     25  C   UNL     1       3.904   2.922  18.271  0.00  0.00    +0.000 C 
ATOM     26  C   UNL     1       2.945   3.682  19.170  0.00  0.00    +0.000 C 
ATOM     27  C   UNL     1       2.938   5.160  18.881  0.00  0.00    +0.000 A 
ATOM     28  C   UNL     1       2.363   6.014  19.840  0.00  0.00    +0.000 A 
ATOM     29  C   UNL     1       2.253   7.379  19.599  0.00  0.00    +0.000 A 
ATOM     30  C   UNL     1       2.693   7.900  18.389  0.00  0.00    +0.000 A 
ATOM     31  C   UNL     1       3.252   7.055  17.423  0.00  0.00    +0.000 A 
ATOM     32  C   UNL     1       3.411   5.684  17.659  0.00  0.00    +0.000 A 
ENDBRANCH  20  23
ENDBRANCH   3  20
TORSDOF 4
ENDMDL
MODEL 4
REMARK VINA RESULT:      -8.8      1.038      2.206
REMARK  Name = 
REMARK  5 active torsions:
REMARK  status: ('A' for Active; 'I' for Inactive)
REMARK    1  A    between atoms: C_1  and  C_2
REMARK    2  A    between atoms: C_5  and  N_6
REMARK    3  A    between atoms: C_7  and  C_9
REMARK    4  A    between atoms: C_11  and  S_12
REMARK    5  A    between atoms: S_12  and  N_15
REMARK                            x       y       z     vdW  Elec       q    Type
REMARK                         _______ _______ _______ _____ _____    ______ ____
ROOT
ATOM      1  C   UNL     1       1.454   8.889  19.634  0.00  0.00    +0.000 A 
ATOM      2  C   UNL     1       1.193  10.272  19.559  0.00  0.00    +0.000 A 
ATOM      3  C   UNL     1       0.572  10.933  20.627  0.00  0.00    +0.000 A 
ATOM      4  C   UNL     1       0.226  10.231  21.787  0.00  0.00    +0.000 A 
ATOM      5  C   UNL     1       0.463   8.859  21.858  0.00  0.00    +0.000 A 
ATOM      6  C   UNL     1       1.070   8.199  20.788  0.00  0.00    +0.000 A 
ATOM      7  F   UNL     1       1.290   6.881  20.910  0.00  0.00    +0.000 F 
ENDROOT
BRANCH   1   9
ATOM      8  N   UNL     1       2.917   7.105  18.766  0.00  0.00    +0.000 N 
ATOM      9  C   UNL     1       2.161   8.234  18.488  0.00  0.00    +0.000 C 
ATOM     10  O   UNL     1       2.022   8.743  17.379  0.00  0.00    +0.000 OA
ATOM     11  H   UNL     1       2.910   6.766  19.724  0.00  0.00    +0.000 HD
BRANCH   8  16
ATOM     12  C   UNL     1       5.952   3.829  15.152  0.00  0.00    +0.000 C 
ATOM     13  C   UNL     1       5.176   4.706  16.083  0.00  0.00    +0.000 A 
ATOM     14  C   UNL     1       5.339   6.093  16.077  0.00  0.00    +0.000 A 
ATOM     15  C   UNL     1       4.605   6.903  16.956  0.00  0.00    +0.000 A 
ATOM     16  C   UNL     1       3.695   6.346  17.858  0.00  0.00    +0.000 A 
ATOM     17  C   UNL     1       3.546   4.955  17.877  0.00  0.00    +0.000 A 
ATOM     18  C   UNL     1       4.280   4.156  16.999  0.00  0.00    +0.000 A 
ATOM     19  F   UNL     1       4.109   2.826  17.042  0.00  0.00    +0.000 F 
ENDBRANCH   8  16
ENDBRANCH   1   9
BRANCH   3  20
ATOM     20  S   UNL     1       0.401  12.715  20.605  0.00  0.00    +0.000 S 
ATOM     21  O   UNL     1       0.235  13.124  21.984  0.00  0.00    +0.000 OA
ATOM     22  O   UNL     1       1.523  13.230  19.844  0.00  0.00    +0.000 OA
BRANCH  20  23
ATOM     23  N   UNL     1      -1.038  12.980  19.722  0.00  0.00    +0.000 N 
ATOM     24  C   UNL     1      -0.976  12.755  18.254  0.00  0.00    +0.000 C 
ATOM     25  C   UNL     1      -1.822  11.562  17.853  0.00  0.00    +0.000 C 
ATOM     26  C   UNL     1      -3.271  11.803  18.238  0.00  0.00    +0.000 C 
ATOM     27  C   UNL     1      -3.414  12.293  19.654  0.00  0.00    +0.000 A 
ATOM     28  C   UNL     1      -4.691  12.236  20.243  0.00  0.00    +0.000 A 
ATOM     29  C   UNL     1      -4.907  12.746  21.519  0.00  0.00    +0.000 A 
ATOM     30  C   UNL     1      -3.857  13.339  22.207  0.00  0.00    +0.000 A 
ATOM     31  C   UNL     1      -2.588  13.414  21.623  0.00  0.00    +0.000 A 
ATOM     32  C   UNL     1      -2.336  12.871  20.357  0.00  0.00    +0.000 A 
ENDBRANCH  20  23
ENDBRANCH   3  20
TORSDOF 4
ENDMDL
MODEL 5
REMARK VINA RESULT:      -8.8      3.018      4.027
REMARK  Name = 
REMARK  5 active torsions:
REMARK  status: ('A' for Active; 'I' for Inactive)
REMARK    1  A    between atoms: C_1  and  C_2
REMARK    2  A    between atoms: C_5  and  N_6
REMARK    3  A    between atoms: C_7  and  C_9
REMARK    4  A    between atoms: C_11  and  S_12
REMARK    5  A    between atoms: S_12  and  N_15
REMARK                            x       y       z     vdW  Elec       q    Type
REMARK                         _______ _______ _______ _____ _____    ______ ____
ROOT
ATOM      1  C   UNL     1       1.240   9.296  19.319  0.00  0.00    +0.000 A 
ATOM      2  C   UNL     1       0.613  10.494  18.921  0.00  0.00    +0.000 A 
ATOM      3  C   UNL     1      -0.140  11.237  19.840  0.00  0.00    +0.000 A 
ATOM      4  C   UNL     1      -0.258  10.809  21.166  0.00  0.00    +0.000 A 
ATOM      5  C   UNL     1       0.344   9.613  21.560  0.00  0.00    +0.000 A 
ATOM      6  C   UNL     1       1.082   8.867  20.640  0.00  0.00    +0.000 A 
ATOM      7  F   UNL     1       1.653   7.732  21.071  0.00  0.00    +0.000 F 
ENDROOT
BRANCH   1   9
ATOM      8  N   UNL     1       2.596   7.333  18.698  0.00  0.00    +0.000 N 
ATOM      9  C   UNL     1       2.072   8.559  18.315  0.00  0.00    +0.000 C 
ATOM     10  O   UNL     1       2.232   9.092  17.221  0.00  0.00    +0.000 OA
ATOM     11  H   UNL     1       2.348   6.991  19.621  0.00  0.00    +0.000 HD
BRANCH   8  16
ATOM     12  C   UNL     1       5.843   3.698  15.656  0.00  0.00    +0.000 C 
ATOM     13  C   UNL     1       5.015   4.667  16.441  0.00  0.00    +0.000 A 
ATOM     14  C   UNL     1       5.343   6.024  16.494  0.00  0.00    +0.000 A 
ATOM     15  C   UNL     1       4.560   6.920  17.235  0.00  0.00    +0.000 A 
ATOM     16  C   UNL     1       3.434   6.482  17.938  0.00  0.00    +0.000 A 
ATOM     17  C   UNL     1       3.117   5.120  17.901  0.00  0.00    +0.000 A 
ATOM     18  C   UNL     1       3.902   4.234  17.161  0.00  0.00    +0.000 A 
ATOM     19  F   UNL     1       3.567   2.935  17.144  0.00  0.00    +0.000 F 
ENDBRANCH   8  16
ENDBRANCH   1   9
BRANCH   3  20
ATOM     20  S   UNL     1      -0.786  12.842  19.383  0.00  0.00    +0.000 S 
ATOM     21  O   UNL     1      -1.077  12.776  17.966  0.00  0.00    +0.000 OA
ATOM     22  O   UNL     1      -1.859  13.138  20.313  0.00  0.00    +0.000 OA
BRANCH  20  23
ATOM     23  N   UNL     1       0.515  13.910  19.679  0.00  0.00    +0.000 N 
ATOM     24  C   UNL     1       1.808  13.297  20.083  0.00  0.00    +0.000 C 
ATOM     25  C   UNL     1       2.858  13.490  19.008  0.00  0.00    +0.000 C 
ATOM     26  C   UNL     1       3.088  14.973  18.769  0.00  0.00    +0.000 C 
ATOM     27  C   UNL     1       1.798  15.733  18.605  0.00  0.00    +0.000 A 
ATOM     28  C   UNL     1       1.864  17.026  18.054  0.00  0.00    +0.000 A 
ATOM     29  C   UNL     1       0.721  17.811  17.950  0.00  0.00    +0.000 A 
ATOM     30  C   UNL     1      -0.492  17.323  18.417  0.00  0.00    +0.000 A 
ATOM     31  C   UNL     1      -0.563  16.044  18.980  0.00  0.00    +0.000 A 
ATOM     32  C   UNL     1       0.565  15.219  19.059  0.00  0.00    +0.000 A 
ENDBRANCH  20  23
ENDBRANCH   3  20
TORSDOF 4
ENDMDL
MODEL 6
REMARK VINA RESULT:      -8.8      2.339      3.598
REMARK  Name = 
REMARK  5 active torsions:
REMARK  status: ('A' for Active; 'I' for Inactive)
REMARK    1  A    between atoms: C_1  and  C_2
REMARK    2  A    between atoms: C_5  and  N_6
REMARK    3  A    between atoms: C_7  and  C_9
REMARK    4  A    between atoms: C_11  and  S_12
REMARK    5  A    between atoms: S_12  and  N_15
REMARK                            x       y       z     vdW  Elec       q    Type
REMARK                         _______ _______ _______ _____ _____    ______ ____
ROOT
ATOM      1  C   UNL     1       1.066   9.243  19.359  0.00  0.00    +0.000 A 
ATOM      2  C   UNL     1       0.199  10.254  18.897  0.00  0.00    +0.000 A 
ATOM      3  C   UNL     1      -0.614  10.953  19.799  0.00  0.00    +0.000 A 
ATOM      4  C   UNL     1      -0.557  10.669  21.168  0.00  0.00    +0.000 A 
ATOM      5  C   UNL     1       0.284   9.656  21.627  0.00  0.00    +0.000 A 
ATOM      6  C   UNL     1       1.084   8.952  20.726  0.00  0.00    +0.000 A 
ATOM      7  F   UNL     1       1.887   7.996  21.218  0.00  0.00    +0.000 F 
ENDROOT
BRANCH   1   9
ATOM      8  N   UNL     1       2.444   7.305  18.709  0.00  0.00    +0.000 N 
ATOM      9  C   UNL     1       1.951   8.555  18.365  0.00  0.00    +0.000 C 
ATOM     10  O   UNL     1       2.178   9.146  17.313  0.00  0.00    +0.000 OA
ATOM     11  H   UNL     1       2.141   6.914  19.596  0.00  0.00    +0.000 HD
BRANCH   8  16
ATOM     12  C   UNL     1       5.845   3.808  15.674  0.00  0.00    +0.000 C 
ATOM     13  C   UNL     1       4.977   4.742  16.458  0.00  0.00    +0.000 A 
ATOM     14  C   UNL     1       5.274   6.104  16.548  0.00  0.00    +0.000 A 
ATOM     15  C   UNL     1       4.453   6.967  17.288  0.00  0.00    +0.000 A 
ATOM     16  C   UNL     1       3.320   6.489  17.953  0.00  0.00    +0.000 A 
ATOM     17  C   UNL     1       3.034   5.121  17.878  0.00  0.00    +0.000 A 
ATOM     18  C   UNL     1       3.856   4.268  17.140  0.00  0.00    +0.000 A 
ATOM     19  F   UNL     1       3.550   2.963  17.087  0.00  0.00    +0.000 F 
ENDBRANCH   8  16
ENDBRANCH   1   9
BRANCH   3  20
ATOM     20  S   UNL     1      -1.582  12.351  19.240  0.00  0.00    +0.000 S 
ATOM     21  O   UNL     1      -1.518  12.337  17.793  0.00  0.00    +0.000 OA
ATOM     22  O   UNL     1      -2.872  12.251  19.893  0.00  0.00    +0.000 OA
BRANCH  20  23
ATOM     23  N   UNL     1      -0.748  13.706  19.864  0.00  0.00    +0.000 N 
ATOM     24  C   UNL     1      -1.352  14.382  21.042  0.00  0.00    +0.000 C 
ATOM     25  C   UNL     1      -0.483  14.206  22.272  0.00  0.00    +0.000 C 
ATOM     26  C   UNL     1       0.889  14.811  22.028  0.00  0.00    +0.000 C 
ATOM     27  C   UNL     1       1.478  14.379  20.711  0.00  0.00    +0.000 A 
ATOM     28  C   UNL     1       2.855  14.586  20.509  0.00  0.00    +0.000 A 
ATOM     29  C   UNL     1       3.446  14.283  19.287  0.00  0.00    +0.000 A 
ATOM     30  C   UNL     1       2.664  13.796  18.249  0.00  0.00    +0.000 A 
ATOM     31  C   UNL     1       1.290  13.602  18.436  0.00  0.00    +0.000 A 
ATOM     32  C   UNL     1       0.680  13.860  19.669  0.00  0.00    +0.000 A 
ENDBRANCH  20  23
ENDBRANCH   3  20
TORSDOF 4
ENDMDL
MODEL 7
REMARK VINA RESULT:      -8.8      3.178      4.237
REMARK  Name = 
REMARK  5 active torsions:
REMARK  status: ('A' for Active; 'I' for Inactive)
REMARK    1  A    between atoms: C_1  and  C_2
REMARK    2  A    between atoms: C_5  and  N_6
REMARK    3  A    between atoms: C_7  and  C_9
REMARK    4  A    between atoms: C_11  and  S_12
REMARK    5  A    between atoms: S_12  and  N_15
REMARK                            x       y       z     vdW  Elec       q    Type
REMARK                         _______ _______ _______ _____ _____    ______ ____
ROOT
ATOM      1  C   UNL     1       1.183   9.301  19.339  0.00  0.00    +0.000 A 
ATOM      2  C   UNL     1       0.591  10.501  18.899  0.00  0.00    +0.000 A 
ATOM      3  C   UNL     1      -0.130  11.303  19.793  0.00  0.00    +0.000 A 
ATOM      4  C   UNL     1      -0.249  10.932  21.136  0.00  0.00    +0.000 A 
ATOM      5  C   UNL     1       0.318   9.734  21.573  0.00  0.00    +0.000 A 
ATOM      6  C   UNL     1       1.024   8.930  20.678  0.00  0.00    +0.000 A 
ATOM      7  F   UNL     1       1.563   7.794  21.149  0.00  0.00    +0.000 F 
ENDROOT
BRANCH   1   9
ATOM      8  N   UNL     1       2.426   7.249  18.768  0.00  0.00    +0.000 N 
ATOM      9  C   UNL     1       1.983   8.498  18.359  0.00  0.00    +0.000 C 
ATOM     10  O   UNL     1       2.191   9.003  17.259  0.00  0.00    +0.000 OA
ATOM     11  H   UNL     1       2.145   6.937  19.692  0.00  0.00    +0.000 HD
BRANCH   8  16
ATOM     12  C   UNL     1       5.829   3.713  15.781  0.00  0.00    +0.000 C 
ATOM     13  C   UNL     1       4.922   4.613  16.561  0.00  0.00    +0.000 A 
ATOM     14  C   UNL     1       3.698   4.156  17.055  0.00  0.00    +0.000 A 
ATOM     15  C   UNL     1       2.858   5.011  17.783  0.00  0.00    +0.000 A 
ATOM     16  C   UNL     1       3.222   6.337  18.033  0.00  0.00    +0.000 A 
ATOM     17  C   UNL     1       4.439   6.799  17.522  0.00  0.00    +0.000 A 
ATOM     18  C   UNL     1       5.270   5.943  16.798  0.00  0.00    +0.000 A 
ATOM     19  F   UNL     1       6.432   6.418  16.326  0.00  0.00    +0.000 F 
ENDBRANCH   8  16
ENDBRANCH   1   9
BRANCH   3  20
ATOM     20  S   UNL     1      -0.729  12.909  19.278  0.00  0.00    +0.000 S 
ATOM     21  O   UNL     1      -1.011  12.803  17.862  0.00  0.00    +0.000 OA
ATOM     22  O   UNL     1      -1.801  13.264  20.189  0.00  0.00    +0.000 OA
BRANCH  20  23
ATOM     23  N   UNL     1       0.597  13.951  19.550  0.00  0.00    +0.000 N 
ATOM     24  C   UNL     1       1.885  13.313  19.930  0.00  0.00    +0.000 C 
ATOM     25  C   UNL     1       2.919  13.486  18.835  0.00  0.00    +0.000 C 
ATOM     26  C   UNL     1       3.173  14.964  18.592  0.00  0.00    +0.000 C 
ATOM     27  C   UNL     1       1.896  15.749  18.452  0.00  0.00    +0.000 A 
ATOM     28  C   UNL     1       1.976  17.041  17.900  0.00  0.00    +0.000 A 
ATOM     29  C   UNL     1       0.847  17.848  17.817  0.00  0.00    +0.000 A 
ATOM     30  C   UNL     1      -0.366  17.383  18.306  0.00  0.00    +0.000 A 
ATOM     31  C   UNL     1      -0.452  16.106  18.871  0.00  0.00    +0.000 A 
ATOM     32  C   UNL     1       0.662  15.259  18.929  0.00  0.00    +0.000 A 
ENDBRANCH  20  23
ENDBRANCH   3  20
TORSDOF 4
ENDMDL
MODEL 8
REMARK VINA RESULT:      -8.7      0.897      1.203
REMARK  Name = 
REMARK  5 active torsions:
REMARK  status: ('A' for Active; 'I' for Inactive)
REMARK    1  A    between atoms: C_1  and  C_2
REMARK    2  A    between atoms: C_5  and  N_6
REMARK    3  A    between atoms: C_7  and  C_9
REMARK    4  A    between atoms: C_11  and  S_12
REMARK    5  A    between atoms: S_12  and  N_15
REMARK                            x       y       z     vdW  Elec       q    Type
REMARK                         _______ _______ _______ _____ _____    ______ ____
ROOT
ATOM      1  C   UNL     1       1.410   8.721  19.588  0.00  0.00    +0.000 A 
ATOM      2  C   UNL     1       0.788   9.954  19.310  0.00  0.00    +0.000 A 
ATOM      3  C   UNL     1       0.067  10.623  20.308  0.00  0.00    +0.000 A 
ATOM      4  C   UNL     1      -0.023  10.084  21.595  0.00  0.00    +0.000 A 
ATOM      5  C   UNL     1       0.574   8.854  21.871  0.00  0.00    +0.000 A 
ATOM      6  C   UNL     1       1.280   8.182  20.871  0.00  0.00    +0.000 A 
ATOM      7  F   UNL     1       1.849   7.009  21.189  0.00  0.00    +0.000 F 
ENDROOT
BRANCH   1   9
ATOM      8  N   UNL     1       2.802   6.846  18.797  0.00  0.00    +0.000 N 
ATOM      9  C   UNL     1       2.209   8.064  18.503  0.00  0.00    +0.000 C 
ATOM     10  O   UNL     1       2.281   8.652  17.428  0.00  0.00    +0.000 OA
ATOM     11  H   UNL     1       2.624   6.453  19.717  0.00  0.00    +0.000 HD
BRANCH   8  16
ATOM     12  C   UNL     1       6.318   3.844  15.386  0.00  0.00    +0.000 C 
ATOM     13  C   UNL     1       5.382   4.604  16.273  0.00  0.00    +0.000 A 
ATOM     14  C   UNL     1       4.151   4.067  16.658  0.00  0.00    +0.000 A 
ATOM     15  C   UNL     1       3.284   4.791  17.488  0.00  0.00    +0.000 A 
ATOM     16  C   UNL     1       3.626   6.065  17.951  0.00  0.00    +0.000 A 
ATOM     17  C   UNL     1       4.850   6.611  17.550  0.00  0.00    +0.000 A 
ATOM     18  C   UNL     1       5.709   5.884  16.723  0.00  0.00    +0.000 A 
ATOM     19  F   UNL     1       6.876   6.435  16.361  0.00  0.00    +0.000 F 
ENDBRANCH   8  16
ENDBRANCH   1   9
BRANCH   3  20
ATOM     20  S   UNL     1      -0.572  12.268  20.007  0.00  0.00    +0.000 S 
ATOM     21  O   UNL     1      -0.004  13.119  21.032  0.00  0.00    +0.000 OA
ATOM     22  O   UNL     1      -0.309  12.567  18.613  0.00  0.00    +0.000 OA
BRANCH  20  23
ATOM     23  N   UNL     1      -2.258  12.103  20.230  0.00  0.00    +0.000 N 
ATOM     24  C   UNL     1      -2.850  12.791  21.407  0.00  0.00    +0.000 C 
ATOM     25  C   UNL     1      -3.762  13.920  20.972  0.00  0.00    +0.000 C 
ATOM     26  C   UNL     1      -4.895  13.372  20.121  0.00  0.00    +0.000 C 
ATOM     27  C   UNL     1      -4.404  12.441  19.045  0.00  0.00    +0.000 A 
ATOM     28  C   UNL     1      -5.286  12.130  17.993  0.00  0.00    +0.000 A 
ATOM     29  C   UNL     1      -4.923  11.215  17.011  0.00  0.00    +0.000 A 
ATOM     30  C   UNL     1      -3.688  10.584  17.083  0.00  0.00    +0.000 A 
ATOM     31  C   UNL     1      -2.812  10.876  18.135  0.00  0.00    +0.000 A 
ATOM     32  C   UNL     1      -3.137  11.823  19.112  0.00  0.00    +0.000 A 
ENDBRANCH  20  23
ENDBRANCH   3  20
TORSDOF 4
ENDMDL
MODEL 9
REMARK VINA RESULT:      -8.7      1.351      2.522
REMARK  Name = 
REMARK  5 active torsions:
REMARK  status: ('A' for Active; 'I' for Inactive)
REMARK    1  A    between atoms: C_1  and  C_2
REMARK    2  A    between atoms: C_5  and  N_6
REMARK    3  A    between atoms: C_7  and  C_9
REMARK    4  A    between atoms: C_11  and  S_12
REMARK    5  A    between atoms: S_12  and  N_15
REMARK                            x       y       z     vdW  Elec       q    Type
REMARK                         _______ _______ _______ _____ _____    ______ ____
ROOT
ATOM      1  C   UNL     1       1.374   8.814  19.799  0.00  0.00    +0.000 A 
ATOM      2  C   UNL     1       1.165  10.200  19.662  0.00  0.00    +0.000 A 
ATOM      3  C   UNL     1       0.577  10.932  20.702  0.00  0.00    +0.000 A 
ATOM      4  C   UNL     1       0.211  10.297  21.894  0.00  0.00    +0.000 A 
ATOM      5  C   UNL     1       0.396   8.921  22.026  0.00  0.00    +0.000 A 
ATOM      6  C   UNL     1       0.971   8.191  20.984  0.00  0.00    +0.000 A 
ATOM      7  F   UNL     1       1.141   6.872  21.164  0.00  0.00    +0.000 F 
ENDROOT
BRANCH   1   9
ATOM      8  N   UNL     1       2.761   6.936  19.005  0.00  0.00    +0.000 N 
ATOM      9  C   UNL     1       2.048   8.080  18.680  0.00  0.00    +0.000 C 
ATOM     10  O   UNL     1       1.922   8.545  17.550  0.00  0.00    +0.000 OA
ATOM     11  H   UNL     1       2.747   6.641  19.977  0.00  0.00    +0.000 HD
BRANCH   8  16
ATOM     12  C   UNL     1       5.949   3.742  15.450  0.00  0.00    +0.000 C 
ATOM     13  C   UNL     1       5.098   4.553  16.377  0.00  0.00    +0.000 A 
ATOM     14  C   UNL     1       3.905   4.045  16.896  0.00  0.00    +0.000 A 
ATOM     15  C   UNL     1       3.117   4.815  17.763  0.00  0.00    +0.000 A 
ATOM     16  C   UNL     1       3.503   6.108  18.129  0.00  0.00    +0.000 A 
ATOM     17  C   UNL     1       4.688   6.624  17.594  0.00  0.00    +0.000 A 
ATOM     18  C   UNL     1       5.468   5.850  16.732  0.00  0.00    +0.000 A 
ATOM     19  F   UNL     1       6.600   6.375  16.240  0.00  0.00    +0.000 F 
ENDBRANCH   8  16
ENDBRANCH   1   9
BRANCH   3  20
ATOM     20  S   UNL     1       0.474  12.716  20.601  0.00  0.00    +0.000 S 
ATOM     21  O   UNL     1       0.362  13.196  21.962  0.00  0.00    +0.000 OA
ATOM     22  O   UNL     1       1.593  13.151  19.787  0.00  0.00    +0.000 OA
BRANCH  20  23
ATOM     23  N   UNL     1      -0.978  12.998  19.744  0.00  0.00    +0.000 N 
ATOM     24  C   UNL     1      -0.945  12.772  18.275  0.00  0.00    +0.000 C 
ATOM     25  C   UNL     1      -1.811  11.589  17.889  0.00  0.00    +0.000 C 
ATOM     26  C   UNL     1      -3.251  11.846  18.300  0.00  0.00    +0.000 C 
ATOM     27  C   UNL     1      -3.362  12.337  19.719  0.00  0.00    +0.000 A 
ATOM     28  C   UNL     1      -4.629  12.294  20.331  0.00  0.00    +0.000 A 
ATOM     29  C   UNL     1      -4.816  12.806  21.610  0.00  0.00    +0.000 A 
ATOM     30  C   UNL     1      -3.748  13.387  22.280  0.00  0.00    +0.000 A 
ATOM     31  C   UNL     1      -2.488  13.448  21.672  0.00  0.00    +0.000 A 
ATOM     32  C   UNL     1      -2.265  12.903  20.402  0.00  0.00    +0.000 A 
ENDBRANCH  20  23
ENDBRANCH   3  20
TORSDOF 4
ENDMDL
