MODEL 1
REMARK VINA RESULT:      -7.2      0.000      0.000
REMARK  Name = 
REMARK  12 active torsions:
REMARK  status: ('A' for Active; 'I' for Inactive)
REMARK    1  A    between atoms: O_1  and  C_2
REMARK    2  A    between atoms: C_5  and  C_6
REMARK    3  A    between atoms: C_6  and  C_7
REMARK    4  A    between atoms: C_7  and  C_8
REMARK    5  A    between atoms: C_8  and  C_9
REMARK    6  A    between atoms: C_9  and  C_10
REMARK    7  A    between atoms: C_10  and  O_11
REMARK    8  A    between atoms: C_10  and  C_12
REMARK    9  A    between atoms: C_12  and  C_13
REMARK   10  A    between atoms: C_13  and  C_14
REMARK   11  A    between atoms: C_17  and  O_18
REMARK   12  A    between atoms: C_19  and  O_20
REMARK                            x       y       z     vdW  Elec       q    Type
REMARK                         _______ _______ _______ _____ _____    ______ ____
ROOT
ATOM      1  C   UNL     1       1.701   2.343  18.095  0.00  0.00    +0.000 C 
ENDROOT
BRANCH   1   2
ATOM      2  O   UNL     1       2.477   1.391  18.817  0.00  0.00    +0.000 OA
ATOM      3  H   UNL     1       1.887   0.938  19.444  0.00  0.00    +0.000 HD
ENDBRANCH   1   2
BRANCH   1   4
ATOM      4  C   UNL     1       0.737   3.059  19.050  0.00  0.00    +0.000 C 
BRANCH   4   5
ATOM      5  C   UNL     1       1.336   3.315  20.438  0.00  0.00    +0.000 C 
BRANCH   5   6
ATOM      6  C   UNL     1       1.427   4.810  20.780  0.00  0.00    +0.000 C 
BRANCH   6   7
ATOM      7  C   UNL     1       2.731   5.454  20.301  0.00  0.00    +0.000 C 
BRANCH   7  11
ATOM      8  C   UNL     1       2.045   9.075  18.091  0.00  0.00    +0.000 A 
ATOM      9  C   UNL     1       2.787   8.050  17.515  0.00  0.00    +0.000 A 
ATOM     10  C   UNL     1       3.019   6.881  18.243  0.00  0.00    +0.000 A 
ATOM     11  C   UNL     1       2.504   6.733  19.539  0.00  0.00    +0.000 A 
ATOM     12  C   UNL     1       1.768   7.781  20.104  0.00  0.00    +0.000 A 
ATOM     13  C   UNL     1       1.537   8.950  19.379  0.00  0.00    +0.000 A 
BRANCH   8  14
ATOM     14  O   UNL     1       1.788  10.229  17.413  0.00  0.00    +0.000 OA
ATOM     15  H   UNL     1       1.696  10.950  18.057  0.00  0.00    +0.000 HD
ENDBRANCH   8  14
ENDBRANCH   7  11
ENDBRANCH   6   7
ENDBRANCH   5   6
ENDBRANCH   4   5
ENDBRANCH   1   4
BRANCH   1  16
ATOM     16  C   UNL     1       2.629   3.353  17.408  0.00  0.00    +0.000 C 
BRANCH  16  17
ATOM     17  C   UNL     1       4.091   2.896  17.408  0.00  0.00    +0.000 C 
BRANCH  17  18
ATOM     18  C   UNL     1       5.039   4.061  17.247  0.00  0.00    +0.000 A 
ATOM     19  C   UNL     1       5.147   4.722  16.011  0.00  0.00    +0.000 A 
ATOM     20  C   UNL     1       6.041   5.782  15.839  0.00  0.00    +0.000 A 
ATOM     21  C   UNL     1       6.832   6.180  16.906  0.00  0.00    +0.000 A 
ATOM     22  C   UNL     1       6.729   5.537  18.137  0.00  0.00    +0.000 A 
ATOM     23  C   UNL     1       5.842   4.482  18.317  0.00  0.00    +0.000 A 
BRANCH  21  24
ATOM     24  O   UNL     1       7.740   7.199  16.795  0.00  0.00    +0.000 OA
ATOM     25  H   UNL     1       7.360   7.876  16.210  0.00  0.00    +0.000 HD
ENDBRANCH  21  24
BRANCH  22  26
ATOM     26  O   UNL     1       7.507   5.942  19.183  0.00  0.00    +0.000 OA
ATOM     27  H   UNL     1       7.146   6.819  19.429  0.00  0.00    +0.000 HD
ENDBRANCH  22  26
ENDBRANCH  17  18
ENDBRANCH  16  17
ENDBRANCH   1  16
TORSDOF 12
ENDMDL
MODEL 2
REMARK VINA RESULT:      -7.2      1.078      1.621
REMARK  Name = 
REMARK  12 active torsions:
REMARK  status: ('A' for Active; 'I' for Inactive)
REMARK    1  A    between atoms: O_1  and  C_2
REMARK    2  A    between atoms: C_5  and  C_6
REMARK    3  A    between atoms: C_6  and  C_7
REMARK    4  A    between atoms: C_7  and  C_8
REMARK    5  A    between atoms: C_8  and  C_9
REMARK    6  A    between atoms: C_9  and  C_10
REMARK    7  A    between atoms: C_10  and  O_11
REMARK    8  A    between atoms: C_10  and  C_12
REMARK    9  A    between atoms: C_12  and  C_13
REMARK   10  A    between atoms: C_13  and  C_14
REMARK   11  A    between atoms: C_17  and  O_18
REMARK   12  A    between atoms: C_19  and  O_20
REMARK                            x       y       z     vdW  Elec       q    Type
REMARK                         _______ _______ _______ _____ _____    ______ ____
ROOT
ATOM      1  C   UNL     1       2.449   2.827  18.335  0.00  0.00    +0.000 C 
ENDROOT
BRANCH   1   2
ATOM      2  O   UNL     1       2.281   1.519  17.796  0.00  0.00    +0.000 OA
ATOM      3  H   UNL     1       3.082   1.005  18.001  0.00  0.00    +0.000 HD
ENDBRANCH   1   2
BRANCH   1   4
ATOM      4  C   UNL     1       1.823   2.896  19.735  0.00  0.00    +0.000 C 
BRANCH   4   5
ATOM      5  C   UNL     1       1.112   4.226  20.016  0.00  0.00    +0.000 C 
BRANCH   5   6
ATOM      6  C   UNL     1       1.941   5.168  20.902  0.00  0.00    +0.000 C 
BRANCH   6   7
ATOM      7  C   UNL     1       2.929   6.024  20.104  0.00  0.00    +0.000 C 
BRANCH   7  11
ATOM      8  C   UNL     1       1.184   9.649  18.594  0.00  0.00    +0.000 A 
ATOM      9  C   UNL     1       0.968   9.284  19.917  0.00  0.00    +0.000 A 
ATOM     10  C   UNL     1       1.526   8.098  20.400  0.00  0.00    +0.000 A 
ATOM     11  C   UNL     1       2.304   7.284  19.563  0.00  0.00    +0.000 A 
ATOM     12  C   UNL     1       2.500   7.665  18.230  0.00  0.00    +0.000 A 
ATOM     13  C   UNL     1       1.943   8.849  17.748  0.00  0.00    +0.000 A 
BRANCH   8  14
ATOM     14  O   UNL     1       0.666  10.803  18.084  0.00  0.00    +0.000 OA
ATOM     15  H   UNL     1       1.339  11.499  18.153  0.00  0.00    +0.000 HD
ENDBRANCH   8  14
ENDBRANCH   7  11
ENDBRANCH   6   7
ENDBRANCH   5   6
ENDBRANCH   4   5
ENDBRANCH   1   4
BRANCH   1  16
ATOM     16  C   UNL     1       3.943   3.174  18.395  0.00  0.00    +0.000 C 
BRANCH  16  17
ATOM     17  C   UNL     1       4.369   4.110  17.259  0.00  0.00    +0.000 C 
BRANCH  17  18
ATOM     18  C   UNL     1       5.476   5.043  17.693  0.00  0.00    +0.000 A 
ATOM     19  C   UNL     1       5.825   6.146  16.895  0.00  0.00    +0.000 A 
ATOM     20  C   UNL     1       6.867   7.001  17.267  0.00  0.00    +0.000 A 
ATOM     21  C   UNL     1       7.564   6.746  18.440  0.00  0.00    +0.000 A 
ATOM     22  C   UNL     1       7.222   5.660  19.240  0.00  0.00    +0.000 A 
ATOM     23  C   UNL     1       6.188   4.805  18.878  0.00  0.00    +0.000 A 
BRANCH  21  24
ATOM     24  O   UNL     1       8.605   7.535  18.848  0.00  0.00    +0.000 OA
ATOM     25  H   UNL     1       8.235   8.361  19.204  0.00  0.00    +0.000 HD
ENDBRANCH  21  24
BRANCH  22  26
ATOM     26  O   UNL     1       7.911   5.424  20.395  0.00  0.00    +0.000 OA
ATOM     27  H   UNL     1       8.818   5.205  20.096  0.00  0.00    +0.000 HD
ENDBRANCH  22  26
ENDBRANCH  17  18
ENDBRANCH  16  17
ENDBRANCH   1  16
TORSDOF 12
ENDMDL
MODEL 3
REMARK VINA RESULT:      -6.9      1.355      2.008
REMARK  Name = 
REMARK  12 active torsions:
REMARK  status: ('A' for Active; 'I' for Inactive)
REMARK    1  A    between atoms: O_1  and  C_2
REMARK    2  A    between atoms: C_5  and  C_6
REMARK    3  A    between atoms: C_6  and  C_7
REMARK    4  A    between atoms: C_7  and  C_8
REMARK    5  A    between atoms: C_8  and  C_9
REMARK    6  A    between atoms: C_9  and  C_10
REMARK    7  A    between atoms: C_10  and  O_11
REMARK    8  A    between atoms: C_10  and  C_12
REMARK    9  A    between atoms: C_12  and  C_13
REMARK   10  A    between atoms: C_13  and  C_14
REMARK   11  A    between atoms: C_17  and  O_18
REMARK   12  A    between atoms: C_19  and  O_20
REMARK                            x       y       z     vdW  Elec       q    Type
REMARK                         _______ _______ _______ _____ _____    ______ ____
ROOT
ATOM      1  C   UNL     1       3.754   2.077  20.166  0.00  0.00    +0.000 C 
ENDROOT
BRANCH   1   2
ATOM      2  O   UNL     1       5.037   1.788  20.711  0.00  0.00    +0.000 OA
ATOM      3  H   UNL     1       5.651   2.485  20.419  0.00  0.00    +0.000 HD
ENDBRANCH   1   2
BRANCH   1   4
ATOM      4  C   UNL     1       2.964   2.964  21.137  0.00  0.00    +0.000 C 
BRANCH   4   5
ATOM      5  C   UNL     1       1.468   3.045  20.805  0.00  0.00    +0.000 C 
BRANCH   5   6
ATOM      6  C   UNL     1       1.030   4.454  20.378  0.00  0.00    +0.000 C 
BRANCH   6   7
ATOM      7  C   UNL     1       2.021   5.542  20.799  0.00  0.00    +0.000 C 
BRANCH   7  11
ATOM      8  C   UNL     1       1.916   9.024  18.282  0.00  0.00    +0.000 A 
ATOM      9  C   UNL     1       1.412   9.097  19.575  0.00  0.00    +0.000 A 
ATOM     10  C   UNL     1       1.436   7.959  20.385  0.00  0.00    +0.000 A 
ATOM     11  C   UNL     1       1.970   6.754  19.905  0.00  0.00    +0.000 A 
ATOM     12  C   UNL     1       2.463   6.699  18.596  0.00  0.00    +0.000 A 
ATOM     13  C   UNL     1       2.439   7.835  17.787  0.00  0.00    +0.000 A 
BRANCH   8  14
ATOM     14  O   UNL     1       1.921  10.113  17.461  0.00  0.00    +0.000 OA
ATOM     15  H   UNL     1       2.482   9.918  16.694  0.00  0.00    +0.000 HD
ENDBRANCH   8  14
ENDBRANCH   7  11
ENDBRANCH   6   7
ENDBRANCH   5   6
ENDBRANCH   4   5
ENDBRANCH   1   4
BRANCH   1  16
ATOM     16  C   UNL     1       3.914   2.774  18.808  0.00  0.00    +0.000 C 
BRANCH  16  17
ATOM     17  C   UNL     1       4.579   4.148  18.933  0.00  0.00    +0.000 C 
BRANCH  17  18
ATOM     18  C   UNL     1       5.357   4.505  17.687  0.00  0.00    +0.000 A 
ATOM     19  C   UNL     1       5.224   3.729  16.523  0.00  0.00    +0.000 A 
ATOM     20  C   UNL     1       5.959   4.029  15.373  0.00  0.00    +0.000 A 
ATOM     21  C   UNL     1       6.833   5.106  15.390  0.00  0.00    +0.000 A 
ATOM     22  C   UNL     1       6.967   5.885  16.536  0.00  0.00    +0.000 A 
ATOM     23  C   UNL     1       6.240   5.595  17.684  0.00  0.00    +0.000 A 
BRANCH  21  24
ATOM     24  O   UNL     1       7.594   5.439  14.302  0.00  0.00    +0.000 OA
ATOM     25  H   UNL     1       8.132   6.213  14.538  0.00  0.00    +0.000 HD
ENDBRANCH  21  24
BRANCH  22  26
ATOM     26  O   UNL     1       7.825   6.947  16.539  0.00  0.00    +0.000 OA
ATOM     27  H   UNL     1       7.936   7.172  15.591  0.00  0.00    +0.000 HD
ENDBRANCH  22  26
ENDBRANCH  17  18
ENDBRANCH  16  17
ENDBRANCH   1  16
TORSDOF 12
ENDMDL
MODEL 4
REMARK VINA RESULT:      -6.9      1.135      5.191
REMARK  Name = 
REMARK  12 active torsions:
REMARK  status: ('A' for Active; 'I' for Inactive)
REMARK    1  A    between atoms: O_1  and  C_2
REMARK    2  A    between atoms: C_5  and  C_6
REMARK    3  A    between atoms: C_6  and  C_7
REMARK    4  A    between atoms: C_7  and  C_8
REMARK    5  A    between atoms: C_8  and  C_9
REMARK    6  A    between atoms: C_9  and  C_10
REMARK    7  A    between atoms: C_10  and  O_11
REMARK    8  A    between atoms: C_10  and  C_12
REMARK    9  A    between atoms: C_12  and  C_13
REMARK   10  A    between atoms: C_13  and  C_14
REMARK   11  A    between atoms: C_17  and  O_18
REMARK   12  A    between atoms: C_19  and  O_20
REMARK                            x       y       z     vdW  Elec       q    Type
REMARK                         _______ _______ _______ _____ _____    ______ ____
ROOT
ATOM      1  C   UNL     1       2.076   3.418  20.798  0.00  0.00    +0.000 C 
ENDROOT
BRANCH   1   2
ATOM      2  O   UNL     1       1.682   2.746  21.990  0.00  0.00    +0.000 OA
ATOM      3  H   UNL     1       2.066   3.225  22.745  0.00  0.00    +0.000 HD
ENDBRANCH   1   2
BRANCH   1   4
ATOM      4  C   UNL     1       1.051   3.151  19.688  0.00  0.00    +0.000 C 
BRANCH   4   5
ATOM      5  C   UNL     1       1.621   2.339  18.518  0.00  0.00    +0.000 C 
BRANCH   5   6
ATOM      6  C   UNL     1       2.425   3.201  17.532  0.00  0.00    +0.000 C 
BRANCH   6   7
ATOM      7  C   UNL     1       3.924   2.890  17.552  0.00  0.00    +0.000 C 
BRANCH   7  11
ATOM      8  C   UNL     1       6.309   6.440  17.130  0.00  0.00    +0.000 A 
ATOM      9  C   UNL     1       5.376   6.121  16.151  0.00  0.00    +0.000 A 
ATOM     10  C   UNL     1       4.613   4.958  16.285  0.00  0.00    +0.000 A 
ATOM     11  C   UNL     1       4.777   4.123  17.400  0.00  0.00    +0.000 A 
ATOM     12  C   UNL     1       5.730   4.457  18.369  0.00  0.00    +0.000 A 
ATOM     13  C   UNL     1       6.493   5.617  18.235  0.00  0.00    +0.000 A 
BRANCH   8  14
ATOM     14  O   UNL     1       7.069   7.569  17.042  0.00  0.00    +0.000 OA
ATOM     15  H   UNL     1       7.992   7.308  16.895  0.00  0.00    +0.000 HD
ENDBRANCH   8  14
ENDBRANCH   7  11
ENDBRANCH   6   7
ENDBRANCH   5   6
ENDBRANCH   4   5
ENDBRANCH   1   4
BRANCH   1  16
ATOM     16  C   UNL     1       2.197   4.924  21.069  0.00  0.00    +0.000 C 
BRANCH  16  17
ATOM     17  C   UNL     1       2.773   5.687  19.872  0.00  0.00    +0.000 C 
BRANCH  17  18
ATOM     18  C   UNL     1       2.183   7.073  19.760  0.00  0.00    +0.000 A 
ATOM     19  C   UNL     1       1.455   7.622  20.829  0.00  0.00    +0.000 A 
ATOM     20  C   UNL     1       0.877   8.891  20.729  0.00  0.00    +0.000 A 
ATOM     21  C   UNL     1       1.026   9.611  19.552  0.00  0.00    +0.000 A 
ATOM     22  C   UNL     1       1.751   9.079  18.490  0.00  0.00    +0.000 A 
ATOM     23  C   UNL     1       2.329   7.819  18.580  0.00  0.00    +0.000 A 
BRANCH  21  24
ATOM     24  O   UNL     1       0.469  10.850  19.386  0.00  0.00    +0.000 OA
ATOM     25  H   UNL     1       0.303  11.225  20.268  0.00  0.00    +0.000 HD
ENDBRANCH  21  24
BRANCH  22  26
ATOM     26  O   UNL     1       1.898   9.800  17.339  0.00  0.00    +0.000 OA
ATOM     27  H   UNL     1       2.352   9.186  16.725  0.00  0.00    +0.000 HD
ENDBRANCH  22  26
ENDBRANCH  17  18
ENDBRANCH  16  17
ENDBRANCH   1  16
TORSDOF 12
ENDMDL
MODEL 5
REMARK VINA RESULT:      -6.8      1.326      2.037
REMARK  Name = 
REMARK  12 active torsions:
REMARK  status: ('A' for Active; 'I' for Inactive)
REMARK    1  A    between atoms: O_1  and  C_2
REMARK    2  A    between atoms: C_5  and  C_6
REMARK    3  A    between atoms: C_6  and  C_7
REMARK    4  A    between atoms: C_7  and  C_8
REMARK    5  A    between atoms: C_8  and  C_9
REMARK    6  A    between atoms: C_9  and  C_10
REMARK    7  A    between atoms: C_10  and  O_11
REMARK    8  A    between atoms: C_10  and  C_12
REMARK    9  A    between atoms: C_12  and  C_13
REMARK   10  A    between atoms: C_13  and  C_14
REMARK   11  A    between atoms: C_17  and  O_18
REMARK   12  A    between atoms: C_19  and  O_20
REMARK                            x       y       z     vdW  Elec       q    Type
REMARK                         _______ _______ _______ _____ _____    ______ ____
ROOT
ATOM      1  C   UNL     1       1.233   2.898  18.763  0.00  0.00    +0.000 C 
ENDROOT
BRANCH   1   2
ATOM      2  O   UNL     1       0.326   1.916  18.271  0.00  0.00    +0.000 OA
ATOM      3  H   UNL     1      -0.576   2.197  18.507  0.00  0.00    +0.000 HD
ENDBRANCH   1   2
BRANCH   1   4
ATOM      4  C   UNL     1       1.822   2.436  20.103  0.00  0.00    +0.000 C 
BRANCH   4   5
ATOM      5  C   UNL     1       1.657   3.467  21.227  0.00  0.00    +0.000 C 
BRANCH   5   6
ATOM      6  C   UNL     1       1.341   4.875  20.700  0.00  0.00    +0.000 C 
BRANCH   6   7
ATOM      7  C   UNL     1       2.597   5.688  20.375  0.00  0.00    +0.000 C 
BRANCH   7  11
ATOM      8  C   UNL     1       1.759   9.362  18.309  0.00  0.00    +0.000 A 
ATOM      9  C   UNL     1       1.310   9.191  19.613  0.00  0.00    +0.000 A 
ATOM     10  C   UNL     1       1.573   7.990  20.276  0.00  0.00    +0.000 A 
ATOM     11  C   UNL     1       2.290   6.966  19.638  0.00  0.00    +0.000 A 
ATOM     12  C   UNL     1       2.724   7.155  18.321  0.00  0.00    +0.000 A 
ATOM     13  C   UNL     1       2.461   8.354  17.658  0.00  0.00    +0.000 A 
BRANCH   8  14
ATOM     14  O   UNL     1       1.532  10.521  17.628  0.00  0.00    +0.000 OA
ATOM     15  H   UNL     1       0.588  10.569  17.409  0.00  0.00    +0.000 HD
ENDBRANCH   8  14
ENDBRANCH   7  11
ENDBRANCH   6   7
ENDBRANCH   5   6
ENDBRANCH   4   5
ENDBRANCH   1   4
BRANCH   1  16
ATOM     16  C   UNL     1       2.349   3.133  17.736  0.00  0.00    +0.000 C 
BRANCH  16  17
ATOM     17  C   UNL     1       3.745   2.952  18.340  0.00  0.00    +0.000 C 
BRANCH  17  18
ATOM     18  C   UNL     1       4.794   3.697  17.549  0.00  0.00    +0.000 A 
ATOM     19  C   UNL     1       5.442   4.813  18.108  0.00  0.00    +0.000 A 
ATOM     20  C   UNL     1       6.393   5.532  17.378  0.00  0.00    +0.000 A 
ATOM     21  C   UNL     1       6.694   5.134  16.083  0.00  0.00    +0.000 A 
ATOM     22  C   UNL     1       6.064   4.027  15.523  0.00  0.00    +0.000 A 
ATOM     23  C   UNL     1       5.117   3.306  16.241  0.00  0.00    +0.000 A 
BRANCH  21  24
ATOM     24  O   UNL     1       7.602   5.807  15.312  0.00  0.00    +0.000 OA
ATOM     25  H   UNL     1       7.530   6.754  15.520  0.00  0.00    +0.000 HD
ENDBRANCH  21  24
BRANCH  22  26
ATOM     26  O   UNL     1       6.373   3.640  14.251  0.00  0.00    +0.000 OA
ATOM     27  H   UNL     1       6.210   2.673  14.245  0.00  0.00    +0.000 HD
ENDBRANCH  22  26
ENDBRANCH  17  18
ENDBRANCH  16  17
ENDBRANCH   1  16
TORSDOF 12
ENDMDL
MODEL 6
REMARK VINA RESULT:      -6.7      1.170      1.784
REMARK  Name = 
REMARK  12 active torsions:
REMARK  status: ('A' for Active; 'I' for Inactive)
REMARK    1  A    between atoms: O_1  and  C_2
REMARK    2  A    between atoms: C_5  and  C_6
REMARK    3  A    between atoms: C_6  and  C_7
REMARK    4  A    between atoms: C_7  and  C_8
REMARK    5  A    between atoms: C_8  and  C_9
REMARK    6  A    between atoms: C_9  and  C_10
REMARK    7  A    between atoms: C_10  and  O_11
REMARK    8  A    between atoms: C_10  and  C_12
REMARK    9  A    between atoms: C_12  and  C_13
REMARK   10  A    between atoms: C_13  and  C_14
REMARK   11  A    between atoms: C_17  and  O_18
REMARK   12  A    between atoms: C_19  and  O_20
REMARK                            x       y       z     vdW  Elec       q    Type
REMARK                         _______ _______ _______ _____ _____    ______ ____
ROOT
ATOM      1  C   UNL     1       1.909   2.810  18.382  0.00  0.00    +0.000 C 
ENDROOT
BRANCH   1   2
ATOM      2  O   UNL     1       1.088   1.688  18.072  0.00  0.00    +0.000 OA
ATOM      3  H   UNL     1       1.657   0.899  18.044  0.00  0.00    +0.000 HD
ENDBRANCH   1   2
BRANCH   1   4
ATOM      4  C   UNL     1       1.897   3.061  19.895  0.00  0.00    +0.000 C 
BRANCH   4   5
ATOM      5  C   UNL     1       1.105   4.311  20.297  0.00  0.00    +0.000 C 
BRANCH   5   6
ATOM      6  C   UNL     1       2.001   5.432  20.846  0.00  0.00    +0.000 C 
BRANCH   6   7
ATOM      7  C   UNL     1       2.791   6.156  19.753  0.00  0.00    +0.000 C 
BRANCH   7  11
ATOM      8  C   UNL     1       1.108   9.974  18.725  0.00  0.00    +0.000 A 
ATOM      9  C   UNL     1       0.920   9.464  20.005  0.00  0.00    +0.000 A 
ATOM     10  C   UNL     1       1.458   8.216  20.330  0.00  0.00    +0.000 A 
ATOM     11  C   UNL     1       2.187   7.485  19.380  0.00  0.00    +0.000 A 
ATOM     12  C   UNL     1       2.355   8.012  18.094  0.00  0.00    +0.000 A 
ATOM     13  C   UNL     1       1.818   9.258  17.769  0.00  0.00    +0.000 A 
BRANCH   8  14
ATOM     14  O   UNL     1       0.608  11.191  18.368  0.00  0.00    +0.000 OA
ATOM     15  H   UNL     1       0.682  11.790  19.129  0.00  0.00    +0.000 HD
ENDBRANCH   8  14
ENDBRANCH   7  11
ENDBRANCH   6   7
ENDBRANCH   5   6
ENDBRANCH   4   5
ENDBRANCH   1   4
BRANCH   1  16
ATOM     16  C   UNL     1       3.340   2.556  17.889  0.00  0.00    +0.000 C 
BRANCH  16  17
ATOM     17  C   UNL     1       4.331   3.599  18.414  0.00  0.00    +0.000 C 
BRANCH  17  18
ATOM     18  C   UNL     1       5.218   4.129  17.311  0.00  0.00    +0.000 A 
ATOM     19  C   UNL     1       5.260   3.482  16.064  0.00  0.00    +0.000 A 
ATOM     20  C   UNL     1       6.098   3.942  15.044  0.00  0.00    +0.000 A 
ATOM     21  C   UNL     1       6.899   5.051  15.275  0.00  0.00    +0.000 A 
ATOM     22  C   UNL     1       6.859   5.703  16.504  0.00  0.00    +0.000 A 
ATOM     23  C   UNL     1       6.030   5.253  17.524  0.00  0.00    +0.000 A 
BRANCH  21  24
ATOM     24  O   UNL     1       7.753   5.539  14.323  0.00  0.00    +0.000 OA
ATOM     25  H   UNL     1       8.454   4.880  14.184  0.00  0.00    +0.000 HD
ENDBRANCH  21  24
BRANCH  22  26
ATOM     26  O   UNL     1       7.646   6.799  16.717  0.00  0.00    +0.000 OA
ATOM     27  H   UNL     1       7.441   7.395  15.967  0.00  0.00    +0.000 HD
ENDBRANCH  22  26
ENDBRANCH  17  18
ENDBRANCH  16  17
ENDBRANCH   1  16
TORSDOF 12
ENDMDL
MODEL 7
REMARK VINA RESULT:      -6.6      1.107      1.729
REMARK  Name = 
REMARK  12 active torsions:
REMARK  status: ('A' for Active; 'I' for Inactive)
REMARK    1  A    between atoms: O_1  and  C_2
REMARK    2  A    between atoms: C_5  and  C_6
REMARK    3  A    between atoms: C_6  and  C_7
REMARK    4  A    between atoms: C_7  and  C_8
REMARK    5  A    between atoms: C_8  and  C_9
REMARK    6  A    between atoms: C_9  and  C_10
REMARK    7  A    between atoms: C_10  and  O_11
REMARK    8  A    between atoms: C_10  and  C_12
REMARK    9  A    between atoms: C_12  and  C_13
REMARK   10  A    between atoms: C_13  and  C_14
REMARK   11  A    between atoms: C_17  and  O_18
REMARK   12  A    between atoms: C_19  and  O_20
REMARK                            x       y       z     vdW  Elec       q    Type
REMARK                         _______ _______ _______ _____ _____    ______ ____
ROOT
ATOM      1  C   UNL     1       3.186   2.823  17.923  0.00  0.00    +0.000 C 
ENDROOT
BRANCH   1   2
ATOM      2  O   UNL     1       4.200   1.851  17.687  0.00  0.00    +0.000 OA
ATOM      3  H   UNL     1       3.772   1.052  17.333  0.00  0.00    +0.000 HD
ENDBRANCH   1   2
BRANCH   1   4
ATOM      4  C   UNL     1       3.096   3.127  19.424  0.00  0.00    +0.000 C 
BRANCH   4   5
ATOM      5  C   UNL     1       1.665   3.406  19.903  0.00  0.00    +0.000 C 
BRANCH   5   6
ATOM      6  C   UNL     1       1.508   4.800  20.527  0.00  0.00    +0.000 C 
BRANCH   6   7
ATOM      7  C   UNL     1       2.703   5.716  20.253  0.00  0.00    +0.000 C 
BRANCH   7  11
ATOM      8  C   UNL     1       1.512   9.450  18.490  0.00  0.00    +0.000 A 
ATOM      9  C   UNL     1       2.237   8.536  17.735  0.00  0.00    +0.000 A 
ATOM     10  C   UNL     1       2.634   7.330  18.317  0.00  0.00    +0.000 A 
ATOM     11  C   UNL     1       2.299   7.035  19.647  0.00  0.00    +0.000 A 
ATOM     12  C   UNL     1       1.577   7.974  20.393  0.00  0.00    +0.000 A 
ATOM     13  C   UNL     1       1.181   9.180  19.813  0.00  0.00    +0.000 A 
BRANCH   8  14
ATOM     14  O   UNL     1       1.097  10.635  17.959  0.00  0.00    +0.000 OA
ATOM     15  H   UNL     1       1.131  10.568  16.992  0.00  0.00    +0.000 HD
ENDBRANCH   8  14
ENDBRANCH   7  11
ENDBRANCH   6   7
ENDBRANCH   5   6
ENDBRANCH   4   5
ENDBRANCH   1   4
BRANCH   1  16
ATOM     16  C   UNL     1       3.500   4.100  17.132  0.00  0.00    +0.000 C 
BRANCH  16  17
ATOM     17  C   UNL     1       4.860   4.032  16.430  0.00  0.00    +0.000 C 
BRANCH  17  18
ATOM     18  C   UNL     1       5.878   4.924  17.100  0.00  0.00    +0.000 A 
ATOM     19  C   UNL     1       6.720   4.411  18.102  0.00  0.00    +0.000 A 
ATOM     20  C   UNL     1       7.646   5.231  18.752  0.00  0.00    +0.000 A 
ATOM     21  C   UNL     1       7.727   6.571  18.400  0.00  0.00    +0.000 A 
ATOM     22  C   UNL     1       6.904   7.088  17.405  0.00  0.00    +0.000 A 
ATOM     23  C   UNL     1       5.979   6.280  16.753  0.00  0.00    +0.000 A 
BRANCH  21  24
ATOM     24  O   UNL     1       8.601   7.428  19.013  0.00  0.00    +0.000 OA
ATOM     25  H   UNL     1       8.354   8.335  18.765  0.00  0.00    +0.000 HD
ENDBRANCH  21  24
BRANCH  22  26
ATOM     26  O   UNL     1       6.997   8.406  17.061  0.00  0.00    +0.000 OA
ATOM     27  H   UNL     1       6.137   8.608  16.637  0.00  0.00    +0.000 HD
ENDBRANCH  22  26
ENDBRANCH  17  18
ENDBRANCH  16  17
ENDBRANCH   1  16
TORSDOF 12
ENDMDL
MODEL 8
REMARK VINA RESULT:      -6.5      1.108      1.387
REMARK  Name = 
REMARK  12 active torsions:
REMARK  status: ('A' for Active; 'I' for Inactive)
REMARK    1  A    between atoms: O_1  and  C_2
REMARK    2  A    between atoms: C_5  and  C_6
REMARK    3  A    between atoms: C_6  and  C_7
REMARK    4  A    between atoms: C_7  and  C_8
REMARK    5  A    between atoms: C_8  and  C_9
REMARK    6  A    between atoms: C_9  and  C_10
REMARK    7  A    between atoms: C_10  and  O_11
REMARK    8  A    between atoms: C_10  and  C_12
REMARK    9  A    between atoms: C_12  and  C_13
REMARK   10  A    between atoms: C_13  and  C_14
REMARK   11  A    between atoms: C_17  and  O_18
REMARK   12  A    between atoms: C_19  and  O_20
REMARK                            x       y       z     vdW  Elec       q    Type
REMARK                         _______ _______ _______ _____ _____    ______ ____
ROOT
ATOM      1  C   UNL     1       1.241   2.493  19.249  0.00  0.00    +0.000 C 
ENDROOT
BRANCH   1   2
ATOM      2  O   UNL     1       1.967   1.851  20.293  0.00  0.00    +0.000 OA
ATOM      3  H   UNL     1       1.355   1.258  20.763  0.00  0.00    +0.000 HD
ENDBRANCH   1   2
BRANCH   1   4
ATOM      4  C   UNL     1       0.987   3.960  19.619  0.00  0.00    +0.000 C 
BRANCH   4   5
ATOM      5  C   UNL     1       1.688   4.390  20.914  0.00  0.00    +0.000 C 
BRANCH   5   6
ATOM      6  C   UNL     1       2.309   5.792  20.817  0.00  0.00    +0.000 C 
BRANCH   6   7
ATOM      7  C   UNL     1       2.441   6.289  19.375  0.00  0.00    +0.000 C 
BRANCH   7  11
ATOM      8  C   UNL     1       1.195  10.371  18.874  0.00  0.00    +0.000 A 
ATOM      9  C   UNL     1       1.900   9.741  17.857  0.00  0.00    +0.000 A 
ATOM     10  C   UNL     1       2.315   8.418  18.030  0.00  0.00    +0.000 A 
ATOM     11  C   UNL     1       2.018   7.726  19.213  0.00  0.00    +0.000 A 
ATOM     12  C   UNL     1       1.315   8.383  20.230  0.00  0.00    +0.000 A 
ATOM     13  C   UNL     1       0.901   9.705  20.058  0.00  0.00    +0.000 A 
BRANCH   8  14
ATOM     14  O   UNL     1       0.763  11.658  18.744  0.00  0.00    +0.000 OA
ATOM     15  H   UNL     1      -0.175  11.645  18.496  0.00  0.00    +0.000 HD
ENDBRANCH   8  14
ENDBRANCH   7  11
ENDBRANCH   6   7
ENDBRANCH   5   6
ENDBRANCH   4   5
ENDBRANCH   1   4
BRANCH   1  16
ATOM     16  C   UNL     1       2.028   2.396  17.935  0.00  0.00    +0.000 C 
BRANCH  16  17
ATOM     17  C   UNL     1       3.525   2.170  18.168  0.00  0.00    +0.000 C 
BRANCH  17  18
ATOM     18  C   UNL     1       4.312   3.450  18.013  0.00  0.00    +0.000 A 
ATOM     19  C   UNL     1       4.175   4.230  16.852  0.00  0.00    +0.000 A 
ATOM     20  C   UNL     1       4.918   5.401  16.680  0.00  0.00    +0.000 A 
ATOM     21  C   UNL     1       5.805   5.790  17.674  0.00  0.00    +0.000 A 
ATOM     22  C   UNL     1       5.945   5.029  18.830  0.00  0.00    +0.000 A 
ATOM     23  C   UNL     1       5.210   3.863  19.009  0.00  0.00    +0.000 A 
BRANCH  21  24
ATOM     24  O   UNL     1       6.575   6.916  17.556  0.00  0.00    +0.000 OA
ATOM     25  H   UNL     1       6.249   7.570  18.198  0.00  0.00    +0.000 HD
ENDBRANCH  21  24
BRANCH  22  26
ATOM     26  O   UNL     1       6.816   5.426  19.804  0.00  0.00    +0.000 OA
ATOM     27  H   UNL     1       7.015   6.360  19.586  0.00  0.00    +0.000 HD
ENDBRANCH  22  26
ENDBRANCH  17  18
ENDBRANCH  16  17
ENDBRANCH   1  16
TORSDOF 12
ENDMDL
MODEL 9
REMARK VINA RESULT:      -6.5      1.416      5.326
REMARK  Name = 
REMARK  12 active torsions:
REMARK  status: ('A' for Active; 'I' for Inactive)
REMARK    1  A    between atoms: O_1  and  C_2
REMARK    2  A    between atoms: C_5  and  C_6
REMARK    3  A    between atoms: C_6  and  C_7
REMARK    4  A    between atoms: C_7  and  C_8
REMARK    5  A    between atoms: C_8  and  C_9
REMARK    6  A    between atoms: C_9  and  C_10
REMARK    7  A    between atoms: C_10  and  O_11
REMARK    8  A    between atoms: C_10  and  C_12
REMARK    9  A    between atoms: C_12  and  C_13
REMARK   10  A    between atoms: C_13  and  C_14
REMARK   11  A    between atoms: C_17  and  O_18
REMARK   12  A    between atoms: C_19  and  O_20
REMARK                            x       y       z     vdW  Elec       q    Type
REMARK                         _______ _______ _______ _____ _____    ______ ____
ROOT
ATOM      1  C   UNL     1       1.302   3.922  20.758  0.00  0.00    +0.000 C 
ENDROOT
BRANCH   1   2
ATOM      2  O   UNL     1       0.290   3.013  20.338  0.00  0.00    +0.000 OA
ATOM      3  H   UNL     1       0.529   2.685  19.454  0.00  0.00    +0.000 HD
ENDBRANCH   1   2
BRANCH   1   4
ATOM      4  C   UNL     1       2.606   3.160  21.029  0.00  0.00    +0.000 C 
BRANCH   4   5
ATOM      5  C   UNL     1       3.073   2.313  19.838  0.00  0.00    +0.000 C 
BRANCH   5   6
ATOM      6  C   UNL     1       4.398   2.809  19.239  0.00  0.00    +0.000 C 
BRANCH   6   7
ATOM      7  C   UNL     1       4.229   3.437  17.853  0.00  0.00    +0.000 C 
BRANCH   7  11
ATOM      8  C   UNL     1       6.692   6.917  17.314  0.00  0.00    +0.000 A 
ATOM      9  C   UNL     1       5.400   6.905  16.801  0.00  0.00    +0.000 A 
ATOM     10  C   UNL     1       4.608   5.767  16.967  0.00  0.00    +0.000 A 
ATOM     11  C   UNL     1       5.104   4.646  17.650  0.00  0.00    +0.000 A 
ATOM     12  C   UNL     1       6.411   4.675  18.150  0.00  0.00    +0.000 A 
ATOM     13  C   UNL     1       7.203   5.812  17.984  0.00  0.00    +0.000 A 
BRANCH   8  14
ATOM     14  O   UNL     1       7.496   8.010  17.183  0.00  0.00    +0.000 OA
ATOM     15  H   UNL     1       6.970   8.735  16.808  0.00  0.00    +0.000 HD
ENDBRANCH   8  14
ENDBRANCH   7  11
ENDBRANCH   6   7
ENDBRANCH   5   6
ENDBRANCH   4   5
ENDBRANCH   1   4
BRANCH   1  16
ATOM     16  C   UNL     1       1.517   4.992  19.678  0.00  0.00    +0.000 C 
BRANCH  16  17
ATOM     17  C   UNL     1       2.546   6.046  20.098  0.00  0.00    +0.000 C 
BRANCH  17  18
ATOM     18  C   UNL     1       2.020   7.448  19.897  0.00  0.00    +0.000 A 
ATOM     19  C   UNL     1       1.325   8.099  20.931  0.00  0.00    +0.000 A 
ATOM     20  C   UNL     1       0.806   9.384  20.750  0.00  0.00    +0.000 A 
ATOM     21  C   UNL     1       0.981  10.018  19.528  0.00  0.00    +0.000 A 
ATOM     22  C   UNL     1       1.674   9.385  18.500  0.00  0.00    +0.000 A 
ATOM     23  C   UNL     1       2.193   8.107  18.671  0.00  0.00    +0.000 A 
BRANCH  21  24
ATOM     24  O   UNL     1       0.481  11.268  19.283  0.00  0.00    +0.000 OA
ATOM     25  H   UNL     1      -0.377  11.166  18.837  0.00  0.00    +0.000 HD
ENDBRANCH  21  24
BRANCH  22  26
ATOM     26  O   UNL     1       1.846  10.022  17.304  0.00  0.00    +0.000 OA
ATOM     27  H   UNL     1       1.492   9.392  16.641  0.00  0.00    +0.000 HD
ENDBRANCH  22  26
ENDBRANCH  17  18
ENDBRANCH  16  17
ENDBRANCH   1  16
TORSDOF 12
ENDMDL
