MODEL 1
REMARK VINA RESULT:      -7.2      0.000      0.000
REMARK  Name = 
REMARK  6 active torsions:
REMARK  status: ('A' for Active; 'I' for Inactive)
REMARK    1  A    between atoms: C_1  and  C_2
REMARK    2  A    between atoms: C_5  and  C_6
REMARK    3  A    between atoms: C_10  and  N_11
REMARK    4  A    between atoms: N_11  and  C_12
REMARK    5  A    between atoms: C_12  and  C_13
REMARK    6  A    between atoms: N_16  and  C_17
REMARK                            x       y       z     vdW  Elec       q    Type
REMARK                         _______ _______ _______ _____ _____    ______ ____
ROOT
ATOM      1  C   UNL     1       2.456   7.295  17.896  0.00  0.00    +0.000 C 
ATOM      2  C   UNL     1       2.440   6.089  18.792  0.00  0.00    +0.000 A 
ATOM      3  C   UNL     1       2.001   6.317  20.115  0.00  0.00    +0.000 A 
ATOM      4  C   UNL     1       1.909   5.288  21.049  0.00  0.00    +0.000 A 
ATOM      5  C   UNL     1       2.251   3.994  20.677  0.00  0.00    +0.000 A 
ATOM      6  C   UNL     1       2.679   3.755  19.357  0.00  0.00    +0.000 A 
ATOM      7  C   UNL     1       2.812   4.785  18.394  0.00  0.00    +0.000 A 
ENDROOT
BRANCH   5   8
ATOM      8  C   UNL     1       2.190   2.842  21.623  0.00  0.00    +0.000 C 
ATOM      9  N   UNL     1       0.984   2.505  22.178  0.00  0.00    +0.000 N 
ATOM     10  O   UNL     1       3.191   2.200  21.914  0.00  0.00    +0.000 OA
ATOM     11  H   UNL     1       0.102   2.955  21.986  0.00  0.00    +0.000 HD
ATOM     12  H   UNL     1       0.980   1.719  22.816  0.00  0.00    +0.000 HD
ENDBRANCH   5   8
BRANCH   7  13
ATOM     13  N   UNL     1       3.174   4.386  17.090  0.00  0.00    +0.000 N 
ATOM     14  H   UNL     1       2.458   3.782  16.685  0.00  0.00    +0.000 HD
BRANCH  13  15
ATOM     15  C   UNL     1       4.505   3.851  16.820  0.00  0.00    +0.000 C 
BRANCH  15  16
ATOM     16  C   UNL     1       5.574   4.848  17.202  0.00  0.00    +0.000 A 
ATOM     17  C   UNL     1       5.593   6.147  16.550  0.00  0.00    +0.000 A 
ATOM     18  C   UNL     1       6.463   7.091  16.935  0.00  0.00    +0.000 A 
ATOM     19  N   UNL     1       7.364   6.858  17.957  0.00  0.00    +0.000 N 
ATOM     20  C   UNL     1       8.310   7.887  18.349  0.00  0.00    +0.000 C 
ATOM     21  C   UNL     1       7.404   5.651  18.650  0.00  0.00    +0.000 A 
ATOM     22  O   UNL     1       8.159   5.406  19.586  0.00  0.00    +0.000 OA
ATOM     23  C   UNL     1       6.438   4.612  18.203  0.00  0.00    +0.000 A 
ENDBRANCH  15  16
ENDBRANCH  13  15
ENDBRANCH   7  13
TORSDOF 4
ENDMDL
MODEL 2
REMARK VINA RESULT:      -7.0      2.917      6.161
REMARK  Name = 
REMARK  6 active torsions:
REMARK  status: ('A' for Active; 'I' for Inactive)
REMARK    1  A    between atoms: C_1  and  C_2
REMARK    2  A    between atoms: C_5  and  C_6
REMARK    3  A    between atoms: C_10  and  N_11
REMARK    4  A    between atoms: N_11  and  C_12
REMARK    5  A    between atoms: C_12  and  C_13
REMARK    6  A    between atoms: N_16  and  C_17
REMARK                            x       y       z     vdW  Elec       q    Type
REMARK                         _______ _______ _______ _____ _____    ______ ____
ROOT
ATOM      1  C   UNL     1       5.864   5.138  19.460  0.00  0.00    +0.000 C 
ATOM      2  C   UNL     1       6.025   4.923  17.981  0.00  0.00    +0.000 A 
ATOM      3  C   UNL     1       7.076   5.643  17.371  0.00  0.00    +0.000 A 
ATOM      4  C   UNL     1       7.361   5.523  16.014  0.00  0.00    +0.000 A 
ATOM      5  C   UNL     1       6.599   4.667  15.228  0.00  0.00    +0.000 A 
ATOM      6  C   UNL     1       5.557   3.937  15.830  0.00  0.00    +0.000 A 
ATOM      7  C   UNL     1       5.223   4.061  17.200  0.00  0.00    +0.000 A 
ENDROOT
BRANCH   5   8
ATOM      8  C   UNL     1       6.836   4.493  13.765  0.00  0.00    +0.000 C 
ATOM      9  N   UNL     1       6.283   3.413  13.130  0.00  0.00    +0.000 N 
ATOM     10  O   UNL     1       7.513   5.290  13.128  0.00  0.00    +0.000 OA
ATOM     11  H   UNL     1       5.694   2.716  13.559  0.00  0.00    +0.000 HD
ATOM     12  H   UNL     1       6.465   3.326  12.138  0.00  0.00    +0.000 HD
ENDBRANCH   5   8
BRANCH   7  13
ATOM     13  N   UNL     1       4.207   3.208  17.683  0.00  0.00    +0.000 N 
ATOM     14  H   UNL     1       4.379   2.244  17.395  0.00  0.00    +0.000 HD
BRANCH  13  15
ATOM     15  C   UNL     1       2.801   3.552  17.500  0.00  0.00    +0.000 C 
BRANCH  15  16
ATOM     16  C   UNL     1       2.417   4.727  18.369  0.00  0.00    +0.000 A 
ATOM     17  C   UNL     1       2.037   4.488  19.752  0.00  0.00    +0.000 A 
ATOM     18  C   UNL     1       1.788   5.514  20.578  0.00  0.00    +0.000 A 
ATOM     19  N   UNL     1       1.885   6.822  20.142  0.00  0.00    +0.000 N 
ATOM     20  C   UNL     1       1.596   7.919  21.048  0.00  0.00    +0.000 C 
ATOM     21  C   UNL     1       2.261   7.144  18.842  0.00  0.00    +0.000 A 
ATOM     22  O   UNL     1       2.396   8.287  18.415  0.00  0.00    +0.000 OA
ATOM     23  C   UNL     1       2.524   5.994  17.936  0.00  0.00    +0.000 A 
ENDBRANCH  15  16
ENDBRANCH  13  15
ENDBRANCH   7  13
TORSDOF 4
ENDMDL
MODEL 3
REMARK VINA RESULT:      -6.9      3.624      6.614
REMARK  Name = 
REMARK  6 active torsions:
REMARK  status: ('A' for Active; 'I' for Inactive)
REMARK    1  A    between atoms: C_1  and  C_2
REMARK    2  A    between atoms: C_5  and  C_6
REMARK    3  A    between atoms: C_10  and  N_11
REMARK    4  A    between atoms: N_11  and  C_12
REMARK    5  A    between atoms: C_12  and  C_13
REMARK    6  A    between atoms: N_16  and  C_17
REMARK                            x       y       z     vdW  Elec       q    Type
REMARK                         _______ _______ _______ _____ _____    ______ ____
ROOT
ATOM      1  C   UNL     1       1.430   4.065  18.038  0.00  0.00    +0.000 C 
ATOM      2  C   UNL     1       2.792   4.620  17.729  0.00  0.00    +0.000 A 
ATOM      3  C   UNL     1       3.672   3.739  17.062  0.00  0.00    +0.000 A 
ATOM      4  C   UNL     1       4.957   4.124  16.688  0.00  0.00    +0.000 A 
ATOM      5  C   UNL     1       5.393   5.413  16.969  0.00  0.00    +0.000 A 
ATOM      6  C   UNL     1       4.519   6.301  17.624  0.00  0.00    +0.000 A 
ATOM      7  C   UNL     1       3.219   5.930  18.044  0.00  0.00    +0.000 A 
ENDROOT
BRANCH   5   8
ATOM      8  C   UNL     1       6.759   5.896  16.611  0.00  0.00    +0.000 C 
ATOM      9  N   UNL     1       7.114   7.178  16.938  0.00  0.00    +0.000 N 
ATOM     10  O   UNL     1       7.560   5.174  16.030  0.00  0.00    +0.000 OA
ATOM     11  H   UNL     1       6.537   7.840  17.434  0.00  0.00    +0.000 HD
ATOM     12  H   UNL     1       8.048   7.472  16.679  0.00  0.00    +0.000 HD
ENDBRANCH   5   8
BRANCH   7  13
ATOM     13  N   UNL     1       2.425   6.946  18.616  0.00  0.00    +0.000 N 
ATOM     14  H   UNL     1       2.753   7.867  18.322  0.00  0.00    +0.000 HD
BRANCH  13  15
ATOM     15  C   UNL     1       2.131   6.942  20.046  0.00  0.00    +0.000 C 
BRANCH  15  16
ATOM     16  C   UNL     1       1.565   8.272  20.483  0.00  0.00    +0.000 A 
ATOM     17  C   UNL     1       1.225   9.261  19.474  0.00  0.00    +0.000 A 
ATOM     18  C   UNL     1       0.628  10.410  19.819  0.00  0.00    +0.000 A 
ATOM     19  N   UNL     1       0.321  10.688  21.137  0.00  0.00    +0.000 N 
ATOM     20  C   UNL     1      -0.311  11.946  21.493  0.00  0.00    +0.000 C 
ATOM     21  C   UNL     1       0.592   9.792  22.167  0.00  0.00    +0.000 A 
ATOM     22  O   UNL     1       0.308   9.974  23.347  0.00  0.00    +0.000 OA
ATOM     23  C   UNL     1       1.263   8.525  21.768  0.00  0.00    +0.000 A 
ENDBRANCH  15  16
ENDBRANCH  13  15
ENDBRANCH   7  13
TORSDOF 4
ENDMDL
MODEL 4
REMARK VINA RESULT:      -6.9      2.177      3.476
REMARK  Name = 
REMARK  6 active torsions:
REMARK  status: ('A' for Active; 'I' for Inactive)
REMARK    1  A    between atoms: C_1  and  C_2
REMARK    2  A    between atoms: C_5  and  C_6
REMARK    3  A    between atoms: C_10  and  N_11
REMARK    4  A    between atoms: N_11  and  C_12
REMARK    5  A    between atoms: C_12  and  C_13
REMARK    6  A    between atoms: N_16  and  C_17
REMARK                            x       y       z     vdW  Elec       q    Type
REMARK                         _______ _______ _______ _____ _____    ______ ____
ROOT
ATOM      1  C   UNL     1       1.624   3.219  20.818  0.00  0.00    +0.000 C 
ATOM      2  C   UNL     1       1.762   4.505  20.054  0.00  0.00    +0.000 A 
ATOM      3  C   UNL     1       1.677   5.685  20.825  0.00  0.00    +0.000 A 
ATOM      4  C   UNL     1       1.814   6.949  20.257  0.00  0.00    +0.000 A 
ATOM      5  C   UNL     1       2.049   7.063  18.892  0.00  0.00    +0.000 A 
ATOM      6  C   UNL     1       2.146   5.892  18.117  0.00  0.00    +0.000 A 
ATOM      7  C   UNL     1       1.981   4.595  18.660  0.00  0.00    +0.000 A 
ENDROOT
BRANCH   5   8
ATOM      8  C   UNL     1       2.194   8.381  18.208  0.00  0.00    +0.000 C 
ATOM      9  N   UNL     1       1.474   9.450  18.672  0.00  0.00    +0.000 N 
ATOM     10  O   UNL     1       2.937   8.523  17.244  0.00  0.00    +0.000 OA
ATOM     11  H   UNL     1       0.857   9.442  19.469  0.00  0.00    +0.000 HD
ATOM     12  H   UNL     1       1.598  10.328  18.184  0.00  0.00    +0.000 HD
ENDBRANCH   5   8
BRANCH   7  13
ATOM     13  N   UNL     1       2.185   3.511  17.781  0.00  0.00    +0.000 N 
ATOM     14  H   UNL     1       1.427   2.832  17.864  0.00  0.00    +0.000 HD
BRANCH  13  15
ATOM     15  C   UNL     1       3.475   2.831  17.727  0.00  0.00    +0.000 C 
BRANCH  15  16
ATOM     16  C   UNL     1       4.609   3.829  17.718  0.00  0.00    +0.000 A 
ATOM     17  C   UNL     1       4.869   4.592  16.509  0.00  0.00    +0.000 A 
ATOM     18  C   UNL     1       5.800   5.556  16.497  0.00  0.00    +0.000 A 
ATOM     19  N   UNL     1       6.537   5.851  17.628  0.00  0.00    +0.000 N 
ATOM     20  C   UNL     1       7.553   6.888  17.591  0.00  0.00    +0.000 C 
ATOM     21  C   UNL     1       6.343   5.185  18.835  0.00  0.00    +0.000 A 
ATOM     22  O   UNL     1       6.945   5.431  19.875  0.00  0.00    +0.000 OA
ATOM     23  C   UNL     1       5.312   4.112  18.827  0.00  0.00    +0.000 A 
ENDBRANCH  15  16
ENDBRANCH  13  15
ENDBRANCH   7  13
TORSDOF 4
ENDMDL
MODEL 5
REMARK VINA RESULT:      -6.8      3.663      4.569
REMARK  Name = 
REMARK  6 active torsions:
REMARK  status: ('A' for Active; 'I' for Inactive)
REMARK    1  A    between atoms: C_1  and  C_2
REMARK    2  A    between atoms: C_5  and  C_6
REMARK    3  A    between atoms: C_10  and  N_11
REMARK    4  A    between atoms: N_11  and  C_12
REMARK    5  A    between atoms: C_12  and  C_13
REMARK    6  A    between atoms: N_16  and  C_17
REMARK                            x       y       z     vdW  Elec       q    Type
REMARK                         _______ _______ _______ _____ _____    ______ ____
ROOT
ATOM      1  C   UNL     1       2.112   8.352  17.801  0.00  0.00    +0.000 C 
ATOM      2  C   UNL     1       1.575   8.715  19.157  0.00  0.00    +0.000 A 
ATOM      3  C   UNL     1       0.771   9.876  19.204  0.00  0.00    +0.000 A 
ATOM      4  C   UNL     1       0.184  10.317  20.387  0.00  0.00    +0.000 A 
ATOM      5  C   UNL     1       0.383   9.598  21.560  0.00  0.00    +0.000 A 
ATOM      6  C   UNL     1       1.173   8.434  21.519  0.00  0.00    +0.000 A 
ATOM      7  C   UNL     1       1.808   7.976  20.339  0.00  0.00    +0.000 A 
ENDROOT
BRANCH   5   8
ATOM      8  C   UNL     1      -0.203  10.014  22.867  0.00  0.00    +0.000 C 
ATOM      9  N   UNL     1      -1.268  10.876  22.871  0.00  0.00    +0.000 N 
ATOM     10  O   UNL     1       0.251   9.607  23.929  0.00  0.00    +0.000 OA
ATOM     11  H   UNL     1      -1.726  11.248  22.054  0.00  0.00    +0.000 HD
ATOM     12  H   UNL     1      -1.639  11.137  23.776  0.00  0.00    +0.000 HD
ENDBRANCH   5   8
BRANCH   7  13
ATOM     13  N   UNL     1       2.503   6.752  20.430  0.00  0.00    +0.000 N 
ATOM     14  H   UNL     1       3.498   6.913  20.587  0.00  0.00    +0.000 HD
BRANCH  13  15
ATOM     15  C   UNL     1       2.307   5.712  19.425  0.00  0.00    +0.000 C 
BRANCH  15  16
ATOM     16  C   UNL     1       3.624   5.307  18.806  0.00  0.00    +0.000 A 
ATOM     17  C   UNL     1       3.661   4.946  17.399  0.00  0.00    +0.000 A 
ATOM     18  C   UNL     1       4.826   4.679  16.793  0.00  0.00    +0.000 A 
ATOM     19  N   UNL     1       6.021   4.739  17.484  0.00  0.00    +0.000 N 
ATOM     20  C   UNL     1       7.272   4.431  16.815  0.00  0.00    +0.000 C 
ATOM     21  C   UNL     1       6.083   5.095  18.829  0.00  0.00    +0.000 A 
ATOM     22  O   UNL     1       7.118   5.197  19.479  0.00  0.00    +0.000 OA
ATOM     23  C   UNL     1       4.779   5.378  19.488  0.00  0.00    +0.000 A 
ENDBRANCH  15  16
ENDBRANCH  13  15
ENDBRANCH   7  13
TORSDOF 4
ENDMDL
MODEL 6
REMARK VINA RESULT:      -6.8      3.439      6.440
REMARK  Name = 
REMARK  6 active torsions:
REMARK  status: ('A' for Active; 'I' for Inactive)
REMARK    1  A    between atoms: C_1  and  C_2
REMARK    2  A    between atoms: C_5  and  C_6
REMARK    3  A    between atoms: C_10  and  N_11
REMARK    4  A    between atoms: N_11  and  C_12
REMARK    5  A    between atoms: C_12  and  C_13
REMARK    6  A    between atoms: N_16  and  C_17
REMARK                            x       y       z     vdW  Elec       q    Type
REMARK                         _______ _______ _______ _____ _____    ______ ____
ROOT
ATOM      1  C   UNL     1       1.477   4.232  17.913  0.00  0.00    +0.000 C 
ATOM      2  C   UNL     1       2.939   4.515  17.711  0.00  0.00    +0.000 A 
ATOM      3  C   UNL     1       3.651   3.544  16.971  0.00  0.00    +0.000 A 
ATOM      4  C   UNL     1       5.006   3.686  16.683  0.00  0.00    +0.000 A 
ATOM      5  C   UNL     1       5.685   4.815  17.124  0.00  0.00    +0.000 A 
ATOM      6  C   UNL     1       4.980   5.793  17.852  0.00  0.00    +0.000 A 
ATOM      7  C   UNL     1       3.611   5.663  18.187  0.00  0.00    +0.000 A 
ENDROOT
BRANCH   5   8
ATOM      8  C   UNL     1       7.138   5.033  16.865  0.00  0.00    +0.000 C 
ATOM      9  N   UNL     1       8.052   4.292  17.566  0.00  0.00    +0.000 N 
ATOM     10  O   UNL     1       7.525   5.858  16.048  0.00  0.00    +0.000 OA
ATOM     11  H   UNL     1       7.836   3.574  18.240  0.00  0.00    +0.000 HD
ATOM     12  H   UNL     1       9.030   4.466  17.365  0.00  0.00    +0.000 HD
ENDBRANCH   5   8
BRANCH   7  13
ATOM     13  N   UNL     1       3.016   6.758  18.850  0.00  0.00    +0.000 N 
ATOM     14  H   UNL     1       2.361   6.434  19.563  0.00  0.00    +0.000 HD
BRANCH  13  15
ATOM     15  C   UNL     1       2.439   7.861  18.089  0.00  0.00    +0.000 C 
BRANCH  15  16
ATOM     16  C   UNL     1       1.654   8.784  18.991  0.00  0.00    +0.000 A 
ATOM     17  C   UNL     1       1.098  10.008  18.438  0.00  0.00    +0.000 A 
ATOM     18  C   UNL     1       0.314  10.799  19.182  0.00  0.00    +0.000 A 
ATOM     19  N   UNL     1       0.012  10.477  20.492  0.00  0.00    +0.000 N 
ATOM     20  C   UNL     1      -0.827  11.354  21.288  0.00  0.00    +0.000 C 
ATOM     21  C   UNL     1       0.484   9.316  21.098  0.00  0.00    +0.000 A 
ATOM     22  O   UNL     1       0.218   8.967  22.244  0.00  0.00    +0.000 OA
ATOM     23  C   UNL     1       1.361   8.455  20.260  0.00  0.00    +0.000 A 
ENDBRANCH  15  16
ENDBRANCH  13  15
ENDBRANCH   7  13
TORSDOF 4
ENDMDL
MODEL 7
REMARK VINA RESULT:      -6.8      3.833      6.570
REMARK  Name = 
REMARK  6 active torsions:
REMARK  status: ('A' for Active; 'I' for Inactive)
REMARK    1  A    between atoms: C_1  and  C_2
REMARK    2  A    between atoms: C_5  and  C_6
REMARK    3  A    between atoms: C_10  and  N_11
REMARK    4  A    between atoms: N_11  and  C_12
REMARK    5  A    between atoms: C_12  and  C_13
REMARK    6  A    between atoms: N_16  and  C_17
REMARK                            x       y       z     vdW  Elec       q    Type
REMARK                         _______ _______ _______ _____ _____    ______ ____
ROOT
ATOM      1  C   UNL     1       0.933   3.462  20.105  0.00  0.00    +0.000 C 
ATOM      2  C   UNL     1       2.316   3.990  19.848  0.00  0.00    +0.000 A 
ATOM      3  C   UNL     1       3.245   3.051  19.350  0.00  0.00    +0.000 A 
ATOM      4  C   UNL     1       4.556   3.403  19.040  0.00  0.00    +0.000 A 
ATOM      5  C   UNL     1       4.971   4.718  19.216  0.00  0.00    +0.000 A 
ATOM      6  C   UNL     1       4.048   5.664  19.702  0.00  0.00    +0.000 A 
ATOM      7  C   UNL     1       2.718   5.330  20.054  0.00  0.00    +0.000 A 
ENDROOT
BRANCH   5   8
ATOM      8  C   UNL     1       6.361   5.170  18.919  0.00  0.00    +0.000 C 
ATOM      9  N   UNL     1       6.705   5.438  17.620  0.00  0.00    +0.000 N 
ATOM     10  O   UNL     1       7.195   5.299  19.806  0.00  0.00    +0.000 OA
ATOM     11  H   UNL     1       6.088   5.385  16.825  0.00  0.00    +0.000 HD
ATOM     12  H   UNL     1       7.657   5.742  17.455  0.00  0.00    +0.000 HD
ENDBRANCH   5   8
BRANCH   7  13
ATOM     13  N   UNL     1       1.883   6.396  20.451  0.00  0.00    +0.000 N 
ATOM     14  H   UNL     1       0.910   6.092  20.499  0.00  0.00    +0.000 HD
BRANCH  13  15
ATOM     15  C   UNL     1       1.980   7.697  19.797  0.00  0.00    +0.000 C 
BRANCH  15  16
ATOM     16  C   UNL     1       1.212   8.745  20.567  0.00  0.00    +0.000 A 
ATOM     17  C   UNL     1       0.405   9.708  19.837  0.00  0.00    +0.000 A 
ATOM     18  C   UNL     1      -0.367  10.586  20.491  0.00  0.00    +0.000 A 
ATOM     19  N   UNL     1      -0.419  10.603  21.872  0.00  0.00    +0.000 N 
ATOM     20  C   UNL     1      -1.249  11.573  22.563  0.00  0.00    +0.000 C 
ATOM     21  C   UNL     1       0.305   9.706  22.652  0.00  0.00    +0.000 A 
ATOM     22  O   UNL     1       0.268   9.655  23.878  0.00  0.00    +0.000 OA
ATOM     23  C   UNL     1       1.164   8.744  21.910  0.00  0.00    +0.000 A 
ENDBRANCH  15  16
ENDBRANCH  13  15
ENDBRANCH   7  13
TORSDOF 4
ENDMDL
MODEL 8
REMARK VINA RESULT:      -6.8      2.085      3.213
REMARK  Name = 
REMARK  6 active torsions:
REMARK  status: ('A' for Active; 'I' for Inactive)
REMARK    1  A    between atoms: C_1  and  C_2
REMARK    2  A    between atoms: C_5  and  C_6
REMARK    3  A    between atoms: C_10  and  N_11
REMARK    4  A    between atoms: N_11  and  C_12
REMARK    5  A    between atoms: C_12  and  C_13
REMARK    6  A    between atoms: N_16  and  C_17
REMARK                            x       y       z     vdW  Elec       q    Type
REMARK                         _______ _______ _______ _____ _____    ______ ____
ROOT
ATOM      1  C   UNL     1       2.000   2.399  19.944  0.00  0.00    +0.000 C 
ATOM      2  C   UNL     1       1.994   3.868  19.626  0.00  0.00    +0.000 A 
ATOM      3  C   UNL     1       1.691   4.725  20.707  0.00  0.00    +0.000 A 
ATOM      4  C   UNL     1       1.676   6.110  20.566  0.00  0.00    +0.000 A 
ATOM      5  C   UNL     1       1.974   6.676  19.333  0.00  0.00    +0.000 A 
ATOM      6  C   UNL     1       2.289   5.829  18.253  0.00  0.00    +0.000 A 
ATOM      7  C   UNL     1       2.282   4.417  18.356  0.00  0.00    +0.000 A 
ENDROOT
BRANCH   5   8
ATOM      8  C   UNL     1       1.967   8.150  19.101  0.00  0.00    +0.000 C 
ATOM      9  N   UNL     1       2.554   8.644  17.966  0.00  0.00    +0.000 N 
ATOM     10  O   UNL     1       1.455   8.921  19.903  0.00  0.00    +0.000 OA
ATOM     11  H   UNL     1       2.980   8.093  17.237  0.00  0.00    +0.000 HD
ATOM     12  H   UNL     1       2.531   9.648  17.842  0.00  0.00    +0.000 HD
ENDBRANCH   5   8
BRANCH   7  13
ATOM     13  N   UNL     1       2.696   3.699  17.214  0.00  0.00    +0.000 N 
ATOM     14  H   UNL     1       1.990   3.013  16.945  0.00  0.00    +0.000 HD
BRANCH  13  15
ATOM     15  C   UNL     1       4.029   3.109  17.152  0.00  0.00    +0.000 C 
BRANCH  15  16
ATOM     16  C   UNL     1       5.092   4.155  17.393  0.00  0.00    +0.000 A 
ATOM     17  C   UNL     1       5.380   5.124  16.349  0.00  0.00    +0.000 A 
ATOM     18  C   UNL     1       6.244   6.125  16.567  0.00  0.00    +0.000 A 
ATOM     19  N   UNL     1       6.884   6.265  17.784  0.00  0.00    +0.000 N 
ATOM     20  C   UNL     1       7.828   7.347  17.995  0.00  0.00    +0.000 C 
ATOM     21  C   UNL     1       6.654   5.396  18.846  0.00  0.00    +0.000 A 
ATOM     22  O   UNL     1       7.169   5.496  19.956  0.00  0.00    +0.000 OA
ATOM     23  C   UNL     1       5.700   4.285  18.585  0.00  0.00    +0.000 A 
ENDBRANCH  15  16
ENDBRANCH  13  15
ENDBRANCH   7  13
TORSDOF 4
ENDMDL
MODEL 9
REMARK VINA RESULT:      -6.8      3.707      6.570
REMARK  Name = 
REMARK  6 active torsions:
REMARK  status: ('A' for Active; 'I' for Inactive)
REMARK    1  A    between atoms: C_1  and  C_2
REMARK    2  A    between atoms: C_5  and  C_6
REMARK    3  A    between atoms: C_10  and  N_11
REMARK    4  A    between atoms: N_11  and  C_12
REMARK    5  A    between atoms: C_12  and  C_13
REMARK    6  A    between atoms: N_16  and  C_17
REMARK                            x       y       z     vdW  Elec       q    Type
REMARK                         _______ _______ _______ _____ _____    ______ ____
ROOT
ATOM      1  C   UNL     1       1.454   4.279  17.816  0.00  0.00    +0.000 C 
ATOM      2  C   UNL     1       2.905   4.624  17.628  0.00  0.00    +0.000 A 
ATOM      3  C   UNL     1       3.698   3.621  17.028  0.00  0.00    +0.000 A 
ATOM      4  C   UNL     1       5.052   3.811  16.767  0.00  0.00    +0.000 A 
ATOM      5  C   UNL     1       5.650   5.021  17.097  0.00  0.00    +0.000 A 
ATOM      6  C   UNL     1       4.864   6.030  17.686  0.00  0.00    +0.000 A 
ATOM      7  C   UNL     1       3.493   5.857  17.991  0.00  0.00    +0.000 A 
ENDROOT
BRANCH   5   8
ATOM      8  C   UNL     1       7.097   5.295  16.859  0.00  0.00    +0.000 C 
ATOM      9  N   UNL     1       7.473   6.541  16.433  0.00  0.00    +0.000 N 
ATOM     10  O   UNL     1       7.948   4.432  17.033  0.00  0.00    +0.000 OA
ATOM     11  H   UNL     1       6.854   7.324  16.284  0.00  0.00    +0.000 HD
ATOM     12  H   UNL     1       8.463   6.691  16.282  0.00  0.00    +0.000 HD
ENDBRANCH   5   8
BRANCH   7  13
ATOM     13  N   UNL     1       2.813   6.982  18.506  0.00  0.00    +0.000 N 
ATOM     14  H   UNL     1       3.342   7.835  18.326  0.00  0.00    +0.000 HD
BRANCH  13  15
ATOM     15  C   UNL     1       2.300   6.977  19.872  0.00  0.00    +0.000 C 
BRANCH  15  16
ATOM     16  C   UNL     1       1.578   8.268  20.179  0.00  0.00    +0.000 A 
ATOM     17  C   UNL     1       1.241   8.577  21.559  0.00  0.00    +0.000 A 
ATOM     18  C   UNL     1       0.691   9.756  21.879  0.00  0.00    +0.000 A 
ATOM     19  N   UNL     1       0.429  10.708  20.913  0.00  0.00    +0.000 N 
ATOM     20  C   UNL     1      -0.182  11.974  21.277  0.00  0.00    +0.000 C 
ATOM     21  C   UNL     1       0.736  10.507  19.570  0.00  0.00    +0.000 A 
ATOM     22  O   UNL     1       0.557  11.331  18.679  0.00  0.00    +0.000 OA
ATOM     23  C   UNL     1       1.337   9.189  19.231  0.00  0.00    +0.000 A 
ENDBRANCH  15  16
ENDBRANCH  13  15
ENDBRANCH   7  13
TORSDOF 4
ENDMDL
