MODEL 1
REMARK VINA RESULT:      -7.2      0.000      0.000
REMARK  Name = 
REMARK  8 active torsions:
REMARK  status: ('A' for Active; 'I' for Inactive)
REMARK    1  A    between atoms: C_1  and  N_2
REMARK    2  A    between atoms: C_6  and  O_7
REMARK    3  A    between atoms: C_6  and  C_12
REMARK    4  A    between atoms: O_7  and  C_8
REMARK    5  A    between atoms: C_8  and  C_9
REMARK    6  A    between atoms: C_9  and  C_10
REMARK    7  A    between atoms: C_10  and  S_11
REMARK    8  A    between atoms: C_15  and  C_16
REMARK                            x       y       z     vdW  Elec       q    Type
REMARK                         _______ _______ _______ _____ _____    ______ ____
ROOT
ATOM      1  C   UNL     1       3.190   2.258  17.921  0.00  0.00    +0.000 C 
ATOM      2  N   UNL     1       2.044   3.025  18.380  0.00  0.00    +0.000 NA
ATOM      3  C   UNL     1       1.582   2.618  19.713  0.00  0.00    +0.000 C 
ATOM      4  C   UNL     1       2.303   3.322  20.867  0.00  0.00    +0.000 C 
ATOM      5  O   UNL     1       2.167   4.738  20.780  0.00  0.00    +0.000 OA
ATOM      6  C   UNL     1       2.768   5.277  19.589  0.00  0.00    +0.000 C 
ATOM      7  C   UNL     1       2.240   4.494  18.318  0.00  0.00    +0.000 C 
ENDROOT
BRANCH   6   8
ATOM      8  C   UNL     1       2.283   6.732  19.421  0.00  0.00    +0.000 A 
ATOM      9  C   UNL     1       1.844   7.508  20.505  0.00  0.00    +0.000 A 
ATOM     10  C   UNL     1       1.314   8.793  20.301  0.00  0.00    +0.000 A 
ATOM     11  C   UNL     1       1.283   9.379  19.028  0.00  0.00    +0.000 A 
ATOM     12  C   UNL     1       1.827   8.633  17.971  0.00  0.00    +0.000 A 
ATOM     13  C   UNL     1       2.300   7.332  18.156  0.00  0.00    +0.000 A 
BRANCH  11  14
ATOM     14  C   UNL     1       0.717  10.728  18.791  0.00  0.00    +0.000 A 
ATOM     15  C   UNL     1       1.505  11.890  18.893  0.00  0.00    +0.000 A 
ATOM     16  C   UNL     1       0.974  13.160  18.660  0.00  0.00    +0.000 A 
ATOM     17  C   UNL     1      -0.369  13.302  18.311  0.00  0.00    +0.000 A 
ATOM     18  C   UNL     1      -1.170  12.176  18.211  0.00  0.00    +0.000 A 
ATOM     19  C   UNL     1      -0.639  10.906  18.457  0.00  0.00    +0.000 A 
ENDBRANCH  11  14
ENDBRANCH   6   8
BRANCH   6  20
ATOM     20  O   UNL     1       4.206   5.169  19.675  0.00  0.00    +0.000 OA
BRANCH  20  21
ATOM     21  C   UNL     1       4.960   5.249  18.459  0.00  0.00    +0.000 C 
BRANCH  21  22
ATOM     22  C   UNL     1       6.423   5.673  18.581  0.00  0.00    +0.000 C 
BRANCH  22  23
ATOM     23  C   UNL     1       7.296   4.766  17.714  0.00  0.00    +0.000 C 
BRANCH  23  24
ATOM     24  S   UNL     1       6.507   4.419  16.116  0.00  0.00    +0.000 S 
ATOM     25  H   UNL     1       7.307   5.202  15.377  0.00  0.00    +0.000 HD
ENDBRANCH  23  24
ENDBRANCH  22  23
ENDBRANCH  21  22
ENDBRANCH  20  21
ENDBRANCH   6  20
TORSDOF 7
ENDMDL
MODEL 2
REMARK VINA RESULT:      -7.1      2.668      3.879
REMARK  Name = 
REMARK  8 active torsions:
REMARK  status: ('A' for Active; 'I' for Inactive)
REMARK    1  A    between atoms: C_1  and  N_2
REMARK    2  A    between atoms: C_6  and  O_7
REMARK    3  A    between atoms: C_6  and  C_12
REMARK    4  A    between atoms: O_7  and  C_8
REMARK    5  A    between atoms: C_8  and  C_9
REMARK    6  A    between atoms: C_9  and  C_10
REMARK    7  A    between atoms: C_10  and  S_11
REMARK    8  A    between atoms: C_15  and  C_16
REMARK                            x       y       z     vdW  Elec       q    Type
REMARK                         _______ _______ _______ _____ _____    ______ ____
ROOT
ATOM      1  C   UNL     1       5.303   3.874  18.788  0.00  0.00    +0.000 C 
ATOM      2  N   UNL     1       5.367   5.315  18.964  0.00  0.00    +0.000 NA
ATOM      3  C   UNL     1       5.882   6.012  17.778  0.00  0.00    +0.000 C 
ATOM      4  C   UNL     1       4.810   6.354  16.738  0.00  0.00    +0.000 C 
ATOM      5  O   UNL     1       3.781   7.166  17.299  0.00  0.00    +0.000 OA
ATOM      6  C   UNL     1       3.068   6.498  18.355  0.00  0.00    +0.000 C 
ATOM      7  C   UNL     1       4.092   5.922  19.417  0.00  0.00    +0.000 C 
ENDROOT
BRANCH   6   8
ATOM      8  C   UNL     1       2.226   7.550  19.107  0.00  0.00    +0.000 A 
ATOM      9  C   UNL     1       1.921   7.432  20.472  0.00  0.00    +0.000 A 
ATOM     10  C   UNL     1       1.068   8.355  21.100  0.00  0.00    +0.000 A 
ATOM     11  C   UNL     1       0.564   9.470  20.416  0.00  0.00    +0.000 A 
ATOM     12  C   UNL     1       0.968   9.633  19.083  0.00  0.00    +0.000 A 
ATOM     13  C   UNL     1       1.766   8.688  18.434  0.00  0.00    +0.000 A 
BRANCH  11  14
ATOM     14  C   UNL     1      -0.346  10.448  21.059  0.00  0.00    +0.000 A 
ATOM     15  C   UNL     1      -1.063  11.396  20.306  0.00  0.00    +0.000 A 
ATOM     16  C   UNL     1      -1.928  12.310  20.910  0.00  0.00    +0.000 A 
ATOM     17  C   UNL     1      -2.104  12.297  22.293  0.00  0.00    +0.000 A 
ATOM     18  C   UNL     1      -1.405  11.378  23.060  0.00  0.00    +0.000 A 
ATOM     19  C   UNL     1      -0.529  10.472  22.454  0.00  0.00    +0.000 A 
ENDBRANCH  11  14
ENDBRANCH   6   8
BRANCH   6  20
ATOM     20  O   UNL     1       2.270   5.427  17.805  0.00  0.00    +0.000 OA
BRANCH  20  21
ATOM     21  C   UNL     1       1.677   4.493  18.717  0.00  0.00    +0.000 C 
BRANCH  21  22
ATOM     22  C   UNL     1       1.568   3.043  18.247  0.00  0.00    +0.000 C 
BRANCH  22  23
ATOM     23  C   UNL     1       1.844   2.101  19.419  0.00  0.00    +0.000 C 
BRANCH  23  24
ATOM     24  S   UNL     1       1.436   2.882  21.006  0.00  0.00    +0.000 S 
ATOM     25  H   UNL     1       0.104   2.755  20.901  0.00  0.00    +0.000 HD
ENDBRANCH  23  24
ENDBRANCH  22  23
ENDBRANCH  21  22
ENDBRANCH  20  21
ENDBRANCH   6  20
TORSDOF 7
ENDMDL
MODEL 3
REMARK VINA RESULT:      -7.1      0.358      1.042
REMARK  Name = 
REMARK  8 active torsions:
REMARK  status: ('A' for Active; 'I' for Inactive)
REMARK    1  A    between atoms: C_1  and  N_2
REMARK    2  A    between atoms: C_6  and  O_7
REMARK    3  A    between atoms: C_6  and  C_12
REMARK    4  A    between atoms: O_7  and  C_8
REMARK    5  A    between atoms: C_8  and  C_9
REMARK    6  A    between atoms: C_9  and  C_10
REMARK    7  A    between atoms: C_10  and  S_11
REMARK    8  A    between atoms: C_15  and  C_16
REMARK                            x       y       z     vdW  Elec       q    Type
REMARK                         _______ _______ _______ _____ _____    ______ ____
ROOT
ATOM      1  C   UNL     1       3.587   2.224  17.910  0.00  0.00    +0.000 C 
ATOM      2  N   UNL     1       2.400   2.936  18.354  0.00  0.00    +0.000 NA
ATOM      3  C   UNL     1       1.941   2.507  19.681  0.00  0.00    +0.000 C 
ATOM      4  C   UNL     1       2.613   3.242  20.844  0.00  0.00    +0.000 C 
ATOM      5  O   UNL     1       2.412   4.651  20.757  0.00  0.00    +0.000 OA
ATOM      6  C   UNL     1       3.002   5.218  19.574  0.00  0.00    +0.000 C 
ATOM      7  C   UNL     1       2.528   4.412  18.295  0.00  0.00    +0.000 C 
ENDROOT
BRANCH   6   8
ATOM      8  C   UNL     1       2.451   6.648  19.400  0.00  0.00    +0.000 A 
ATOM      9  C   UNL     1       1.906   7.379  20.467  0.00  0.00    +0.000 A 
ATOM     10  C   UNL     1       1.322   8.639  20.252  0.00  0.00    +0.000 A 
ATOM     11  C   UNL     1       1.338   9.248  18.990  0.00  0.00    +0.000 A 
ATOM     12  C   UNL     1       1.985   8.552  17.957  0.00  0.00    +0.000 A 
ATOM     13  C   UNL     1       2.515   7.275  18.148  0.00  0.00    +0.000 A 
BRANCH  11  14
ATOM     14  C   UNL     1       0.717  10.570  18.740  0.00  0.00    +0.000 A 
ATOM     15  C   UNL     1      -0.657  10.701  18.465  0.00  0.00    +0.000 A 
ATOM     16  C   UNL     1      -1.245  11.948  18.240  0.00  0.00    +0.000 A 
ATOM     17  C   UNL     1      -0.469  13.105  18.291  0.00  0.00    +0.000 A 
ATOM     18  C   UNL     1       0.888  13.005  18.553  0.00  0.00    +0.000 A 
ATOM     19  C   UNL     1       1.477  11.754  18.766  0.00  0.00    +0.000 A 
ENDBRANCH  11  14
ENDBRANCH   6   8
BRANCH   6  20
ATOM     20  O   UNL     1       4.442   5.177  19.678  0.00  0.00    +0.000 OA
BRANCH  20  21
ATOM     21  C   UNL     1       5.202   5.082  18.467  0.00  0.00    +0.000 C 
BRANCH  21  22
ATOM     22  C   UNL     1       6.511   5.868  18.409  0.00  0.00    +0.000 C 
BRANCH  22  23
ATOM     23  C   UNL     1       7.089   5.803  16.995  0.00  0.00    +0.000 C 
BRANCH  23  24
ATOM     24  S   UNL     1       6.381   4.422  16.055  0.00  0.00    +0.000 S 
ATOM     25  H   UNL     1       5.099   4.665  16.366  0.00  0.00    +0.000 HD
ENDBRANCH  23  24
ENDBRANCH  22  23
ENDBRANCH  21  22
ENDBRANCH  20  21
ENDBRANCH   6  20
TORSDOF 7
ENDMDL
MODEL 4
REMARK VINA RESULT:      -7.0      3.970      8.200
REMARK  Name = 
REMARK  8 active torsions:
REMARK  status: ('A' for Active; 'I' for Inactive)
REMARK    1  A    between atoms: C_1  and  N_2
REMARK    2  A    between atoms: C_6  and  O_7
REMARK    3  A    between atoms: C_6  and  C_12
REMARK    4  A    between atoms: O_7  and  C_8
REMARK    5  A    between atoms: C_8  and  C_9
REMARK    6  A    between atoms: C_9  and  C_10
REMARK    7  A    between atoms: C_10  and  S_11
REMARK    8  A    between atoms: C_15  and  C_16
REMARK                            x       y       z     vdW  Elec       q    Type
REMARK                         _______ _______ _______ _____ _____    ______ ____
ROOT
ATOM      1  C   UNL     1      -0.041  14.291  18.815  0.00  0.00    +0.000 C 
ATOM      2  N   UNL     1       1.073  13.536  19.364  0.00  0.00    +0.000 NA
ATOM      3  C   UNL     1       1.162  13.633  20.827  0.00  0.00    +0.000 C 
ATOM      4  C   UNL     1       0.311  12.604  21.577  0.00  0.00    +0.000 C 
ATOM      5  O   UNL     1       0.666  11.272  21.214  0.00  0.00    +0.000 OA
ATOM      6  C   UNL     1       0.429  10.999  19.822  0.00  0.00    +0.000 C 
ATOM      7  C   UNL     1       1.109  12.118  18.930  0.00  0.00    +0.000 C 
ENDROOT
BRANCH   6   8
ATOM      8  C   UNL     1       1.144   9.680  19.461  0.00  0.00    +0.000 A 
ATOM      9  C   UNL     1       1.687   9.443  18.189  0.00  0.00    +0.000 A 
ATOM     10  C   UNL     1       2.241   8.192  17.866  0.00  0.00    +0.000 A 
ATOM     11  C   UNL     1       2.350   7.171  18.819  0.00  0.00    +0.000 A 
ATOM     12  C   UNL     1       1.903   7.462  20.117  0.00  0.00    +0.000 A 
ATOM     13  C   UNL     1       1.297   8.681  20.430  0.00  0.00    +0.000 A 
BRANCH  11  14
ATOM     14  C   UNL     1       2.920   5.842  18.494  0.00  0.00    +0.000 A 
ATOM     15  C   UNL     1       2.162   4.852  17.842  0.00  0.00    +0.000 A 
ATOM     16  C   UNL     1       2.702   3.604  17.526  0.00  0.00    +0.000 A 
ATOM     17  C   UNL     1       4.027   3.313  17.851  0.00  0.00    +0.000 A 
ATOM     18  C   UNL     1       4.794   4.266  18.501  0.00  0.00    +0.000 A 
ATOM     19  C   UNL     1       4.247   5.512  18.827  0.00  0.00    +0.000 A 
ENDBRANCH  11  14
ENDBRANCH   6   8
BRANCH   6  20
ATOM     20  O   UNL     1      -0.992  10.958  19.566  0.00  0.00    +0.000 OA
BRANCH  20  21
ATOM     21  C   UNL     1      -1.442  11.212  18.229  0.00  0.00    +0.000 C 
BRANCH  21  22
ATOM     22  C   UNL     1      -1.920  10.007  17.421  0.00  0.00    +0.000 C 
BRANCH  22  23
ATOM     23  C   UNL     1      -3.233  10.348  16.716  0.00  0.00    +0.000 C 
BRANCH  23  24
ATOM     24  S   UNL     1      -3.085  10.159  14.917  0.00  0.00    +0.000 S 
ATOM     25  H   UNL     1      -3.636  11.339  14.593  0.00  0.00    +0.000 HD
ENDBRANCH  23  24
ENDBRANCH  22  23
ENDBRANCH  21  22
ENDBRANCH  20  21
ENDBRANCH   6  20
TORSDOF 7
ENDMDL
MODEL 5
REMARK VINA RESULT:      -7.0      0.471      1.084
REMARK  Name = 
REMARK  8 active torsions:
REMARK  status: ('A' for Active; 'I' for Inactive)
REMARK    1  A    between atoms: C_1  and  N_2
REMARK    2  A    between atoms: C_6  and  O_7
REMARK    3  A    between atoms: C_6  and  C_12
REMARK    4  A    between atoms: O_7  and  C_8
REMARK    5  A    between atoms: C_8  and  C_9
REMARK    6  A    between atoms: C_9  and  C_10
REMARK    7  A    between atoms: C_10  and  S_11
REMARK    8  A    between atoms: C_15  and  C_16
REMARK                            x       y       z     vdW  Elec       q    Type
REMARK                         _______ _______ _______ _____ _____    ______ ____
ROOT
ATOM      1  C   UNL     1       3.712   2.568  17.938  0.00  0.00    +0.000 C 
ATOM      2  N   UNL     1       2.479   3.239  18.317  0.00  0.00    +0.000 NA
ATOM      3  C   UNL     1       1.987   2.825  19.637  0.00  0.00    +0.000 C 
ATOM      4  C   UNL     1       2.582   3.619  20.805  0.00  0.00    +0.000 C 
ATOM      5  O   UNL     1       2.325   5.015  20.670  0.00  0.00    +0.000 OA
ATOM      6  C   UNL     1       2.937   5.576  19.496  0.00  0.00    +0.000 C 
ATOM      7  C   UNL     1       2.547   4.718  18.222  0.00  0.00    +0.000 C 
ENDROOT
BRANCH   6   8
ATOM      8  C   UNL     1       2.334   6.976  19.261  0.00  0.00    +0.000 A 
ATOM      9  C   UNL     1       2.317   7.586  17.997  0.00  0.00    +0.000 A 
ATOM     10  C   UNL     1       1.852   8.902  17.840  0.00  0.00    +0.000 A 
ATOM     11  C   UNL     1       1.310   9.621  18.914  0.00  0.00    +0.000 A 
ATOM     12  C   UNL     1       1.233   8.958  20.148  0.00  0.00    +0.000 A 
ATOM     13  C   UNL     1       1.748   7.672  20.326  0.00  0.00    +0.000 A 
BRANCH  11  14
ATOM     14  C   UNL     1       0.826  11.015  18.770  0.00  0.00    +0.000 A 
ATOM     15  C   UNL     1       1.706  12.112  18.814  0.00  0.00    +0.000 A 
ATOM     16  C   UNL     1       1.251  13.424  18.668  0.00  0.00    +0.000 A 
ATOM     17  C   UNL     1      -0.106  13.674  18.467  0.00  0.00    +0.000 A 
ATOM     18  C   UNL     1      -0.996  12.613  18.427  0.00  0.00    +0.000 A 
ATOM     19  C   UNL     1      -0.540  11.301  18.586  0.00  0.00    +0.000 A 
ENDBRANCH  11  14
ENDBRANCH   6   8
BRANCH   6  20
ATOM     20  O   UNL     1       4.372   5.600  19.655  0.00  0.00    +0.000 OA
BRANCH  20  21
ATOM     21  C   UNL     1       5.180   5.678  18.474  0.00  0.00    +0.000 C 
BRANCH  21  22
ATOM     22  C   UNL     1       6.547   4.998  18.526  0.00  0.00    +0.000 C 
BRANCH  22  23
ATOM     23  C   UNL     1       7.053   4.751  17.105  0.00  0.00    +0.000 C 
BRANCH  23  24
ATOM     24  S   UNL     1       5.775   5.127  15.873  0.00  0.00    +0.000 S 
ATOM     25  H   UNL     1       4.746   4.600  16.553  0.00  0.00    +0.000 HD
ENDBRANCH  23  24
ENDBRANCH  22  23
ENDBRANCH  21  22
ENDBRANCH  20  21
ENDBRANCH   6  20
TORSDOF 7
ENDMDL
MODEL 6
REMARK VINA RESULT:      -7.0      2.726      4.177
REMARK  Name = 
REMARK  8 active torsions:
REMARK  status: ('A' for Active; 'I' for Inactive)
REMARK    1  A    between atoms: C_1  and  N_2
REMARK    2  A    between atoms: C_6  and  O_7
REMARK    3  A    between atoms: C_6  and  C_12
REMARK    4  A    between atoms: O_7  and  C_8
REMARK    5  A    between atoms: C_8  and  C_9
REMARK    6  A    between atoms: C_9  and  C_10
REMARK    7  A    between atoms: C_10  and  S_11
REMARK    8  A    between atoms: C_15  and  C_16
REMARK                            x       y       z     vdW  Elec       q    Type
REMARK                         _______ _______ _______ _____ _____    ______ ____
ROOT
ATOM      1  C   UNL     1       6.220   4.286  18.241  0.00  0.00    +0.000 C 
ATOM      2  N   UNL     1       6.031   5.722  18.360  0.00  0.00    +0.000 NA
ATOM      3  C   UNL     1       6.308   6.440  17.110  0.00  0.00    +0.000 C 
ATOM      4  C   UNL     1       5.110   6.530  16.160  0.00  0.00    +0.000 C 
ATOM      5  O   UNL     1       3.998   7.169  16.783  0.00  0.00    +0.000 OA
ATOM      6  C   UNL     1       3.510   6.437  17.922  0.00  0.00    +0.000 C 
ATOM      7  C   UNL     1       4.708   6.110  18.906  0.00  0.00    +0.000 C 
ENDROOT
BRANCH   6   8
ATOM      8  C   UNL     1       2.554   7.356  18.711  0.00  0.00    +0.000 A 
ATOM      9  C   UNL     1       1.955   8.488  18.137  0.00  0.00    +0.000 A 
ATOM     10  C   UNL     1       1.171   9.358  18.913  0.00  0.00    +0.000 A 
ATOM     11  C   UNL     1       0.888   9.085  20.258  0.00  0.00    +0.000 A 
ATOM     12  C   UNL     1       1.404   7.893  20.788  0.00  0.00    +0.000 A 
ATOM     13  C   UNL     1       2.233   7.054  20.040  0.00  0.00    +0.000 A 
BRANCH  11  14
ATOM     14  C   UNL     1       0.074   9.998  21.096  0.00  0.00    +0.000 A 
ATOM     15  C   UNL     1      -0.247   9.687  22.431  0.00  0.00    +0.000 A 
ATOM     16  C   UNL     1      -1.006  10.551  23.223  0.00  0.00    +0.000 A 
ATOM     17  C   UNL     1      -1.462  11.760  22.699  0.00  0.00    +0.000 A 
ATOM     18  C   UNL     1      -1.168  12.088  21.385  0.00  0.00    +0.000 A 
ATOM     19  C   UNL     1      -0.418  11.215  20.590  0.00  0.00    +0.000 A 
ENDBRANCH  11  14
ENDBRANCH   6   8
BRANCH   6  20
ATOM     20  O   UNL     1       2.881   5.213  17.484  0.00  0.00    +0.000 OA
BRANCH  20  21
ATOM     21  C   UNL     1       2.937   4.078  18.358  0.00  0.00    +0.000 C 
BRANCH  21  22
ATOM     22  C   UNL     1       1.638   3.297  18.558  0.00  0.00    +0.000 C 
BRANCH  22  23
ATOM     23  C   UNL     1       0.959   3.752  19.850  0.00  0.00    +0.000 C 
BRANCH  23  24
ATOM     24  S   UNL     1       1.614   2.862  21.290  0.00  0.00    +0.000 S 
ATOM     25  H   UNL     1       2.138   1.832  20.608  0.00  0.00    +0.000 HD
ENDBRANCH  23  24
ENDBRANCH  22  23
ENDBRANCH  21  22
ENDBRANCH  20  21
ENDBRANCH   6  20
TORSDOF 7
ENDMDL
MODEL 7
REMARK VINA RESULT:      -7.0      2.548      3.808
REMARK  Name = 
REMARK  8 active torsions:
REMARK  status: ('A' for Active; 'I' for Inactive)
REMARK    1  A    between atoms: C_1  and  N_2
REMARK    2  A    between atoms: C_6  and  O_7
REMARK    3  A    between atoms: C_6  and  C_12
REMARK    4  A    between atoms: O_7  and  C_8
REMARK    5  A    between atoms: C_8  and  C_9
REMARK    6  A    between atoms: C_9  and  C_10
REMARK    7  A    between atoms: C_10  and  S_11
REMARK    8  A    between atoms: C_15  and  C_16
REMARK                            x       y       z     vdW  Elec       q    Type
REMARK                         _______ _______ _______ _____ _____    ______ ____
ROOT
ATOM      1  C   UNL     1       5.007   3.562  19.103  0.00  0.00    +0.000 C 
ATOM      2  N   UNL     1       5.173   4.994  19.285  0.00  0.00    +0.000 NA
ATOM      3  C   UNL     1       5.919   5.626  18.190  0.00  0.00    +0.000 C 
ATOM      4  C   UNL     1       5.051   6.047  17.000  0.00  0.00    +0.000 C 
ATOM      5  O   UNL     1       4.026   6.954  17.398  0.00  0.00    +0.000 OA
ATOM      6  C   UNL     1       3.105   6.366  18.334  0.00  0.00    +0.000 C 
ATOM      7  C   UNL     1       3.903   5.718  19.540  0.00  0.00    +0.000 C 
ENDROOT
BRANCH   6   8
ATOM      8  C   UNL     1       2.258   7.499  18.950  0.00  0.00    +0.000 A 
ATOM      9  C   UNL     1       1.755   8.563  18.185  0.00  0.00    +0.000 A 
ATOM     10  C   UNL     1       1.074   9.629  18.797  0.00  0.00    +0.000 A 
ATOM     11  C   UNL     1       0.796   9.629  20.170  0.00  0.00    +0.000 A 
ATOM     12  C   UNL     1       1.208   8.506  20.902  0.00  0.00    +0.000 A 
ATOM     13  C   UNL     1       1.938   7.471  20.314  0.00  0.00    +0.000 A 
BRANCH  11  14
ATOM     14  C   UNL     1       0.089  10.750  20.835  0.00  0.00    +0.000 A 
ATOM     15  C   UNL     1      -0.243  11.930  20.142  0.00  0.00    +0.000 A 
ATOM     16  C   UNL     1      -0.918  12.981  20.766  0.00  0.00    +0.000 A 
ATOM     17  C   UNL     1      -1.285  12.878  22.107  0.00  0.00    +0.000 A 
ATOM     18  C   UNL     1      -0.964  11.731  22.815  0.00  0.00    +0.000 A 
ATOM     19  C   UNL     1      -0.277  10.684  22.192  0.00  0.00    +0.000 A 
ENDBRANCH  11  14
ENDBRANCH   6   8
BRANCH   6  20
ATOM     20  O   UNL     1       2.307   5.362  17.672  0.00  0.00    +0.000 OA
BRANCH  20  21
ATOM     21  C   UNL     1       1.493   4.506  18.484  0.00  0.00    +0.000 C 
BRANCH  21  22
ATOM     22  C   UNL     1       1.560   3.008  18.190  0.00  0.00    +0.000 C 
BRANCH  22  23
ATOM     23  C   UNL     1       1.496   2.223  19.500  0.00  0.00    +0.000 C 
BRANCH  23  24
ATOM     24  S   UNL     1       1.436   3.334  20.934  0.00  0.00    +0.000 S 
ATOM     25  H   UNL     1       2.198   2.583  21.743  0.00  0.00    +0.000 HD
ENDBRANCH  23  24
ENDBRANCH  22  23
ENDBRANCH  21  22
ENDBRANCH  20  21
ENDBRANCH   6  20
TORSDOF 7
ENDMDL
MODEL 8
REMARK VINA RESULT:      -7.0      0.660      1.545
REMARK  Name = 
REMARK  8 active torsions:
REMARK  status: ('A' for Active; 'I' for Inactive)
REMARK    1  A    between atoms: C_1  and  N_2
REMARK    2  A    between atoms: C_6  and  O_7
REMARK    3  A    between atoms: C_6  and  C_12
REMARK    4  A    between atoms: O_7  and  C_8
REMARK    5  A    between atoms: C_8  and  C_9
REMARK    6  A    between atoms: C_9  and  C_10
REMARK    7  A    between atoms: C_10  and  S_11
REMARK    8  A    between atoms: C_15  and  C_16
REMARK                            x       y       z     vdW  Elec       q    Type
REMARK                         _______ _______ _______ _____ _____    ______ ____
ROOT
ATOM      1  C   UNL     1       3.479   2.371  18.112  0.00  0.00    +0.000 C 
ATOM      2  N   UNL     1       2.289   3.096  18.524  0.00  0.00    +0.000 NA
ATOM      3  C   UNL     1       1.854   2.752  19.884  0.00  0.00    +0.000 C 
ATOM      4  C   UNL     1       2.532   3.573  20.985  0.00  0.00    +0.000 C 
ATOM      5  O   UNL     1       2.310   4.970  20.805  0.00  0.00    +0.000 OA
ATOM      6  C   UNL     1       2.877   5.463  19.578  0.00  0.00    +0.000 C 
ATOM      7  C   UNL     1       2.395   4.566  18.363  0.00  0.00    +0.000 C 
ENDROOT
BRANCH   6   8
ATOM      8  C   UNL     1       2.304   6.871  19.316  0.00  0.00    +0.000 A 
ATOM      9  C   UNL     1       2.329   7.469  18.046  0.00  0.00    +0.000 A 
ATOM     10  C   UNL     1       1.891   8.791  17.865  0.00  0.00    +0.000 A 
ATOM     11  C   UNL     1       1.335   9.529  18.919  0.00  0.00    +0.000 A 
ATOM     12  C   UNL     1       1.215   8.880  20.157  0.00  0.00    +0.000 A 
ATOM     13  C   UNL     1       1.703   7.587  20.359  0.00  0.00    +0.000 A 
BRANCH  11  14
ATOM     14  C   UNL     1       0.879  10.930  18.750  0.00  0.00    +0.000 A 
ATOM     15  C   UNL     1      -0.488  11.257  18.662  0.00  0.00    +0.000 A 
ATOM     16  C   UNL     1      -0.917  12.577  18.514  0.00  0.00    +0.000 A 
ATOM     17  C   UNL     1       0.014  13.613  18.454  0.00  0.00    +0.000 A 
ATOM     18  C   UNL     1       1.366  13.319  18.530  0.00  0.00    +0.000 A 
ATOM     19  C   UNL     1       1.795  11.994  18.666  0.00  0.00    +0.000 A 
ENDBRANCH  11  14
ENDBRANCH   6   8
BRANCH   6  20
ATOM     20  O   UNL     1       4.318   5.448  19.663  0.00  0.00    +0.000 OA
BRANCH  20  21
ATOM     21  C   UNL     1       5.059   5.115  18.482  0.00  0.00    +0.000 C 
BRANCH  21  22
ATOM     22  C   UNL     1       5.713   6.272  17.728  0.00  0.00    +0.000 C 
BRANCH  22  23
ATOM     23  C   UNL     1       5.452   6.123  16.230  0.00  0.00    +0.000 C 
BRANCH  23  24
ATOM     24  S   UNL     1       6.631   4.975  15.465  0.00  0.00    +0.000 S 
ATOM     25  H   UNL     1       7.739   5.671  15.762  0.00  0.00    +0.000 HD
ENDBRANCH  23  24
ENDBRANCH  22  23
ENDBRANCH  21  22
ENDBRANCH  20  21
ENDBRANCH   6  20
TORSDOF 7
ENDMDL
MODEL 9
REMARK VINA RESULT:      -6.9      2.175      3.431
REMARK  Name = 
REMARK  8 active torsions:
REMARK  status: ('A' for Active; 'I' for Inactive)
REMARK    1  A    between atoms: C_1  and  N_2
REMARK    2  A    between atoms: C_6  and  O_7
REMARK    3  A    between atoms: C_6  and  C_12
REMARK    4  A    between atoms: O_7  and  C_8
REMARK    5  A    between atoms: C_8  and  C_9
REMARK    6  A    between atoms: C_9  and  C_10
REMARK    7  A    between atoms: C_10  and  S_11
REMARK    8  A    between atoms: C_15  and  C_16
REMARK                            x       y       z     vdW  Elec       q    Type
REMARK                         _______ _______ _______ _____ _____    ______ ____
ROOT
ATOM      1  C   UNL     1       7.382   4.616  17.441  0.00  0.00    +0.000 C 
ATOM      2  N   UNL     1       6.307   5.344  16.788  0.00  0.00    +0.000 NA
ATOM      3  C   UNL     1       5.487   4.492  15.918  0.00  0.00    +0.000 C 
ATOM      4  C   UNL     1       4.340   3.778  16.641  0.00  0.00    +0.000 C 
ATOM      5  O   UNL     1       3.466   4.708  17.276  0.00  0.00    +0.000 OA
ATOM      6  C   UNL     1       4.126   5.471  18.301  0.00  0.00    +0.000 C 
ATOM      7  C   UNL     1       5.452   6.117  17.722  0.00  0.00    +0.000 C 
ENDROOT
BRANCH   6   8
ATOM      8  C   UNL     1       3.213   6.654  18.683  0.00  0.00    +0.000 A 
ATOM      9  C   UNL     1       2.611   6.762  19.947  0.00  0.00    +0.000 A 
ATOM     10  C   UNL     1       1.705   7.799  20.226  0.00  0.00    +0.000 A 
ATOM     11  C   UNL     1       1.436   8.808  19.291  0.00  0.00    +0.000 A 
ATOM     12  C   UNL     1       2.130   8.747  18.073  0.00  0.00    +0.000 A 
ATOM     13  C   UNL     1       2.985   7.687  17.765  0.00  0.00    +0.000 A 
BRANCH  11  14
ATOM     14  C   UNL     1       0.474   9.903  19.562  0.00  0.00    +0.000 A 
ATOM     15  C   UNL     1       0.316  10.445  20.851  0.00  0.00    +0.000 A 
ATOM     16  C   UNL     1      -0.582  11.484  21.104  0.00  0.00    +0.000 A 
ATOM     17  C   UNL     1      -1.348  12.014  20.066  0.00  0.00    +0.000 A 
ATOM     18  C   UNL     1      -1.218  11.493  18.789  0.00  0.00    +0.000 A 
ATOM     19  C   UNL     1      -0.327  10.445  18.540  0.00  0.00    +0.000 A 
ENDBRANCH  11  14
ENDBRANCH   6   8
BRANCH   6  20
ATOM     20  O   UNL     1       4.441   4.617  19.422  0.00  0.00    +0.000 OA
BRANCH  20  21
ATOM     21  C   UNL     1       3.746   3.368  19.532  0.00  0.00    +0.000 C 
BRANCH  21  22
ATOM     22  C   UNL     1       2.907   3.153  20.791  0.00  0.00    +0.000 C 
BRANCH  22  23
ATOM     23  C   UNL     1       1.422   3.259  20.443  0.00  0.00    +0.000 C 
BRANCH  23  24
ATOM     24  S   UNL     1       1.068   2.519  18.824  0.00  0.00    +0.000 S 
ATOM     25  H   UNL     1       0.526   3.614  18.270  0.00  0.00    +0.000 HD
ENDBRANCH  23  24
ENDBRANCH  22  23
ENDBRANCH  21  22
ENDBRANCH  20  21
ENDBRANCH   6  20
TORSDOF 7
ENDMDL
