MODEL 1
REMARK VINA RESULT:      -8.2      0.000      0.000
REMARK  Name = 
REMARK  10 active torsions:
REMARK  status: ('A' for Active; 'I' for Inactive)
REMARK    1  A    between atoms: C_1  and  C_2
REMARK    2  A    between atoms: N_4  and  C_5
REMARK    3  A    between atoms: N_16  and  C_17
REMARK    4  A    between atoms: C_20  and  O_21
REMARK    5  A    between atoms: O_21  and  C_22
REMARK    6  A    between atoms: C_22  and  C_23
REMARK    7  A    between atoms: C_23  and  C_24
REMARK    8  A    between atoms: C_24  and  C_25
REMARK    9  A    between atoms: C_25  and  O_26
REMARK   10  A    between atoms: O_26  and  N_27
REMARK                            x       y       z     vdW  Elec       q    Type
REMARK                         _______ _______ _______ _____ _____    ______ ____
ROOT
ATOM      1  C   UNL     1      -0.901  11.216  18.256  0.00  0.00    +0.000 C 
ATOM      2  C   UNL     1      -0.858  11.239  19.739  0.00  0.00    +0.000 A 
ATOM      3  N   UNL     1      -1.678  12.050  20.416  0.00  0.00    +0.000 NA
ATOM      4  N   UNL     1      -1.384  11.834  21.735  0.00  0.00    +0.000 N 
ATOM      5  C   UNL     1      -0.409  10.854  21.879  0.00  0.00    +0.000 A 
ATOM      6  N   UNL     1       0.083  10.349  23.028  0.00  0.00    +0.000 NA
ATOM      7  C   UNL     1       1.015   9.425  22.823  0.00  0.00    +0.000 A 
ATOM      8  N   UNL     1       1.468   8.990  21.645  0.00  0.00    +0.000 NA
ATOM      9  C   UNL     1       0.951   9.480  20.485  0.00  0.00    +0.000 A 
ATOM     10  N   UNL     1       1.426   9.001  19.256  0.00  0.00    +0.000 N 
ATOM     11  C   UNL     1      -0.038  10.470  20.598  0.00  0.00    +0.000 A 
ATOM     12  H   UNL     1       1.179   9.537  18.440  0.00  0.00    +0.000 HD
ENDROOT
BRANCH   4  13
ATOM     13  C   UNL     1      -2.053  12.577  22.754  0.00  0.00    +0.000 A 
ATOM     14  C   UNL     1      -3.344  12.196  23.147  0.00  0.00    +0.000 A 
ATOM     15  C   UNL     1      -4.008  12.904  24.152  0.00  0.00    +0.000 A 
ATOM     16  C   UNL     1      -3.399  13.999  24.765  0.00  0.00    +0.000 A 
ATOM     17  C   UNL     1      -2.125  14.387  24.377  0.00  0.00    +0.000 A 
ATOM     18  C   UNL     1      -1.452  13.682  23.376  0.00  0.00    +0.000 A 
ENDBRANCH   4  13
BRANCH  10  19
ATOM     19  C   UNL     1       2.187   7.847  19.012  0.00  0.00    +0.000 A 
ATOM     20  C   UNL     1       2.186   6.774  19.905  0.00  0.00    +0.000 A 
ATOM     21  C   UNL     1       3.021   5.681  19.734  0.00  0.00    +0.000 A 
ATOM     22  C   UNL     1       3.876   5.612  18.641  0.00  0.00    +0.000 A 
ATOM     23  C   UNL     1       3.884   6.663  17.722  0.00  0.00    +0.000 A 
ATOM     24  C   UNL     1       3.050   7.778  17.909  0.00  0.00    +0.000 A 
BRANCH  22  25
ATOM     25  O   UNL     1       4.725   4.562  18.399  0.00  0.00    +0.000 OA
BRANCH  25  26
ATOM     26  C   UNL     1       4.308   3.711  17.326  0.00  0.00    +0.000 C 
BRANCH  26  27
ATOM     27  C   UNL     1       2.795   3.605  17.282  0.00  0.00    +0.000 C 
BRANCH  27  28
ATOM     28  C   UNL     1       2.334   2.192  17.608  0.00  0.00    +0.000 C 
BRANCH  28  29
ATOM     29  C   UNL     1       1.534   2.167  18.901  0.00  0.00    +0.000 C 
BRANCH  29  30
ATOM     30  O   UNL     1       2.464   2.037  19.970  0.00  0.00    +0.000 OA
BRANCH  30  31
ATOM     31  N   UNL     1       1.976   2.575  21.180  0.00  0.00    +0.000 N 
ATOM     32  O   UNL     1       0.840   3.060  21.164  0.00  0.00    +0.000 OA
ATOM     33  O   UNL     1       2.778   2.483  22.103  0.00  0.00    +0.000 OA
ENDBRANCH  30  31
ENDBRANCH  29  30
ENDBRANCH  28  29
ENDBRANCH  27  28
ENDBRANCH  26  27
ENDBRANCH  25  26
ENDBRANCH  22  25
ENDBRANCH  10  19
TORSDOF 9
ENDMDL
MODEL 2
REMARK VINA RESULT:      -8.2      0.803      1.313
REMARK  Name = 
REMARK  10 active torsions:
REMARK  status: ('A' for Active; 'I' for Inactive)
REMARK    1  A    between atoms: C_1  and  C_2
REMARK    2  A    between atoms: N_4  and  C_5
REMARK    3  A    between atoms: N_16  and  C_17
REMARK    4  A    between atoms: C_20  and  O_21
REMARK    5  A    between atoms: O_21  and  C_22
REMARK    6  A    between atoms: C_22  and  C_23
REMARK    7  A    between atoms: C_23  and  C_24
REMARK    8  A    between atoms: C_24  and  C_25
REMARK    9  A    between atoms: C_25  and  O_26
REMARK   10  A    between atoms: O_26  and  N_27
REMARK                            x       y       z     vdW  Elec       q    Type
REMARK                         _______ _______ _______ _____ _____    ______ ____
ROOT
ATOM      1  C   UNL     1      -1.102  11.526  18.360  0.00  0.00    +0.000 C 
ATOM      2  C   UNL     1      -1.042  11.486  19.843  0.00  0.00    +0.000 A 
ATOM      3  N   UNL     1      -1.858  12.262  20.563  0.00  0.00    +0.000 NA
ATOM      4  N   UNL     1      -1.548  11.991  21.868  0.00  0.00    +0.000 N 
ATOM      5  C   UNL     1      -0.565  11.013  21.959  0.00  0.00    +0.000 A 
ATOM      6  N   UNL     1      -0.057  10.461  23.079  0.00  0.00    +0.000 NA
ATOM      7  C   UNL     1       0.878   9.554  22.825  0.00  0.00    +0.000 A 
ATOM      8  N   UNL     1       1.319   9.173  21.624  0.00  0.00    +0.000 NA
ATOM      9  C   UNL     1       0.787   9.709  20.492  0.00  0.00    +0.000 A 
ATOM     10  N   UNL     1       1.250   9.286  19.237  0.00  0.00    +0.000 N 
ATOM     11  C   UNL     1      -0.207  10.686  20.659  0.00  0.00    +0.000 A 
ATOM     12  H   UNL     1       0.991   9.855  18.448  0.00  0.00    +0.000 HD
ENDROOT
BRANCH   4  13
ATOM     13  C   UNL     1      -2.210  12.686  22.926  0.00  0.00    +0.000 A 
ATOM     14  C   UNL     1      -1.634  13.853  23.447  0.00  0.00    +0.000 A 
ATOM     15  C   UNL     1      -2.273  14.552  24.474  0.00  0.00    +0.000 A 
ATOM     16  C   UNL     1      -3.483  14.091  24.995  0.00  0.00    +0.000 A 
ATOM     17  C   UNL     1      -4.056  12.933  24.490  0.00  0.00    +0.000 A 
ATOM     18  C   UNL     1      -3.424  12.230  23.460  0.00  0.00    +0.000 A 
ENDBRANCH   4  13
BRANCH  10  19
ATOM     19  C   UNL     1       2.015   8.148  18.936  0.00  0.00    +0.000 A 
ATOM     20  C   UNL     1       2.078   7.062  19.810  0.00  0.00    +0.000 A 
ATOM     21  C   UNL     1       2.920   5.986  19.579  0.00  0.00    +0.000 A 
ATOM     22  C   UNL     1       3.717   5.947  18.440  0.00  0.00    +0.000 A 
ATOM     23  C   UNL     1       3.659   7.012  17.539  0.00  0.00    +0.000 A 
ATOM     24  C   UNL     1       2.818   8.110  17.787  0.00  0.00    +0.000 A 
BRANCH  22  25
ATOM     25  O   UNL     1       4.568   4.915  18.137  0.00  0.00    +0.000 OA
BRANCH  25  26
ATOM     26  C   UNL     1       3.985   3.903  17.310  0.00  0.00    +0.000 C 
BRANCH  26  27
ATOM     27  C   UNL     1       3.747   2.632  18.103  0.00  0.00    +0.000 C 
BRANCH  27  28
ATOM     28  C   UNL     1       4.512   2.653  19.418  0.00  0.00    +0.000 C 
BRANCH  28  29
ATOM     29  C   UNL     1       3.585   2.371  20.589  0.00  0.00    +0.000 C 
BRANCH  29  30
ATOM     30  O   UNL     1       2.260   2.314  20.075  0.00  0.00    +0.000 OA
BRANCH  30  31
ATOM     31  N   UNL     1       1.319   2.923  20.933  0.00  0.00    +0.000 N 
ATOM     32  O   UNL     1       1.372   2.626  22.130  0.00  0.00    +0.000 OA
ATOM     33  O   UNL     1       0.556   3.683  20.345  0.00  0.00    +0.000 OA
ENDBRANCH  30  31
ENDBRANCH  29  30
ENDBRANCH  28  29
ENDBRANCH  27  28
ENDBRANCH  26  27
ENDBRANCH  25  26
ENDBRANCH  22  25
ENDBRANCH  10  19
TORSDOF 9
ENDMDL
MODEL 3
REMARK VINA RESULT:      -8.0      1.865      3.322
REMARK  Name = 
REMARK  10 active torsions:
REMARK  status: ('A' for Active; 'I' for Inactive)
REMARK    1  A    between atoms: C_1  and  C_2
REMARK    2  A    between atoms: N_4  and  C_5
REMARK    3  A    between atoms: N_16  and  C_17
REMARK    4  A    between atoms: C_20  and  O_21
REMARK    5  A    between atoms: O_21  and  C_22
REMARK    6  A    between atoms: C_22  and  C_23
REMARK    7  A    between atoms: C_23  and  C_24
REMARK    8  A    between atoms: C_24  and  C_25
REMARK    9  A    between atoms: C_25  and  O_26
REMARK   10  A    between atoms: O_26  and  N_27
REMARK                            x       y       z     vdW  Elec       q    Type
REMARK                         _______ _______ _______ _____ _____    ______ ____
ROOT
ATOM      1  C   UNL     1      -0.932  10.928  18.345  0.00  0.00    +0.000 C 
ATOM      2  C   UNL     1      -0.864  11.029  19.825  0.00  0.00    +0.000 A 
ATOM      3  N   UNL     1      -1.686  11.862  20.473  0.00  0.00    +0.000 NA
ATOM      4  N   UNL     1      -1.367  11.720  21.795  0.00  0.00    +0.000 N 
ATOM      5  C   UNL     1      -0.372  10.765  21.973  0.00  0.00    +0.000 A 
ATOM      6  N   UNL     1       0.148  10.328  23.138  0.00  0.00    +0.000 NA
ATOM      7  C   UNL     1       1.092   9.411  22.965  0.00  0.00    +0.000 A 
ATOM      8  N   UNL     1       1.532   8.922  21.803  0.00  0.00    +0.000 NA
ATOM      9  C   UNL     1       0.987   9.342  20.629  0.00  0.00    +0.000 A 
ATOM     10  N   UNL     1       1.450   8.807  19.418  0.00  0.00    +0.000 N 
ATOM     11  C   UNL     1      -0.017  10.320  20.708  0.00  0.00    +0.000 A 
ATOM     12  H   UNL     1       1.180   9.296  18.579  0.00  0.00    +0.000 HD
ENDROOT
BRANCH   4  13
ATOM     13  C   UNL     1      -2.031  12.504  22.787  0.00  0.00    +0.000 A 
ATOM     14  C   UNL     1      -3.289  12.099  23.254  0.00  0.00    +0.000 A 
ATOM     15  C   UNL     1      -3.948  12.847  24.233  0.00  0.00    +0.000 A 
ATOM     16  C   UNL     1      -3.365  14.007  24.746  0.00  0.00    +0.000 A 
ATOM     17  C   UNL     1      -2.124  14.419  24.284  0.00  0.00    +0.000 A 
ATOM     18  C   UNL     1      -1.457  13.673  23.307  0.00  0.00    +0.000 A 
ENDBRANCH   4  13
BRANCH  10  19
ATOM     19  C   UNL     1       2.226   7.654  19.221  0.00  0.00    +0.000 A 
ATOM     20  C   UNL     1       3.129   7.559  18.161  0.00  0.00    +0.000 A 
ATOM     21  C   UNL     1       3.814   6.385  17.888  0.00  0.00    +0.000 A 
ATOM     22  C   UNL     1       3.636   5.263  18.690  0.00  0.00    +0.000 A 
ATOM     23  C   UNL     1       2.753   5.338  19.769  0.00  0.00    +0.000 A 
ATOM     24  C   UNL     1       2.046   6.524  20.030  0.00  0.00    +0.000 A 
BRANCH  22  25
ATOM     25  O   UNL     1       4.283   4.070  18.491  0.00  0.00    +0.000 OA
BRANCH  25  26
ATOM     26  C   UNL     1       4.109   3.526  17.178  0.00  0.00    +0.000 C 
BRANCH  26  27
ATOM     27  C   UNL     1       4.778   4.407  16.139  0.00  0.00    +0.000 C 
BRANCH  27  28
ATOM     28  C   UNL     1       6.191   3.927  15.841  0.00  0.00    +0.000 C 
BRANCH  28  29
ATOM     29  C   UNL     1       7.193   4.573  16.784  0.00  0.00    +0.000 C 
BRANCH  29  30
ATOM     30  O   UNL     1       7.400   5.906  16.334  0.00  0.00    +0.000 OA
BRANCH  30  31
ATOM     31  N   UNL     1       7.547   6.821  17.399  0.00  0.00    +0.000 N 
ATOM     32  O   UNL     1       7.748   6.351  18.523  0.00  0.00    +0.000 OA
ATOM     33  O   UNL     1       7.447   7.991  17.042  0.00  0.00    +0.000 OA
ENDBRANCH  30  31
ENDBRANCH  29  30
ENDBRANCH  28  29
ENDBRANCH  27  28
ENDBRANCH  26  27
ENDBRANCH  25  26
ENDBRANCH  22  25
ENDBRANCH  10  19
TORSDOF 9
ENDMDL
MODEL 4
REMARK VINA RESULT:      -7.8      2.204      3.626
REMARK  Name = 
REMARK  10 active torsions:
REMARK  status: ('A' for Active; 'I' for Inactive)
REMARK    1  A    between atoms: C_1  and  C_2
REMARK    2  A    between atoms: N_4  and  C_5
REMARK    3  A    between atoms: N_16  and  C_17
REMARK    4  A    between atoms: C_20  and  O_21
REMARK    5  A    between atoms: O_21  and  C_22
REMARK    6  A    between atoms: C_22  and  C_23
REMARK    7  A    between atoms: C_23  and  C_24
REMARK    8  A    between atoms: C_24  and  C_25
REMARK    9  A    between atoms: C_25  and  O_26
REMARK   10  A    between atoms: O_26  and  N_27
REMARK                            x       y       z     vdW  Elec       q    Type
REMARK                         _______ _______ _______ _____ _____    ______ ____
ROOT
ATOM      1  C   UNL     1       0.333  12.386  18.927  0.00  0.00    +0.000 C 
ATOM      2  C   UNL     1      -0.090  12.158  20.332  0.00  0.00    +0.000 A 
ATOM      3  N   UNL     1      -0.813  13.087  20.967  0.00  0.00    +0.000 NA
ATOM      4  N   UNL     1      -1.027  12.577  22.218  0.00  0.00    +0.000 N 
ATOM      5  C   UNL     1      -0.471  11.309  22.347  0.00  0.00    +0.000 A 
ATOM      6  N   UNL     1      -0.534  10.489  23.415  0.00  0.00    +0.000 NA
ATOM      7  C   UNL     1       0.108   9.344  23.221  0.00  0.00    +0.000 A 
ATOM      8  N   UNL     1       0.765   8.970  22.121  0.00  0.00    +0.000 NA
ATOM      9  C   UNL     1       0.805   9.785  21.032  0.00  0.00    +0.000 A 
ATOM     10  N   UNL     1       1.486   9.371  19.878  0.00  0.00    +0.000 N 
ATOM     11  C   UNL     1       0.159  11.027  21.143  0.00  0.00    +0.000 A 
ATOM     12  H   UNL     1       1.675  10.081  19.189  0.00  0.00    +0.000 HD
ENDROOT
BRANCH   4  13
ATOM     13  C   UNL     1      -1.741  13.336  23.195  0.00  0.00    +0.000 A 
ATOM     14  C   UNL     1      -3.042  12.951  23.547  0.00  0.00    +0.000 A 
ATOM     15  C   UNL     1      -3.751  13.675  24.509  0.00  0.00    +0.000 A 
ATOM     16  C   UNL     1      -3.175  14.789  25.120  0.00  0.00    +0.000 A 
ATOM     17  C   UNL     1      -1.891  15.181  24.773  0.00  0.00    +0.000 A 
ATOM     18  C   UNL     1      -1.174  14.460  23.813  0.00  0.00    +0.000 A 
ENDBRANCH   4  13
BRANCH  10  19
ATOM     19  C   UNL     1       1.920   8.078  19.546  0.00  0.00    +0.000 A 
ATOM     20  C   UNL     1       2.277   7.744  18.239  0.00  0.00    +0.000 A 
ATOM     21  C   UNL     1       2.594   6.444  17.877  0.00  0.00    +0.000 A 
ATOM     22  C   UNL     1       2.590   5.429  18.826  0.00  0.00    +0.000 A 
ATOM     23  C   UNL     1       2.255   5.739  20.146  0.00  0.00    +0.000 A 
ATOM     24  C   UNL     1       1.916   7.054  20.504  0.00  0.00    +0.000 A 
BRANCH  22  25
ATOM     25  O   UNL     1       2.900   4.121  18.549  0.00  0.00    +0.000 OA
BRANCH  25  26
ATOM     26  C   UNL     1       4.122   3.674  19.144  0.00  0.00    +0.000 C 
BRANCH  26  27
ATOM     27  C   UNL     1       5.316   4.121  18.321  0.00  0.00    +0.000 C 
BRANCH  27  28
ATOM     28  C   UNL     1       6.117   5.190  19.049  0.00  0.00    +0.000 C 
BRANCH  28  29
ATOM     29  C   UNL     1       7.489   5.363  18.419  0.00  0.00    +0.000 C 
BRANCH  29  30
ATOM     30  O   UNL     1       7.948   6.666  18.757  0.00  0.00    +0.000 OA
BRANCH  30  31
ATOM     31  N   UNL     1       7.819   7.580  17.689  0.00  0.00    +0.000 N 
ATOM     32  O   UNL     1       7.410   7.134  16.612  0.00  0.00    +0.000 OA
ATOM     33  O   UNL     1       8.147   8.722  17.993  0.00  0.00    +0.000 OA
ENDBRANCH  30  31
ENDBRANCH  29  30
ENDBRANCH  28  29
ENDBRANCH  27  28
ENDBRANCH  26  27
ENDBRANCH  25  26
ENDBRANCH  22  25
ENDBRANCH  10  19
TORSDOF 9
ENDMDL
MODEL 5
REMARK VINA RESULT:      -7.8      2.597      3.699
REMARK  Name = 
REMARK  10 active torsions:
REMARK  status: ('A' for Active; 'I' for Inactive)
REMARK    1  A    between atoms: C_1  and  C_2
REMARK    2  A    between atoms: N_4  and  C_5
REMARK    3  A    between atoms: N_16  and  C_17
REMARK    4  A    between atoms: C_20  and  O_21
REMARK    5  A    between atoms: O_21  and  C_22
REMARK    6  A    between atoms: C_22  and  C_23
REMARK    7  A    between atoms: C_23  and  C_24
REMARK    8  A    between atoms: C_24  and  C_25
REMARK    9  A    between atoms: C_25  and  O_26
REMARK   10  A    between atoms: O_26  and  N_27
REMARK                            x       y       z     vdW  Elec       q    Type
REMARK                         _______ _______ _______ _____ _____    ______ ____
ROOT
ATOM      1  C   UNL     1       0.207   9.406  23.619  0.00  0.00    +0.000 C 
ATOM      2  C   UNL     1      -0.413  10.355  22.660  0.00  0.00    +0.000 A 
ATOM      3  N   UNL     1      -1.149  11.375  23.115  0.00  0.00    +0.000 NA
ATOM      4  N   UNL     1      -1.568  12.039  21.996  0.00  0.00    +0.000 N 
ATOM      5  C   UNL     1      -1.056  11.455  20.843  0.00  0.00    +0.000 A 
ATOM      6  N   UNL     1      -1.214  11.874  19.571  0.00  0.00    +0.000 NA
ATOM      7  C   UNL     1      -0.600  11.089  18.693  0.00  0.00    +0.000 A 
ATOM      8  N   UNL     1       0.114   9.993  18.961  0.00  0.00    +0.000 NA
ATOM      9  C   UNL     1       0.297   9.586  20.247  0.00  0.00    +0.000 A 
ATOM     10  N   UNL     1       1.062   8.441  20.512  0.00  0.00    +0.000 N 
ATOM     11  C   UNL     1      -0.322  10.350  21.249  0.00  0.00    +0.000 A 
ATOM     12  H   UNL     1       0.990   8.058  21.440  0.00  0.00    +0.000 HD
ENDROOT
BRANCH   4  13
ATOM     13  C   UNL     1      -2.424  13.177  22.109  0.00  0.00    +0.000 A 
ATOM     14  C   UNL     1      -3.779  12.989  22.416  0.00  0.00    +0.000 A 
ATOM     15  C   UNL     1      -4.629  14.090  22.543  0.00  0.00    +0.000 A 
ATOM     16  C   UNL     1      -4.140  15.384  22.358  0.00  0.00    +0.000 A 
ATOM     17  C   UNL     1      -2.802  15.579  22.047  0.00  0.00    +0.000 A 
ATOM     18  C   UNL     1      -1.945  14.482  21.922  0.00  0.00    +0.000 A 
ENDBRANCH   4  13
BRANCH  10  19
ATOM     19  C   UNL     1       1.942   7.769  19.649  0.00  0.00    +0.000 A 
ATOM     20  C   UNL     1       2.370   8.348  18.453  0.00  0.00    +0.000 A 
ATOM     21  C   UNL     1       3.144   7.650  17.539  0.00  0.00    +0.000 A 
ATOM     22  C   UNL     1       3.541   6.345  17.804  0.00  0.00    +0.000 A 
ATOM     23  C   UNL     1       3.143   5.748  19.002  0.00  0.00    +0.000 A 
ATOM     24  C   UNL     1       2.343   6.453  19.917  0.00  0.00    +0.000 A 
BRANCH  22  25
ATOM     25  O   UNL     1       4.312   5.593  16.956  0.00  0.00    +0.000 OA
BRANCH  25  26
ATOM     26  C   UNL     1       5.076   6.365  16.024  0.00  0.00    +0.000 C 
BRANCH  26  27
ATOM     27  C   UNL     1       6.128   5.505  15.347  0.00  0.00    +0.000 C 
BRANCH  27  28
ATOM     28  C   UNL     1       6.422   4.254  16.162  0.00  0.00    +0.000 C 
BRANCH  28  29
ATOM     29  C   UNL     1       7.592   4.484  17.105  0.00  0.00    +0.000 C 
BRANCH  29  30
ATOM     30  O   UNL     1       7.067   4.541  18.425  0.00  0.00    +0.000 OA
BRANCH  30  31
ATOM     31  N   UNL     1       7.610   5.603  19.180  0.00  0.00    +0.000 N 
ATOM     32  O   UNL     1       7.767   5.412  20.390  0.00  0.00    +0.000 OA
ATOM     33  O   UNL     1       7.853   6.596  18.502  0.00  0.00    +0.000 OA
ENDBRANCH  30  31
ENDBRANCH  29  30
ENDBRANCH  28  29
ENDBRANCH  27  28
ENDBRANCH  26  27
ENDBRANCH  25  26
ENDBRANCH  22  25
ENDBRANCH  10  19
TORSDOF 9
ENDMDL
MODEL 6
REMARK VINA RESULT:      -7.7      2.426      3.780
REMARK  Name = 
REMARK  10 active torsions:
REMARK  status: ('A' for Active; 'I' for Inactive)
REMARK    1  A    between atoms: C_1  and  C_2
REMARK    2  A    between atoms: N_4  and  C_5
REMARK    3  A    between atoms: N_16  and  C_17
REMARK    4  A    between atoms: C_20  and  O_21
REMARK    5  A    between atoms: O_21  and  C_22
REMARK    6  A    between atoms: C_22  and  C_23
REMARK    7  A    between atoms: C_23  and  C_24
REMARK    8  A    between atoms: C_24  and  C_25
REMARK    9  A    between atoms: C_25  and  O_26
REMARK   10  A    between atoms: O_26  and  N_27
REMARK                            x       y       z     vdW  Elec       q    Type
REMARK                         _______ _______ _______ _____ _____    ______ ____
ROOT
ATOM      1  C   UNL     1      -0.890  11.103  18.506  0.00  0.00    +0.000 C 
ATOM      2  C   UNL     1      -0.930  11.211  19.986  0.00  0.00    +0.000 A 
ATOM      3  N   UNL     1      -1.705  12.135  20.564  0.00  0.00    +0.000 NA
ATOM      4  N   UNL     1      -1.511  11.971  21.908  0.00  0.00    +0.000 N 
ATOM      5  C   UNL     1      -0.645  10.915  22.167  0.00  0.00    +0.000 A 
ATOM      6  N   UNL     1      -0.272  10.435  23.370  0.00  0.00    +0.000 NA
ATOM      7  C   UNL     1       0.576   9.418  23.276  0.00  0.00    +0.000 A 
ATOM      8  N   UNL     1       1.051   8.873  22.154  0.00  0.00    +0.000 NA
ATOM      9  C   UNL     1       0.653   9.338  20.938  0.00  0.00    +0.000 A 
ATOM     10  N   UNL     1       1.150   8.744  19.769  0.00  0.00    +0.000 N 
ATOM     11  C   UNL     1      -0.240  10.421  20.935  0.00  0.00    +0.000 A 
ATOM     12  H   UNL     1       1.004   9.251  18.912  0.00  0.00    +0.000 HD
ENDROOT
BRANCH   4  13
ATOM     13  C   UNL     1      -2.162  12.834  22.842  0.00  0.00    +0.000 A 
ATOM     14  C   UNL     1      -1.628  14.106  23.090  0.00  0.00    +0.000 A 
ATOM     15  C   UNL     1      -2.259  14.967  23.991  0.00  0.00    +0.000 A 
ATOM     16  C   UNL     1      -3.418  14.567  24.656  0.00  0.00    +0.000 A 
ATOM     17  C   UNL     1      -3.950  13.308  24.421  0.00  0.00    +0.000 A 
ATOM     18  C   UNL     1      -3.326  12.441  23.519  0.00  0.00    +0.000 A 
ENDBRANCH   4  13
BRANCH  10  19
ATOM     19  C   UNL     1       1.808   7.511  19.637  0.00  0.00    +0.000 A 
ATOM     20  C   UNL     1       1.627   6.488  20.569  0.00  0.00    +0.000 A 
ATOM     21  C   UNL     1       2.359   5.312  20.514  0.00  0.00    +0.000 A 
ATOM     22  C   UNL     1       3.288   5.107  19.499  0.00  0.00    +0.000 A 
ATOM     23  C   UNL     1       3.474   6.107  18.543  0.00  0.00    +0.000 A 
ATOM     24  C   UNL     1       2.744   7.306  18.614  0.00  0.00    +0.000 A 
BRANCH  22  25
ATOM     25  O   UNL     1       4.043   3.970  19.372  0.00  0.00    +0.000 OA
BRANCH  25  26
ATOM     26  C   UNL     1       5.042   4.046  18.350  0.00  0.00    +0.000 C 
BRANCH  26  27
ATOM     27  C   UNL     1       6.266   4.791  18.850  0.00  0.00    +0.000 C 
BRANCH  27  28
ATOM     28  C   UNL     1       7.117   5.290  17.692  0.00  0.00    +0.000 C 
BRANCH  28  29
ATOM     29  C   UNL     1       6.966   4.386  16.479  0.00  0.00    +0.000 C 
BRANCH  29  30
ATOM     30  O   UNL     1       7.891   4.838  15.498  0.00  0.00    +0.000 OA
BRANCH  30  31
ATOM     31  N   UNL     1       7.295   5.013  14.230  0.00  0.00    +0.000 N 
ATOM     32  O   UNL     1       6.155   4.564  14.077  0.00  0.00    +0.000 OA
ATOM     33  O   UNL     1       8.022   5.602  13.437  0.00  0.00    +0.000 OA
ENDBRANCH  30  31
ENDBRANCH  29  30
ENDBRANCH  28  29
ENDBRANCH  27  28
ENDBRANCH  26  27
ENDBRANCH  25  26
ENDBRANCH  22  25
ENDBRANCH  10  19
TORSDOF 9
ENDMDL
MODEL 7
REMARK VINA RESULT:      -7.6      1.604      2.017
REMARK  Name = 
REMARK  10 active torsions:
REMARK  status: ('A' for Active; 'I' for Inactive)
REMARK    1  A    between atoms: C_1  and  C_2
REMARK    2  A    between atoms: N_4  and  C_5
REMARK    3  A    between atoms: N_16  and  C_17
REMARK    4  A    between atoms: C_20  and  O_21
REMARK    5  A    between atoms: O_21  and  C_22
REMARK    6  A    between atoms: C_22  and  C_23
REMARK    7  A    between atoms: C_23  and  C_24
REMARK    8  A    between atoms: C_24  and  C_25
REMARK    9  A    between atoms: C_25  and  O_26
REMARK   10  A    between atoms: O_26  and  N_27
REMARK                            x       y       z     vdW  Elec       q    Type
REMARK                         _______ _______ _______ _____ _____    ______ ____
ROOT
ATOM      1  C   UNL     1      -1.985  10.047  16.904  0.00  0.00    +0.000 C 
ATOM      2  C   UNL     1      -1.824  10.771  18.190  0.00  0.00    +0.000 A 
ATOM      3  N   UNL     1      -2.780  11.609  18.606  0.00  0.00    +0.000 NA
ATOM      4  N   UNL     1      -2.326  12.104  19.797  0.00  0.00    +0.000 N 
ATOM      5  C   UNL     1      -1.104  11.539  20.144  0.00  0.00    +0.000 A 
ATOM      6  N   UNL     1      -0.392  11.749  21.270  0.00  0.00    +0.000 NA
ATOM      7  C   UNL     1       0.742  11.060  21.295  0.00  0.00    +0.000 A 
ATOM      8  N   UNL     1       1.197  10.232  20.352  0.00  0.00    +0.000 NA
ATOM      9  C   UNL     1       0.466   9.998  19.228  0.00  0.00    +0.000 A 
ATOM     10  N   UNL     1       0.952   9.112  18.255  0.00  0.00    +0.000 N 
ATOM     11  C   UNL     1      -0.750  10.689  19.107  0.00  0.00    +0.000 A 
ATOM     12  H   UNL     1       0.494   9.138  17.358  0.00  0.00    +0.000 HD
ENDROOT
BRANCH   4  13
ATOM     13  C   UNL     1      -3.089  13.077  20.513  0.00  0.00    +0.000 A 
ATOM     14  C   UNL     1      -4.378  12.748  20.956  0.00  0.00    +0.000 A 
ATOM     15  C   UNL     1      -5.134  13.683  21.667  0.00  0.00    +0.000 A 
ATOM     16  C   UNL     1      -4.618  14.951  21.936  0.00  0.00    +0.000 A 
ATOM     17  C   UNL     1      -3.346  15.287  21.495  0.00  0.00    +0.000 A 
ATOM     18  C   UNL     1      -2.582  14.356  20.785  0.00  0.00    +0.000 A 
ENDBRANCH   4  13
BRANCH  10  19
ATOM     19  C   UNL     1       1.985   8.171  18.379  0.00  0.00    +0.000 A 
ATOM     20  C   UNL     1       2.978   8.049  17.406  0.00  0.00    +0.000 A 
ATOM     21  C   UNL     1       3.934   7.047  17.460  0.00  0.00    +0.000 A 
ATOM     22  C   UNL     1       3.946   6.140  18.513  0.00  0.00    +0.000 A 
ATOM     23  C   UNL     1       2.975   6.251  19.510  0.00  0.00    +0.000 A 
ATOM     24  C   UNL     1       1.996   7.256  19.442  0.00  0.00    +0.000 A 
BRANCH  22  25
ATOM     25  O   UNL     1       4.863   5.128  18.641  0.00  0.00    +0.000 OA
BRANCH  25  26
ATOM     26  C   UNL     1       4.280   3.827  18.764  0.00  0.00    +0.000 C 
BRANCH  26  27
ATOM     27  C   UNL     1       3.323   3.556  17.618  0.00  0.00    +0.000 C 
BRANCH  27  28
ATOM     28  C   UNL     1       2.560   2.257  17.834  0.00  0.00    +0.000 C 
BRANCH  28  29
ATOM     29  C   UNL     1       1.367   2.476  18.751  0.00  0.00    +0.000 C 
BRANCH  29  30
ATOM     30  O   UNL     1       1.749   2.045  20.052  0.00  0.00    +0.000 OA
BRANCH  30  31
ATOM     31  N   UNL     1       1.258   2.891  21.069  0.00  0.00    +0.000 N 
ATOM     32  O   UNL     1       1.302   2.465  22.227  0.00  0.00    +0.000 OA
ATOM     33  O   UNL     1       0.842   3.963  20.641  0.00  0.00    +0.000 OA
ENDBRANCH  30  31
ENDBRANCH  29  30
ENDBRANCH  28  29
ENDBRANCH  27  28
ENDBRANCH  26  27
ENDBRANCH  25  26
ENDBRANCH  22  25
ENDBRANCH  10  19
TORSDOF 9
ENDMDL
MODEL 8
REMARK VINA RESULT:      -7.6      2.214      3.782
REMARK  Name = 
REMARK  10 active torsions:
REMARK  status: ('A' for Active; 'I' for Inactive)
REMARK    1  A    between atoms: C_1  and  C_2
REMARK    2  A    between atoms: N_4  and  C_5
REMARK    3  A    between atoms: N_16  and  C_17
REMARK    4  A    between atoms: C_20  and  O_21
REMARK    5  A    between atoms: O_21  and  C_22
REMARK    6  A    between atoms: C_22  and  C_23
REMARK    7  A    between atoms: C_23  and  C_24
REMARK    8  A    between atoms: C_24  and  C_25
REMARK    9  A    between atoms: C_25  and  O_26
REMARK   10  A    between atoms: O_26  and  N_27
REMARK                            x       y       z     vdW  Elec       q    Type
REMARK                         _______ _______ _______ _____ _____    ______ ____
ROOT
ATOM      1  C   UNL     1      -1.212  10.489  17.802  0.00  0.00    +0.000 C 
ATOM      2  C   UNL     1      -1.124  10.820  19.246  0.00  0.00    +0.000 A 
ATOM      3  N   UNL     1      -1.983  11.694  19.781  0.00  0.00    +0.000 NA
ATOM      4  N   UNL     1      -1.633  11.774  21.101  0.00  0.00    +0.000 N 
ATOM      5  C   UNL     1      -0.581  10.916  21.396  0.00  0.00    +0.000 A 
ATOM      6  N   UNL     1      -0.015  10.693  22.599  0.00  0.00    +0.000 NA
ATOM      7  C   UNL     1       0.980   9.815  22.544  0.00  0.00    +0.000 A 
ATOM      8  N   UNL     1       1.427   9.180  21.459  0.00  0.00    +0.000 NA
ATOM      9  C   UNL     1       0.839   9.383  20.248  0.00  0.00    +0.000 A 
ATOM     10  N   UNL     1       1.311   8.696  19.121  0.00  0.00    +0.000 N 
ATOM     11  C   UNL     1      -0.221  10.304  20.204  0.00  0.00    +0.000 A 
ATOM     12  H   UNL     1       0.998   9.034  18.226  0.00  0.00    +0.000 HD
ENDROOT
BRANCH   4  13
ATOM     13  C   UNL     1      -2.326  12.663  21.979  0.00  0.00    +0.000 A 
ATOM     14  C   UNL     1      -2.358  14.033  21.685  0.00  0.00    +0.000 A 
ATOM     15  C   UNL     1      -3.041  14.915  22.525  0.00  0.00    +0.000 A 
ATOM     16  C   UNL     1      -3.690  14.443  23.667  0.00  0.00    +0.000 A 
ATOM     17  C   UNL     1      -3.658  13.089  23.969  0.00  0.00    +0.000 A 
ATOM     18  C   UNL     1      -2.979  12.200  23.131  0.00  0.00    +0.000 A 
ENDBRANCH   4  13
BRANCH  10  19
ATOM     19  C   UNL     1       2.152   7.573  19.082  0.00  0.00    +0.000 A 
ATOM     20  C   UNL     1       3.014   7.347  18.007  0.00  0.00    +0.000 A 
ATOM     21  C   UNL     1       3.761   6.185  17.901  0.00  0.00    +0.000 A 
ATOM     22  C   UNL     1       3.691   5.210  18.890  0.00  0.00    +0.000 A 
ATOM     23  C   UNL     1       2.851   5.419  19.985  0.00  0.00    +0.000 A 
ATOM     24  C   UNL     1       2.080   6.590  20.078  0.00  0.00    +0.000 A 
BRANCH  22  25
ATOM     25  O   UNL     1       4.404   4.039  18.861  0.00  0.00    +0.000 OA
BRANCH  25  26
ATOM     26  C   UNL     1       5.773   4.200  18.474  0.00  0.00    +0.000 C 
BRANCH  26  27
ATOM     27  C   UNL     1       6.458   5.239  19.343  0.00  0.00    +0.000 C 
BRANCH  27  28
ATOM     28  C   UNL     1       7.679   5.820  18.645  0.00  0.00    +0.000 C 
BRANCH  28  29
ATOM     29  C   UNL     1       7.291   6.998  17.766  0.00  0.00    +0.000 C 
BRANCH  29  30
ATOM     30  O   UNL     1       7.845   6.764  16.477  0.00  0.00    +0.000 OA
BRANCH  30  31
ATOM     31  N   UNL     1       7.160   5.754  15.768  0.00  0.00    +0.000 N 
ATOM     32  O   UNL     1       7.766   4.698  15.565  0.00  0.00    +0.000 OA
ATOM     33  O   UNL     1       6.025   6.085  15.441  0.00  0.00    +0.000 OA
ENDBRANCH  30  31
ENDBRANCH  29  30
ENDBRANCH  28  29
ENDBRANCH  27  28
ENDBRANCH  26  27
ENDBRANCH  25  26
ENDBRANCH  22  25
ENDBRANCH  10  19
TORSDOF 9
ENDMDL
MODEL 9
REMARK VINA RESULT:      -7.5      2.290      3.453
REMARK  Name = 
REMARK  10 active torsions:
REMARK  status: ('A' for Active; 'I' for Inactive)
REMARK    1  A    between atoms: C_1  and  C_2
REMARK    2  A    between atoms: N_4  and  C_5
REMARK    3  A    between atoms: N_16  and  C_17
REMARK    4  A    between atoms: C_20  and  O_21
REMARK    5  A    between atoms: O_21  and  C_22
REMARK    6  A    between atoms: C_22  and  C_23
REMARK    7  A    between atoms: C_23  and  C_24
REMARK    8  A    between atoms: C_24  and  C_25
REMARK    9  A    between atoms: C_25  and  O_26
REMARK   10  A    between atoms: O_26  and  N_27
REMARK                            x       y       z     vdW  Elec       q    Type
REMARK                         _______ _______ _______ _____ _____    ______ ____
ROOT
ATOM      1  C   UNL     1       0.070  12.573  18.879  0.00  0.00    +0.000 C 
ATOM      2  C   UNL     1      -0.357  12.371  20.287  0.00  0.00    +0.000 A 
ATOM      3  N   UNL     1      -1.090  13.307  20.900  0.00  0.00    +0.000 NA
ATOM      4  N   UNL     1      -1.304  12.822  22.161  0.00  0.00    +0.000 N 
ATOM      5  C   UNL     1      -0.738  11.563  22.318  0.00  0.00    +0.000 A 
ATOM      6  N   UNL     1      -0.798  10.765  23.404  0.00  0.00    +0.000 NA
ATOM      7  C   UNL     1      -0.145   9.621  23.237  0.00  0.00    +0.000 A 
ATOM      8  N   UNL     1       0.520   9.230  22.147  0.00  0.00    +0.000 NA
ATOM      9  C   UNL     1       0.557  10.023  21.041  0.00  0.00    +0.000 A 
ATOM     10  N   UNL     1       1.246   9.590  19.898  0.00  0.00    +0.000 N 
ATOM     11  C   UNL     1      -0.101  11.260  21.124  0.00  0.00    +0.000 A 
ATOM     12  H   UNL     1       1.431  10.287  19.195  0.00  0.00    +0.000 HD
ENDROOT
BRANCH   4  13
ATOM     13  C   UNL     1      -2.028  13.595  23.118  0.00  0.00    +0.000 A 
ATOM     14  C   UNL     1      -3.427  13.509  23.154  0.00  0.00    +0.000 A 
ATOM     15  C   UNL     1      -4.152  14.249  24.092  0.00  0.00    +0.000 A 
ATOM     16  C   UNL     1      -3.492  15.085  24.993  0.00  0.00    +0.000 A 
ATOM     17  C   UNL     1      -2.108  15.182  24.960  0.00  0.00    +0.000 A 
ATOM     18  C   UNL     1      -1.376  14.442  24.027  0.00  0.00    +0.000 A 
ENDBRANCH   4  13
BRANCH  10  19
ATOM     19  C   UNL     1       1.693   8.294  19.596  0.00  0.00    +0.000 A 
ATOM     20  C   UNL     1       1.574   7.251  20.516  0.00  0.00    +0.000 A 
ATOM     21  C   UNL     1       2.115   5.998  20.275  0.00  0.00    +0.000 A 
ATOM     22  C   UNL     1       2.779   5.736  19.083  0.00  0.00    +0.000 A 
ATOM     23  C   UNL     1       2.896   6.756  18.137  0.00  0.00    +0.000 A 
ATOM     24  C   UNL     1       2.363   8.030  18.393  0.00  0.00    +0.000 A 
BRANCH  22  25
ATOM     25  O   UNL     1       3.334   4.522  18.767  0.00  0.00    +0.000 OA
BRANCH  25  26
ATOM     26  C   UNL     1       2.916   4.002  17.501  0.00  0.00    +0.000 C 
BRANCH  26  27
ATOM     27  C   UNL     1       4.092   3.895  16.549  0.00  0.00    +0.000 C 
BRANCH  27  28
ATOM     28  C   UNL     1       5.403   4.197  17.259  0.00  0.00    +0.000 C 
BRANCH  28  29
ATOM     29  C   UNL     1       6.105   5.385  16.619  0.00  0.00    +0.000 C 
BRANCH  29  30
ATOM     30  O   UNL     1       5.738   5.403  15.245  0.00  0.00    +0.000 OA
BRANCH  30  31
ATOM     31  N   UNL     1       6.710   4.805  14.416  0.00  0.00    +0.000 N 
ATOM     32  O   UNL     1       6.382   3.779  13.812  0.00  0.00    +0.000 OA
ATOM     33  O   UNL     1       7.779   5.408  14.418  0.00  0.00    +0.000 OA
ENDBRANCH  30  31
ENDBRANCH  29  30
ENDBRANCH  28  29
ENDBRANCH  27  28
ENDBRANCH  26  27
ENDBRANCH  25  26
ENDBRANCH  22  25
ENDBRANCH  10  19
TORSDOF 9
ENDMDL
