MODEL 1
REMARK VINA RESULT:      -7.4      0.000      0.000
REMARK  Name = 
REMARK  4 active torsions:
REMARK  status: ('A' for Active; 'I' for Inactive)
REMARK    1  A    between atoms: C_1  and  N_2
REMARK    2  A    between atoms: C_4  and  N_5
REMARK    3  A    between atoms: N_10  and  S_11
REMARK    4  A    between atoms: S_11  and  C_12
REMARK                            x       y       z     vdW  Elec       q    Type
REMARK                         _______ _______ _______ _____ _____    ______ ____
ROOT
ATOM      1  N   UNL     1       3.173   6.314  19.001  0.00  0.00    +0.000 N 
ATOM      2  C   UNL     1       4.087   6.174  17.894  0.00  0.00    +0.000 C 
ATOM      3  C   UNL     1       4.955   4.947  18.206  0.00  0.00    +0.000 C 
ATOM      4  C   UNL     1       6.412   5.341  18.522  0.00  0.00    +0.000 C 
ATOM      5  C   UNL     1       7.286   4.597  17.522  0.00  0.00    +0.000 C 
ATOM      6  N   UNL     1       6.391   4.218  16.412  0.00  0.00    +0.000 NA
ATOM      7  C   UNL     1       5.053   4.000  17.001  0.00  0.00    +0.000 C 
ATOM      8  C   UNL     1       4.256   4.265  19.393  0.00  0.00    +0.000 C 
ATOM      9  C   UNL     1       3.138   5.182  19.808  0.00  0.00    +0.000 C 
ATOM     10  O   UNL     1       2.383   4.912  20.732  0.00  0.00    +0.000 OA
ENDROOT
BRANCH   1  14
ATOM     11  C   UNL     1       0.491  10.393  18.438  0.00  0.00    +0.000 C 
ATOM     12  N   UNL     1       1.196   9.267  18.999  0.00  0.00    +0.000 N 
ATOM     13  C   UNL     1       2.003   8.398  18.329  0.00  0.00    +0.000 A 
ATOM     14  C   UNL     1       2.398   7.444  19.238  0.00  0.00    +0.000 A 
ATOM     15  C   UNL     1       1.796   7.867  20.449  0.00  0.00    +0.000 A 
ATOM     16  N   UNL     1       1.062   8.975  20.306  0.00  0.00    +0.000 NA
ENDBRANCH   1  14
BRANCH   6  17
ATOM     17  S   UNL     1       6.458   5.134  14.991  0.00  0.00    +0.000 S 
ATOM     18  C   UNL     1       5.980   3.926  13.770  0.00  0.00    +0.000 C 
ATOM     19  O   UNL     1       5.408   6.129  15.063  0.00  0.00    +0.000 OA
ATOM     20  O   UNL     1       7.837   5.517  14.788  0.00  0.00    +0.000 OA
ENDBRANCH   6  17
TORSDOF 2
ENDMDL
MODEL 2
REMARK VINA RESULT:      -7.4      3.634      5.938
REMARK  Name = 
REMARK  4 active torsions:
REMARK  status: ('A' for Active; 'I' for Inactive)
REMARK    1  A    between atoms: C_1  and  N_2
REMARK    2  A    between atoms: C_4  and  N_5
REMARK    3  A    between atoms: N_10  and  S_11
REMARK    4  A    between atoms: S_11  and  C_12
REMARK                            x       y       z     vdW  Elec       q    Type
REMARK                         _______ _______ _______ _____ _____    ______ ____
ROOT
ATOM      1  N   UNL     1       5.829   5.140  17.721  0.00  0.00    +0.000 N 
ATOM      2  C   UNL     1       4.852   4.706  18.689  0.00  0.00    +0.000 C 
ATOM      3  C   UNL     1       3.846   3.835  17.924  0.00  0.00    +0.000 C 
ATOM      4  C   UNL     1       2.471   4.521  17.798  0.00  0.00    +0.000 C 
ATOM      5  C   UNL     1       1.458   3.576  18.429  0.00  0.00    +0.000 C 
ATOM      6  N   UNL     1       2.240   2.670  19.293  0.00  0.00    +0.000 NA
ATOM      7  C   UNL     1       3.565   2.516  18.656  0.00  0.00    +0.000 C 
ATOM      8  C   UNL     1       4.507   3.583  16.559  0.00  0.00    +0.000 C 
ATOM      9  C   UNL     1       5.755   4.421  16.532  0.00  0.00    +0.000 C 
ATOM     10  O   UNL     1       6.513   4.432  15.572  0.00  0.00    +0.000 OA
ENDROOT
BRANCH   1  14
ATOM     11  C   UNL     1       8.225   9.430  17.689  0.00  0.00    +0.000 C 
ATOM     12  N   UNL     1       7.837   8.064  17.939  0.00  0.00    +0.000 N 
ATOM     13  C   UNL     1       6.807   7.392  17.354  0.00  0.00    +0.000 A 
ATOM     14  C   UNL     1       6.757   6.151  17.944  0.00  0.00    +0.000 A 
ATOM     15  C   UNL     1       7.845   6.170  18.852  0.00  0.00    +0.000 A 
ATOM     16  N   UNL     1       8.502   7.333  18.852  0.00  0.00    +0.000 NA
ENDBRANCH   1  14
BRANCH   6  17
ATOM     17  S   UNL     1       2.224   2.956  20.960  0.00  0.00    +0.000 S 
ATOM     18  C   UNL     1       2.170   4.737  21.012  0.00  0.00    +0.000 C 
ATOM     19  O   UNL     1       0.964   2.461  21.475  0.00  0.00    +0.000 OA
ATOM     20  O   UNL     1       3.483   2.488  21.492  0.00  0.00    +0.000 OA
ENDBRANCH   6  17
TORSDOF 2
ENDMDL
MODEL 3
REMARK VINA RESULT:      -7.3      0.604      1.013
REMARK  Name = 
REMARK  4 active torsions:
REMARK  status: ('A' for Active; 'I' for Inactive)
REMARK    1  A    between atoms: C_1  and  N_2
REMARK    2  A    between atoms: C_4  and  N_5
REMARK    3  A    between atoms: N_10  and  S_11
REMARK    4  A    between atoms: S_11  and  C_12
REMARK                            x       y       z     vdW  Elec       q    Type
REMARK                         _______ _______ _______ _____ _____    ______ ____
ROOT
ATOM      1  N   UNL     1       2.999   6.513  18.809  0.00  0.00    +0.000 N 
ATOM      2  C   UNL     1       3.957   6.307  17.750  0.00  0.00    +0.000 C 
ATOM      3  C   UNL     1       4.786   5.080  18.152  0.00  0.00    +0.000 C 
ATOM      4  C   UNL     1       6.235   5.461  18.515  0.00  0.00    +0.000 C 
ATOM      5  C   UNL     1       7.137   4.658  17.587  0.00  0.00    +0.000 C 
ATOM      6  N   UNL     1       6.283   4.247  16.457  0.00  0.00    +0.000 NA
ATOM      7  C   UNL     1       4.917   4.079  16.996  0.00  0.00    +0.000 C 
ATOM      8  C   UNL     1       4.022   4.464  19.336  0.00  0.00    +0.000 C 
ATOM      9  C   UNL     1       2.906   5.418  19.662  0.00  0.00    +0.000 C 
ATOM     10  O   UNL     1       2.106   5.203  20.562  0.00  0.00    +0.000 OA
ENDROOT
BRANCH   1  14
ATOM     11  C   UNL     1       0.458  10.265  20.709  0.00  0.00    +0.000 C 
ATOM     12  N   UNL     1       1.100   9.349  19.800  0.00  0.00    +0.000 N 
ATOM     13  C   UNL     1       1.693   8.166  20.123  0.00  0.00    +0.000 A 
ATOM     14  C   UNL     1       2.237   7.666  18.962  0.00  0.00    +0.000 A 
ATOM     15  C   UNL     1       1.869   8.621  17.983  0.00  0.00    +0.000 A 
ATOM     16  N   UNL     1       1.179   9.647  18.490  0.00  0.00    +0.000 NA
ENDBRANCH   1  14
BRANCH   6  17
ATOM     17  S   UNL     1       6.430   5.098  15.002  0.00  0.00    +0.000 S 
ATOM     18  C   UNL     1       5.936   3.860  13.818  0.00  0.00    +0.000 C 
ATOM     19  O   UNL     1       5.422   6.137  15.001  0.00  0.00    +0.000 OA
ATOM     20  O   UNL     1       7.829   5.415  14.826  0.00  0.00    +0.000 OA
ENDBRANCH   6  17
TORSDOF 2
ENDMDL
MODEL 4
REMARK VINA RESULT:      -7.0      3.597      5.967
REMARK  Name = 
REMARK  4 active torsions:
REMARK  status: ('A' for Active; 'I' for Inactive)
REMARK    1  A    between atoms: C_1  and  N_2
REMARK    2  A    between atoms: C_4  and  N_5
REMARK    3  A    between atoms: N_10  and  S_11
REMARK    4  A    between atoms: S_11  and  C_12
REMARK                            x       y       z     vdW  Elec       q    Type
REMARK                         _______ _______ _______ _____ _____    ______ ____
ROOT
ATOM      1  N   UNL     1       5.718   5.140  17.685  0.00  0.00    +0.000 N 
ATOM      2  C   UNL     1       4.701   4.762  18.637  0.00  0.00    +0.000 C 
ATOM      3  C   UNL     1       3.677   3.923  17.861  0.00  0.00    +0.000 C 
ATOM      4  C   UNL     1       2.335   4.665  17.696  0.00  0.00    +0.000 C 
ATOM      5  C   UNL     1       1.270   3.772  18.317  0.00  0.00    +0.000 C 
ATOM      6  N   UNL     1       1.993   2.847  19.210  0.00  0.00    +0.000 NA
ATOM      7  C   UNL     1       3.324   2.628  18.605  0.00  0.00    +0.000 C 
ATOM      8  C   UNL     1       4.356   3.623  16.516  0.00  0.00    +0.000 C 
ATOM      9  C   UNL     1       5.639   4.408  16.505  0.00  0.00    +0.000 C 
ATOM     10  O   UNL     1       6.417   4.373  15.562  0.00  0.00    +0.000 OA
ENDROOT
BRANCH   1  14
ATOM     11  C   UNL     1       8.253   9.350  17.714  0.00  0.00    +0.000 C 
ATOM     12  N   UNL     1       7.824   7.991  17.937  0.00  0.00    +0.000 N 
ATOM     13  C   UNL     1       6.762   7.368  17.355  0.00  0.00    +0.000 A 
ATOM     14  C   UNL     1       6.683   6.114  17.916  0.00  0.00    +0.000 A 
ATOM     15  C   UNL     1       7.787   6.075  18.802  0.00  0.00    +0.000 A 
ATOM     16  N   UNL     1       8.482   7.216  18.819  0.00  0.00    +0.000 NA
ENDBRANCH   1  14
BRANCH   6  17
ATOM     17  S   UNL     1       1.952   3.158  20.872  0.00  0.00    +0.000 S 
ATOM     18  C   UNL     1       3.411   2.296  21.428  0.00  0.00    +0.000 C 
ATOM     19  O   UNL     1       2.180   4.576  21.057  0.00  0.00    +0.000 OA
ATOM     20  O   UNL     1       0.772   2.515  21.404  0.00  0.00    +0.000 OA
ENDBRANCH   6  17
TORSDOF 2
ENDMDL
MODEL 5
REMARK VINA RESULT:      -6.8      3.006      6.609
REMARK  Name = 
REMARK  4 active torsions:
REMARK  status: ('A' for Active; 'I' for Inactive)
REMARK    1  A    between atoms: C_1  and  N_2
REMARK    2  A    between atoms: C_4  and  N_5
REMARK    3  A    between atoms: N_10  and  S_11
REMARK    4  A    between atoms: S_11  and  C_12
REMARK                            x       y       z     vdW  Elec       q    Type
REMARK                         _______ _______ _______ _____ _____    ______ ____
ROOT
ATOM      1  N   UNL     1       5.902   5.006  15.936  0.00  0.00    +0.000 N 
ATOM      2  C   UNL     1       4.718   4.484  16.573  0.00  0.00    +0.000 C 
ATOM      3  C   UNL     1       4.798   4.909  18.045  0.00  0.00    +0.000 C 
ATOM      4  C   UNL     1       5.049   3.706  18.977  0.00  0.00    +0.000 C 
ATOM      5  C   UNL     1       3.895   3.683  19.970  0.00  0.00    +0.000 C 
ATOM      6  N   UNL     1       2.819   4.481  19.352  0.00  0.00    +0.000 NA
ATOM      7  C   UNL     1       3.477   5.520  18.533  0.00  0.00    +0.000 C 
ATOM      8  C   UNL     1       5.938   5.940  18.092  0.00  0.00    +0.000 C 
ATOM      9  C   UNL     1       6.555   5.951  16.720  0.00  0.00    +0.000 C 
ATOM     10  O   UNL     1       7.491   6.683  16.433  0.00  0.00    +0.000 OA
ENDROOT
BRANCH   1  14
ATOM     11  C   UNL     1       6.337   2.831  11.551  0.00  0.00    +0.000 C 
ATOM     12  N   UNL     1       6.548   3.663  12.710  0.00  0.00    +0.000 N 
ATOM     13  C   UNL     1       5.863   3.606  13.886  0.00  0.00    +0.000 A 
ATOM     14  C   UNL     1       6.344   4.627  14.673  0.00  0.00    +0.000 A 
ATOM     15  C   UNL     1       7.358   5.213  13.876  0.00  0.00    +0.000 A 
ATOM     16  N   UNL     1       7.482   4.630  12.680  0.00  0.00    +0.000 NA
ENDBRANCH   1  14
BRANCH   6  17
ATOM     17  S   UNL     1       1.529   3.651  18.638  0.00  0.00    +0.000 S 
ATOM     18  C   UNL     1       2.281   2.076  18.274  0.00  0.00    +0.000 C 
ATOM     19  O   UNL     1       0.528   3.436  19.663  0.00  0.00    +0.000 OA
ATOM     20  O   UNL     1       1.202   4.334  17.408  0.00  0.00    +0.000 OA
ENDBRANCH   6  17
TORSDOF 2
ENDMDL
MODEL 6
REMARK VINA RESULT:      -6.8      3.580      5.979
REMARK  Name = 
REMARK  4 active torsions:
REMARK  status: ('A' for Active; 'I' for Inactive)
REMARK    1  A    between atoms: C_1  and  N_2
REMARK    2  A    between atoms: C_4  and  N_5
REMARK    3  A    between atoms: N_10  and  S_11
REMARK    4  A    between atoms: S_11  and  C_12
REMARK                            x       y       z     vdW  Elec       q    Type
REMARK                         _______ _______ _______ _____ _____    ______ ____
ROOT
ATOM      1  N   UNL     1       5.812   5.300  17.737  0.00  0.00    +0.000 N 
ATOM      2  C   UNL     1       4.907   4.842  18.763  0.00  0.00    +0.000 C 
ATOM      3  C   UNL     1       3.844   3.993  18.052  0.00  0.00    +0.000 C 
ATOM      4  C   UNL     1       2.467   4.685  18.047  0.00  0.00    +0.000 C 
ATOM      5  C   UNL     1       1.500   3.725  18.727  0.00  0.00    +0.000 C 
ATOM      6  N   UNL     1       2.340   2.796  19.506  0.00  0.00    +0.000 NA
ATOM      7  C   UNL     1       3.614   2.656  18.769  0.00  0.00    +0.000 C 
ATOM      8  C   UNL     1       4.402   3.776  16.636  0.00  0.00    +0.000 C 
ATOM      9  C   UNL     1       5.647   4.613  16.538  0.00  0.00    +0.000 C 
ATOM     10  O   UNL     1       6.332   4.647  15.525  0.00  0.00    +0.000 OA
ENDROOT
BRANCH   1  14
ATOM     11  C   UNL     1       8.249   9.564  17.576  0.00  0.00    +0.000 C 
ATOM     12  N   UNL     1       7.856   8.204  17.854  0.00  0.00    +0.000 N 
ATOM     13  C   UNL     1       6.799   7.538  17.312  0.00  0.00    +0.000 A 
ATOM     14  C   UNL     1       6.758   6.303  17.917  0.00  0.00    +0.000 A 
ATOM     15  C   UNL     1       7.878   6.319  18.784  0.00  0.00    +0.000 A 
ATOM     16  N   UNL     1       8.546   7.476  18.750  0.00  0.00    +0.000 NA
ENDBRANCH   1  14
BRANCH   6  17
ATOM     17  S   UNL     1       2.449   3.038  21.177  0.00  0.00    +0.000 S 
ATOM     18  C   UNL     1       0.912   2.328  21.736  0.00  0.00    +0.000 C 
ATOM     19  O   UNL     1       3.525   2.204  21.669  0.00  0.00    +0.000 OA
ATOM     20  O   UNL     1       2.442   4.464  21.410  0.00  0.00    +0.000 OA
ENDBRANCH   6  17
TORSDOF 2
ENDMDL
MODEL 7
REMARK VINA RESULT:      -6.8      1.291      1.968
REMARK  Name = 
REMARK  4 active torsions:
REMARK  status: ('A' for Active; 'I' for Inactive)
REMARK    1  A    between atoms: C_1  and  N_2
REMARK    2  A    between atoms: C_4  and  N_5
REMARK    3  A    between atoms: N_10  and  S_11
REMARK    4  A    between atoms: S_11  and  C_12
REMARK                            x       y       z     vdW  Elec       q    Type
REMARK                         _______ _______ _______ _____ _____    ______ ____
ROOT
ATOM      1  N   UNL     1       2.511   6.562  19.438  0.00  0.00    +0.000 N 
ATOM      2  C   UNL     1       3.642   6.553  18.542  0.00  0.00    +0.000 C 
ATOM      3  C   UNL     1       4.260   5.152  18.644  0.00  0.00    +0.000 C 
ATOM      4  C   UNL     1       5.633   5.180  19.345  0.00  0.00    +0.000 C 
ATOM      5  C   UNL     1       6.630   4.579  18.364  0.00  0.00    +0.000 C 
ATOM      6  N   UNL     1       5.991   4.670  17.038  0.00  0.00    +0.000 NA
ATOM      7  C   UNL     1       4.535   4.551  17.259  0.00  0.00    +0.000 C 
ATOM      8  C   UNL     1       3.220   4.321  19.414  0.00  0.00    +0.000 C 
ATOM      9  C   UNL     1       2.150   5.283  19.850  0.00  0.00    +0.000 C 
ATOM     10  O   UNL     1       1.168   4.922  20.484  0.00  0.00    +0.000 OA
ENDROOT
BRANCH   1  14
ATOM     11  C   UNL     1       0.278  10.024  22.116  0.00  0.00    +0.000 C 
ATOM     12  N   UNL     1       0.839   9.266  21.025  0.00  0.00    +0.000 N 
ATOM     13  C   UNL     1       1.347   8.004  21.090  0.00  0.00    +0.000 A 
ATOM     14  C   UNL     1       1.838   7.711  19.838  0.00  0.00    +0.000 A 
ATOM     15  C   UNL     1       1.530   8.866  19.079  0.00  0.00    +0.000 A 
ATOM     16  N   UNL     1       0.924   9.816  19.800  0.00  0.00    +0.000 NA
ENDBRANCH   1  14
BRANCH   6  17
ATOM     17  S   UNL     1       6.506   5.898  15.994  0.00  0.00    +0.000 S 
ATOM     18  C   UNL     1       7.315   7.009  17.129  0.00  0.00    +0.000 C 
ATOM     19  O   UNL     1       7.521   5.336  15.127  0.00  0.00    +0.000 OA
ATOM     20  O   UNL     1       5.325   6.527  15.449  0.00  0.00    +0.000 OA
ENDBRANCH   6  17
TORSDOF 2
ENDMDL
MODEL 8
REMARK VINA RESULT:      -6.8      1.274      1.645
REMARK  Name = 
REMARK  4 active torsions:
REMARK  status: ('A' for Active; 'I' for Inactive)
REMARK    1  A    between atoms: C_1  and  N_2
REMARK    2  A    between atoms: C_4  and  N_5
REMARK    3  A    between atoms: N_10  and  S_11
REMARK    4  A    between atoms: S_11  and  C_12
REMARK                            x       y       z     vdW  Elec       q    Type
REMARK                         _______ _______ _______ _____ _____    ______ ____
ROOT
ATOM      1  N   UNL     1       2.483   6.585  19.448  0.00  0.00    +0.000 N 
ATOM      2  C   UNL     1       3.617   6.574  18.555  0.00  0.00    +0.000 C 
ATOM      3  C   UNL     1       4.203   5.157  18.622  0.00  0.00    +0.000 C 
ATOM      4  C   UNL     1       5.574   5.136  19.326  0.00  0.00    +0.000 C 
ATOM      5  C   UNL     1       6.560   4.537  18.332  0.00  0.00    +0.000 C 
ATOM      6  N   UNL     1       5.927   4.677  17.007  0.00  0.00    +0.000 NA
ATOM      7  C   UNL     1       4.468   4.585  17.222  0.00  0.00    +0.000 C 
ATOM      8  C   UNL     1       3.142   4.330  19.368  0.00  0.00    +0.000 C 
ATOM      9  C   UNL     1       2.093   5.305  19.827  0.00  0.00    +0.000 C 
ATOM     10  O   UNL     1       1.101   4.950  20.449  0.00  0.00    +0.000 OA
ENDROOT
BRANCH   1  14
ATOM     11  C   UNL     1       0.156  10.911  19.582  0.00  0.00    +0.000 C 
ATOM     12  N   UNL     1       0.793   9.670  19.950  0.00  0.00    +0.000 N 
ATOM     13  C   UNL     1       1.464   8.825  19.119  0.00  0.00    +0.000 A 
ATOM     14  C   UNL     1       1.836   7.738  19.877  0.00  0.00    +0.000 A 
ATOM     15  C   UNL     1       1.368   8.061  21.175  0.00  0.00    +0.000 A 
ATOM     16  N   UNL     1       0.732   9.235  21.222  0.00  0.00    +0.000 NA
ENDBRANCH   1  14
BRANCH   6  17
ATOM     17  S   UNL     1       6.472   5.920  15.996  0.00  0.00    +0.000 S 
ATOM     18  C   UNL     1       7.336   6.964  17.156  0.00  0.00    +0.000 C 
ATOM     19  O   UNL     1       7.455   5.351  15.097  0.00  0.00    +0.000 OA
ATOM     20  O   UNL     1       5.308   6.609  15.490  0.00  0.00    +0.000 OA
ENDBRANCH   6  17
TORSDOF 2
ENDMDL
MODEL 9
REMARK VINA RESULT:      -6.6      3.453      6.434
REMARK  Name = 
REMARK  4 active torsions:
REMARK  status: ('A' for Active; 'I' for Inactive)
REMARK    1  A    between atoms: C_1  and  N_2
REMARK    2  A    between atoms: C_4  and  N_5
REMARK    3  A    between atoms: N_10  and  S_11
REMARK    4  A    between atoms: S_11  and  C_12
REMARK                            x       y       z     vdW  Elec       q    Type
REMARK                         _______ _______ _______ _____ _____    ______ ____
ROOT
ATOM      1  N   UNL     1       5.946   4.779  16.987  0.00  0.00    +0.000 N 
ATOM      2  C   UNL     1       4.705   4.199  17.439  0.00  0.00    +0.000 C 
ATOM      3  C   UNL     1       4.743   4.243  18.973  0.00  0.00    +0.000 C 
ATOM      4  C   UNL     1       4.880   2.834  19.584  0.00  0.00    +0.000 C 
ATOM      5  C   UNL     1       3.682   2.646  20.506  0.00  0.00    +0.000 C 
ATOM      6  N   UNL     1       2.684   3.643  20.073  0.00  0.00    +0.000 NA
ATOM      7  C   UNL     1       3.439   4.804  19.557  0.00  0.00    +0.000 C 
ATOM      8  C   UNL     1       5.937   5.151  19.308  0.00  0.00    +0.000 C 
ATOM      9  C   UNL     1       6.616   5.456  18.001  0.00  0.00    +0.000 C 
ATOM     10  O   UNL     1       7.606   6.171  17.932  0.00  0.00    +0.000 OA
ENDROOT
BRANCH   1  14
ATOM     11  C   UNL     1       6.552   3.579  12.261  0.00  0.00    +0.000 C 
ATOM     12  N   UNL     1       6.702   4.165  13.570  0.00  0.00    +0.000 N 
ATOM     13  C   UNL     1       6.010   3.830  14.694  0.00  0.00    +0.000 A 
ATOM     14  C   UNL     1       6.422   4.693  15.684  0.00  0.00    +0.000 A 
ATOM     15  C   UNL     1       7.407   5.487  15.046  0.00  0.00    +0.000 A 
ATOM     16  N   UNL     1       7.578   5.169  13.759  0.00  0.00    +0.000 NA
ENDBRANCH   1  14
BRANCH   6  17
ATOM     17  S   UNL     1       1.381   3.104  19.138  0.00  0.00    +0.000 S 
ATOM     18  C   UNL     1       1.305   4.365  17.880  0.00  0.00    +0.000 C 
ATOM     19  O   UNL     1       1.784   1.868  18.500  0.00  0.00    +0.000 OA
ATOM     20  O   UNL     1       0.199   3.166  19.965  0.00  0.00    +0.000 OA
ENDBRANCH   6  17
TORSDOF 2
ENDMDL
