MODEL 1
REMARK VINA RESULT:      -8.3      0.000      0.000
REMARK  Name = 
REMARK  7 active torsions:
REMARK  status: ('A' for Active; 'I' for Inactive)
REMARK    1  A    between atoms: O_1  and  C_2
REMARK    2  A    between atoms: C_2  and  C_3
REMARK    3  A    between atoms: C_2  and  C_9
REMARK    4  A    between atoms: C_12  and  C_13
REMARK    5  A    between atoms: C_19  and  C_20
REMARK    6  A    between atoms: C_20  and  C_21
REMARK    7  A    between atoms: C_22  and  C_23
REMARK                            x       y       z     vdW  Elec       q    Type
REMARK                         _______ _______ _______ _____ _____    ______ ____
ROOT
ATOM      1  C   UNL     1       5.202   4.763  14.862  0.00  0.00    +0.000 C 
ATOM      2  C   UNL     1       5.373   3.584  15.820  0.00  0.00    +0.000 C 
ATOM      3  O   UNL     1       4.317   3.561  16.781  0.00  0.00    +0.000 OA
ATOM      4  C   UNL     1       4.351   4.683  17.680  0.00  0.00    +0.000 C 
ATOM      5  C   UNL     1       4.165   5.999  16.884  0.00  0.00    +0.000 C 
ATOM      6  C   UNL     1       5.130   6.066  15.684  0.00  0.00    +0.000 C 
ENDROOT
BRANCH   4   7
ATOM      7  C   UNL     1       3.255   4.482  18.720  0.00  0.00    +0.000 A 
ATOM      8  C   UNL     1       3.400   4.989  20.023  0.00  0.00    +0.000 A 
ATOM      9  C   UNL     1       2.364   4.884  20.955  0.00  0.00    +0.000 A 
ATOM     10  C   UNL     1       1.176   4.247  20.608  0.00  0.00    +0.000 A 
ATOM     11  C   UNL     1       1.025   3.711  19.333  0.00  0.00    +0.000 A 
ATOM     12  C   UNL     1       2.053   3.832  18.395  0.00  0.00    +0.000 A 
ENDBRANCH   4   7
BRANCH   1  13
ATOM     13  C   UNL     1       6.340   4.865  13.815  0.00  0.00    +0.000 C 
BRANCH  13  14
ATOM     14  C   UNL     1       6.404   3.755  12.782  0.00  0.00    +0.000 A 
ATOM     15  C   UNL     1       7.622   3.369  12.195  0.00  0.00    +0.000 A 
ATOM     16  C   UNL     1       7.667   2.368  11.223  0.00  0.00    +0.000 A 
ATOM     17  C   UNL     1       6.494   1.732  10.822  0.00  0.00    +0.000 A 
ATOM     18  C   UNL     1       5.277   2.104  11.390  0.00  0.00    +0.000 A 
ATOM     19  C   UNL     1       5.232   3.107  12.365  0.00  0.00    +0.000 A 
ENDBRANCH  13  14
BRANCH  13  20
ATOM     20  O   UNL     1       7.600   4.975  14.486  0.00  0.00    +0.000 OA
ATOM     21  H   UNL     1       7.669   4.211  15.085  0.00  0.00    +0.000 HD
ENDBRANCH  13  20
ENDBRANCH   1  13
BRANCH   5  22
ATOM     22  C   UNL     1       4.286   7.293  17.736  0.00  0.00    +0.000 C 
BRANCH  22  23
ATOM     23  C   UNL     1       3.045   8.150  17.790  0.00  0.00    +0.000 C 
ATOM     24  C   UNL     1       2.188   8.208  18.820  0.00  0.00    +0.000 C 
BRANCH  24  25
ATOM     25  C   UNL     1       0.984   9.060  18.836  0.00  0.00    +0.000 A 
ATOM     26  C   UNL     1       0.601   9.694  20.028  0.00  0.00    +0.000 A 
ATOM     27  C   UNL     1      -0.540  10.504  20.081  0.00  0.00    +0.000 A 
ATOM     28  C   UNL     1      -1.317  10.684  18.940  0.00  0.00    +0.000 A 
ATOM     29  C   UNL     1      -0.954  10.043  17.763  0.00  0.00    +0.000 A 
ATOM     30  F   UNL     1      -1.705  10.206  16.666  0.00  0.00    +0.000 F 
ATOM     31  C   UNL     1       0.175   9.230  17.702  0.00  0.00    +0.000 A 
ENDBRANCH  24  25
ENDBRANCH  22  23
ENDBRANCH   5  22
TORSDOF 7
ENDMDL
MODEL 2
REMARK VINA RESULT:      -8.2      0.931      1.278
REMARK  Name = 
REMARK  7 active torsions:
REMARK  status: ('A' for Active; 'I' for Inactive)
REMARK    1  A    between atoms: O_1  and  C_2
REMARK    2  A    between atoms: C_2  and  C_3
REMARK    3  A    between atoms: C_2  and  C_9
REMARK    4  A    between atoms: C_12  and  C_13
REMARK    5  A    between atoms: C_19  and  C_20
REMARK    6  A    between atoms: C_20  and  C_21
REMARK    7  A    between atoms: C_22  and  C_23
REMARK                            x       y       z     vdW  Elec       q    Type
REMARK                         _______ _______ _______ _____ _____    ______ ____
ROOT
ATOM      1  C   UNL     1       5.249   4.636  14.928  0.00  0.00    +0.000 C 
ATOM      2  C   UNL     1       5.485   3.520  15.946  0.00  0.00    +0.000 C 
ATOM      3  O   UNL     1       4.416   3.471  16.892  0.00  0.00    +0.000 OA
ATOM      4  C   UNL     1       4.358   4.635  17.734  0.00  0.00    +0.000 C 
ATOM      5  C   UNL     1       4.094   5.895  16.871  0.00  0.00    +0.000 C 
ATOM      6  C   UNL     1       5.073   5.969  15.683  0.00  0.00    +0.000 C 
ENDROOT
BRANCH   4   7
ATOM      7  C   UNL     1       3.260   4.409  18.768  0.00  0.00    +0.000 A 
ATOM      8  C   UNL     1       3.425   4.838  20.096  0.00  0.00    +0.000 A 
ATOM      9  C   UNL     1       2.391   4.712  21.027  0.00  0.00    +0.000 A 
ATOM     10  C   UNL     1       1.182   4.131  20.652  0.00  0.00    +0.000 A 
ATOM     11  C   UNL     1       1.010   3.672  19.350  0.00  0.00    +0.000 A 
ATOM     12  C   UNL     1       2.038   3.814  18.414  0.00  0.00    +0.000 A 
ENDBRANCH   4   7
BRANCH   1  13
ATOM     13  C   UNL     1       6.395   4.766  13.893  0.00  0.00    +0.000 C 
BRANCH  13  14
ATOM     14  C   UNL     1       6.451   3.699  12.815  0.00  0.00    +0.000 A 
ATOM     15  C   UNL     1       7.656   3.374  12.167  0.00  0.00    +0.000 A 
ATOM     16  C   UNL     1       7.691   2.413  11.154  0.00  0.00    +0.000 A 
ATOM     17  C   UNL     1       6.522   1.758  10.774  0.00  0.00    +0.000 A 
ATOM     18  C   UNL     1       5.318   2.070  11.403  0.00  0.00    +0.000 A 
ATOM     19  C   UNL     1       5.282   3.032  12.418  0.00  0.00    +0.000 A 
ENDBRANCH  13  14
BRANCH  13  20
ATOM     20  O   UNL     1       7.652   4.830  14.575  0.00  0.00    +0.000 OA
ATOM     21  H   UNL     1       7.983   3.918  14.645  0.00  0.00    +0.000 HD
ENDBRANCH  13  20
ENDBRANCH   1  13
BRANCH   5  22
ATOM     22  C   UNL     1       4.111   7.233  17.660  0.00  0.00    +0.000 C 
BRANCH  22  23
ATOM     23  C   UNL     1       2.758   7.760  18.069  0.00  0.00    +0.000 C 
ATOM     24  C   UNL     1       2.377   9.044  18.011  0.00  0.00    +0.000 C 
BRANCH  24  25
ATOM     25  C   UNL     1       1.042   9.521  18.422  0.00  0.00    +0.000 A 
ATOM     26  C   UNL     1       0.020   9.620  17.465  0.00  0.00    +0.000 A 
ATOM     27  C   UNL     1      -1.256  10.075  17.818  0.00  0.00    +0.000 A 
ATOM     28  C   UNL     1      -1.524  10.443  19.134  0.00  0.00    +0.000 A 
ATOM     29  C   UNL     1      -0.510  10.366  20.079  0.00  0.00    +0.000 A 
ATOM     30  F   UNL     1      -0.762  10.728  21.344  0.00  0.00    +0.000 F 
ATOM     31  C   UNL     1       0.764   9.921  19.737  0.00  0.00    +0.000 A 
ENDBRANCH  24  25
ENDBRANCH  22  23
ENDBRANCH   5  22
TORSDOF 7
ENDMDL
MODEL 3
REMARK VINA RESULT:      -8.2      0.963      1.367
REMARK  Name = 
REMARK  7 active torsions:
REMARK  status: ('A' for Active; 'I' for Inactive)
REMARK    1  A    between atoms: O_1  and  C_2
REMARK    2  A    between atoms: C_2  and  C_3
REMARK    3  A    between atoms: C_2  and  C_9
REMARK    4  A    between atoms: C_12  and  C_13
REMARK    5  A    between atoms: C_19  and  C_20
REMARK    6  A    between atoms: C_20  and  C_21
REMARK    7  A    between atoms: C_22  and  C_23
REMARK                            x       y       z     vdW  Elec       q    Type
REMARK                         _______ _______ _______ _____ _____    ______ ____
ROOT
ATOM      1  C   UNL     1       4.928   4.839  15.690  0.00  0.00    +0.000 C 
ATOM      2  C   UNL     1       5.280   3.575  16.475  0.00  0.00    +0.000 C 
ATOM      3  O   UNL     1       4.236   3.248  17.393  0.00  0.00    +0.000 OA
ATOM      4  C   UNL     1       4.087   4.218  18.443  0.00  0.00    +0.000 C 
ATOM      5  C   UNL     1       3.697   5.590  17.839  0.00  0.00    +0.000 C 
ATOM      6  C   UNL     1       4.645   5.981  16.688  0.00  0.00    +0.000 C 
ENDROOT
BRANCH   4   7
ATOM      7  C   UNL     1       3.031   3.698  19.413  0.00  0.00    +0.000 A 
ATOM      8  C   UNL     1       3.404   3.135  20.646  0.00  0.00    +0.000 A 
ATOM      9  C   UNL     1       2.440   2.736  21.575  0.00  0.00    +0.000 A 
ATOM     10  C   UNL     1       1.087   2.870  21.277  0.00  0.00    +0.000 A 
ATOM     11  C   UNL     1       0.697   3.396  20.050  0.00  0.00    +0.000 A 
ATOM     12  C   UNL     1       1.661   3.813  19.128  0.00  0.00    +0.000 A 
ENDBRANCH   4   7
BRANCH   1  13
ATOM     13  C   UNL     1       6.040   5.269  14.701  0.00  0.00    +0.000 C 
BRANCH  13  14
ATOM     14  C   UNL     1       6.213   4.403  13.467  0.00  0.00    +0.000 A 
ATOM     15  C   UNL     1       5.154   3.631  12.958  0.00  0.00    +0.000 A 
ATOM     16  C   UNL     1       5.333   2.813  11.841  0.00  0.00    +0.000 A 
ATOM     17  C   UNL     1       6.573   2.755  11.210  0.00  0.00    +0.000 A 
ATOM     18  C   UNL     1       7.636   3.511  11.703  0.00  0.00    +0.000 A 
ATOM     19  C   UNL     1       7.457   4.331  12.822  0.00  0.00    +0.000 A 
ENDBRANCH  13  14
BRANCH  13  20
ATOM     20  O   UNL     1       7.287   5.374  15.397  0.00  0.00    +0.000 OA
ATOM     21  H   UNL     1       7.692   4.489  15.386  0.00  0.00    +0.000 HD
ENDBRANCH  13  20
ENDBRANCH   1  13
BRANCH   5  22
ATOM     22  C   UNL     1       3.606   6.749  18.870  0.00  0.00    +0.000 C 
BRANCH  22  23
ATOM     23  C   UNL     1       2.291   7.489  18.897  0.00  0.00    +0.000 C 
ATOM     24  C   UNL     1       2.135   8.798  18.651  0.00  0.00    +0.000 C 
BRANCH  24  25
ATOM     25  C   UNL     1       0.831   9.487  18.687  0.00  0.00    +0.000 A 
ATOM     26  C   UNL     1       0.437  10.159  19.855  0.00  0.00    +0.000 A 
ATOM     27  C   UNL     1      -0.797  10.817  19.927  0.00  0.00    +0.000 A 
ATOM     28  C   UNL     1      -1.656  10.806  18.831  0.00  0.00    +0.000 A 
ATOM     29  C   UNL     1      -1.279  10.126  17.681  0.00  0.00    +0.000 A 
ATOM     30  F   UNL     1      -2.107  10.104  16.628  0.00  0.00    +0.000 F 
ATOM     31  C   UNL     1      -0.057   9.463  17.602  0.00  0.00    +0.000 A 
ENDBRANCH  24  25
ENDBRANCH  22  23
ENDBRANCH   5  22
TORSDOF 7
ENDMDL
MODEL 4
REMARK VINA RESULT:      -8.2      1.182      1.725
REMARK  Name = 
REMARK  7 active torsions:
REMARK  status: ('A' for Active; 'I' for Inactive)
REMARK    1  A    between atoms: O_1  and  C_2
REMARK    2  A    between atoms: C_2  and  C_3
REMARK    3  A    between atoms: C_2  and  C_9
REMARK    4  A    between atoms: C_12  and  C_13
REMARK    5  A    between atoms: C_19  and  C_20
REMARK    6  A    between atoms: C_20  and  C_21
REMARK    7  A    between atoms: C_22  and  C_23
REMARK                            x       y       z     vdW  Elec       q    Type
REMARK                         _______ _______ _______ _____ _____    ______ ____
ROOT
ATOM      1  C   UNL     1       4.957   4.536  15.445  0.00  0.00    +0.000 C 
ATOM      2  C   UNL     1       5.276   3.298  16.283  0.00  0.00    +0.000 C 
ATOM      3  O   UNL     1       4.247   3.065  17.245  0.00  0.00    +0.000 OA
ATOM      4  C   UNL     1       4.173   4.092  18.249  0.00  0.00    +0.000 C 
ATOM      5  C   UNL     1       3.826   5.449  17.586  0.00  0.00    +0.000 C 
ATOM      6  C   UNL     1       4.755   5.738  16.390  0.00  0.00    +0.000 C 
ENDROOT
BRANCH   4   7
ATOM      7  C   UNL     1       3.125   3.670  19.273  0.00  0.00    +0.000 A 
ATOM      8  C   UNL     1       3.509   3.111  20.504  0.00  0.00    +0.000 A 
ATOM      9  C   UNL     1       2.560   2.802  21.481  0.00  0.00    +0.000 A 
ATOM     10  C   UNL     1       1.207   3.024  21.235  0.00  0.00    +0.000 A 
ATOM     11  C   UNL     1       0.805   3.548  20.010  0.00  0.00    +0.000 A 
ATOM     12  C   UNL     1       1.755   3.874  19.040  0.00  0.00    +0.000 A 
ENDBRANCH   4   7
BRANCH   1  13
ATOM     13  C   UNL     1       6.056   4.865  14.404  0.00  0.00    +0.000 C 
BRANCH  13  14
ATOM     14  C   UNL     1       6.112   3.970  13.180  0.00  0.00    +0.000 A 
ATOM     15  C   UNL     1       4.946   3.419  12.620  0.00  0.00    +0.000 A 
ATOM     16  C   UNL     1       5.011   2.571  11.513  0.00  0.00    +0.000 A 
ATOM     17  C   UNL     1       6.243   2.261  10.943  0.00  0.00    +0.000 A 
ATOM     18  C   UNL     1       7.411   2.794  11.487  0.00  0.00    +0.000 A 
ATOM     19  C   UNL     1       7.346   3.644  12.597  0.00  0.00    +0.000 A 
ENDBRANCH  13  14
BRANCH  13  20
ATOM     20  O   UNL     1       7.335   4.884  15.048  0.00  0.00    +0.000 OA
ATOM     21  H   UNL     1       7.178   5.104  15.983  0.00  0.00    +0.000 HD
ENDBRANCH  13  20
ENDBRANCH   1  13
BRANCH   5  22
ATOM     22  C   UNL     1       3.818   6.660  18.558  0.00  0.00    +0.000 C 
BRANCH  22  23
ATOM     23  C   UNL     1       2.496   7.377  18.688  0.00  0.00    +0.000 C 
ATOM     24  C   UNL     1       2.303   8.688  18.482  0.00  0.00    +0.000 C 
BRANCH  24  25
ATOM     25  C   UNL     1       0.993   9.353  18.619  0.00  0.00    +0.000 A 
ATOM     26  C   UNL     1       0.117   9.386  17.522  0.00  0.00    +0.000 A 
ATOM     27  C   UNL     1      -1.131  10.013  17.615  0.00  0.00    +0.000 A 
ATOM     28  C   UNL     1      -1.515  10.625  18.805  0.00  0.00    +0.000 A 
ATOM     29  C   UNL     1      -0.643  10.613  19.886  0.00  0.00    +0.000 A 
ATOM     30  F   UNL     1      -1.006  11.208  21.030  0.00  0.00    +0.000 F 
ATOM     31  C   UNL     1       0.602   9.996  19.802  0.00  0.00    +0.000 A 
ENDBRANCH  24  25
ENDBRANCH  22  23
ENDBRANCH   5  22
TORSDOF 7
ENDMDL
MODEL 5
REMARK VINA RESULT:      -8.1      1.051      1.536
REMARK  Name = 
REMARK  7 active torsions:
REMARK  status: ('A' for Active; 'I' for Inactive)
REMARK    1  A    between atoms: O_1  and  C_2
REMARK    2  A    between atoms: C_2  and  C_3
REMARK    3  A    between atoms: C_2  and  C_9
REMARK    4  A    between atoms: C_12  and  C_13
REMARK    5  A    between atoms: C_19  and  C_20
REMARK    6  A    between atoms: C_20  and  C_21
REMARK    7  A    between atoms: C_22  and  C_23
REMARK                            x       y       z     vdW  Elec       q    Type
REMARK                         _______ _______ _______ _____ _____    ______ ____
ROOT
ATOM      1  C   UNL     1       5.031   5.164  15.983  0.00  0.00    +0.000 C 
ATOM      2  C   UNL     1       5.356   3.889  16.760  0.00  0.00    +0.000 C 
ATOM      3  O   UNL     1       4.266   3.528  17.609  0.00  0.00    +0.000 OA
ATOM      4  C   UNL     1       4.043   4.473  18.670  0.00  0.00    +0.000 C 
ATOM      5  C   UNL     1       3.669   5.853  18.072  0.00  0.00    +0.000 C 
ATOM      6  C   UNL     1       4.676   6.281  16.986  0.00  0.00    +0.000 C 
ENDROOT
BRANCH   4   7
ATOM      7  C   UNL     1       2.941   3.918  19.566  0.00  0.00    +0.000 A 
ATOM      8  C   UNL     1       1.685   3.581  19.034  0.00  0.00    +0.000 A 
ATOM      9  C   UNL     1       0.701   2.993  19.832  0.00  0.00    +0.000 A 
ATOM     10  C   UNL     1       0.946   2.756  21.182  0.00  0.00    +0.000 A 
ATOM     11  C   UNL     1       2.173   3.111  21.735  0.00  0.00    +0.000 A 
ATOM     12  C   UNL     1       3.164   3.683  20.933  0.00  0.00    +0.000 A 
ENDBRANCH   4   7
BRANCH   1  13
ATOM     13  C   UNL     1       6.192   5.630  15.069  0.00  0.00    +0.000 C 
BRANCH  13  14
ATOM     14  C   UNL     1       6.427   4.813  13.812  0.00  0.00    +0.000 A 
ATOM     15  C   UNL     1       7.533   5.053  12.977  0.00  0.00    +0.000 A 
ATOM     16  C   UNL     1       7.723   4.316  11.806  0.00  0.00    +0.000 A 
ATOM     17  C   UNL     1       6.812   3.325  11.450  0.00  0.00    +0.000 A 
ATOM     18  C   UNL     1       5.707   3.076  12.264  0.00  0.00    +0.000 A 
ATOM     19  C   UNL     1       5.517   3.813  13.437  0.00  0.00    +0.000 A 
ENDBRANCH  13  14
BRANCH  13  20
ATOM     20  O   UNL     1       7.402   5.705  15.831  0.00  0.00    +0.000 OA
ATOM     21  H   UNL     1       7.867   4.858  15.707  0.00  0.00    +0.000 HD
ENDBRANCH  13  20
ENDBRANCH   1  13
BRANCH   5  22
ATOM     22  C   UNL     1       3.503   6.988  19.121  0.00  0.00    +0.000 C 
BRANCH  22  23
ATOM     23  C   UNL     1       2.173   7.701  19.096  0.00  0.00    +0.000 C 
ATOM     24  C   UNL     1       1.923   8.850  18.450  0.00  0.00    +0.000 C 
BRANCH  24  25
ATOM     25  C   UNL     1       0.608   9.518  18.450  0.00  0.00    +0.000 A 
ATOM     26  C   UNL     1       0.200  10.239  19.583  0.00  0.00    +0.000 A 
ATOM     27  C   UNL     1      -1.045  10.881  19.620  0.00  0.00    +0.000 A 
ATOM     28  C   UNL     1      -1.901  10.801  18.524  0.00  0.00    +0.000 A 
ATOM     29  C   UNL     1      -1.509  10.072  17.409  0.00  0.00    +0.000 A 
ATOM     30  F   UNL     1      -2.334   9.985  16.357  0.00  0.00    +0.000 F 
ATOM     31  C   UNL     1      -0.277   9.426  17.365  0.00  0.00    +0.000 A 
ENDBRANCH  24  25
ENDBRANCH  22  23
ENDBRANCH   5  22
TORSDOF 7
ENDMDL
MODEL 6
REMARK VINA RESULT:      -8.1      1.342      2.113
REMARK  Name = 
REMARK  7 active torsions:
REMARK  status: ('A' for Active; 'I' for Inactive)
REMARK    1  A    between atoms: O_1  and  C_2
REMARK    2  A    between atoms: C_2  and  C_3
REMARK    3  A    between atoms: C_2  and  C_9
REMARK    4  A    between atoms: C_12  and  C_13
REMARK    5  A    between atoms: C_19  and  C_20
REMARK    6  A    between atoms: C_20  and  C_21
REMARK    7  A    between atoms: C_22  and  C_23
REMARK                            x       y       z     vdW  Elec       q    Type
REMARK                         _______ _______ _______ _____ _____    ______ ____
ROOT
ATOM      1  C   UNL     1       4.957   5.194  16.051  0.00  0.00    +0.000 C 
ATOM      2  C   UNL     1       5.400   4.055  16.969  0.00  0.00    +0.000 C 
ATOM      3  O   UNL     1       4.331   3.659  17.829  0.00  0.00    +0.000 OA
ATOM      4  C   UNL     1       3.964   4.678  18.774  0.00  0.00    +0.000 C 
ATOM      5  C   UNL     1       3.453   5.933  18.022  0.00  0.00    +0.000 C 
ATOM      6  C   UNL     1       4.440   6.360  16.918  0.00  0.00    +0.000 C 
ENDROOT
BRANCH   4   7
ATOM      7  C   UNL     1       2.904   4.095  19.702  0.00  0.00    +0.000 A 
ATOM      8  C   UNL     1       1.553   4.058  19.315  0.00  0.00    +0.000 A 
ATOM      9  C   UNL     1       0.590   3.448  20.123  0.00  0.00    +0.000 A 
ATOM     10  C   UNL     1       0.957   2.887  21.343  0.00  0.00    +0.000 A 
ATOM     11  C   UNL     1       2.284   2.940  21.758  0.00  0.00    +0.000 A 
ATOM     12  C   UNL     1       3.250   3.534  20.942  0.00  0.00    +0.000 A 
ENDBRANCH   4   7
BRANCH   1  13
ATOM     13  C   UNL     1       6.086   5.695  15.115  0.00  0.00    +0.000 C 
BRANCH  13  14
ATOM     14  C   UNL     1       6.315   4.893  13.848  0.00  0.00    +0.000 A 
ATOM     15  C   UNL     1       5.433   3.869  13.459  0.00  0.00    +0.000 A 
ATOM     16  C   UNL     1       5.670   3.115  12.308  0.00  0.00    +0.000 A 
ATOM     17  C   UNL     1       6.791   3.374  11.523  0.00  0.00    +0.000 A 
ATOM     18  C   UNL     1       7.678   4.383  11.895  0.00  0.00    +0.000 A 
ATOM     19  C   UNL     1       7.441   5.139  13.048  0.00  0.00    +0.000 A 
ENDBRANCH  13  14
BRANCH  13  20
ATOM     20  O   UNL     1       7.310   5.794  15.853  0.00  0.00    +0.000 OA
ATOM     21  H   UNL     1       7.068   5.888  16.791  0.00  0.00    +0.000 HD
ENDBRANCH  13  20
ENDBRANCH   1  13
BRANCH   5  22
ATOM     22  C   UNL     1       3.121   7.144  18.937  0.00  0.00    +0.000 C 
BRANCH  22  23
ATOM     23  C   UNL     1       1.964   7.999  18.482  0.00  0.00    +0.000 C 
ATOM     24  C   UNL     1       1.518   9.096  19.112  0.00  0.00    +0.000 C 
BRANCH  24  25
ATOM     25  C   UNL     1       0.381   9.907  18.636  0.00  0.00    +0.000 A 
ATOM     26  C   UNL     1      -0.547   9.341  17.747  0.00  0.00    +0.000 A 
ATOM     27  C   UNL     1      -1.634  10.083  17.270  0.00  0.00    +0.000 A 
ATOM     28  C   UNL     1      -1.803  11.406  17.672  0.00  0.00    +0.000 A 
ATOM     29  C   UNL     1      -0.877  11.976  18.536  0.00  0.00    +0.000 A 
ATOM     30  F   UNL     1      -1.031  13.251  18.917  0.00  0.00    +0.000 F 
ATOM     31  C   UNL     1       0.211  11.248  19.011  0.00  0.00    +0.000 A 
ENDBRANCH  24  25
ENDBRANCH  22  23
ENDBRANCH   5  22
TORSDOF 7
ENDMDL
MODEL 7
REMARK VINA RESULT:      -8.1      4.623      7.224
REMARK  Name = 
REMARK  7 active torsions:
REMARK  status: ('A' for Active; 'I' for Inactive)
REMARK    1  A    between atoms: O_1  and  C_2
REMARK    2  A    between atoms: C_2  and  C_3
REMARK    3  A    between atoms: C_2  and  C_9
REMARK    4  A    between atoms: C_12  and  C_13
REMARK    5  A    between atoms: C_19  and  C_20
REMARK    6  A    between atoms: C_20  and  C_21
REMARK    7  A    between atoms: C_22  and  C_23
REMARK                            x       y       z     vdW  Elec       q    Type
REMARK                         _______ _______ _______ _____ _____    ______ ____
ROOT
ATOM      1  C   UNL     1       3.146   7.193  18.973  0.00  0.00    +0.000 C 
ATOM      2  C   UNL     1       2.505   7.601  17.646  0.00  0.00    +0.000 C 
ATOM      3  O   UNL     1       2.035   8.948  17.711  0.00  0.00    +0.000 OA
ATOM      4  C   UNL     1       0.945   9.119  18.632  0.00  0.00    +0.000 C 
ATOM      5  C   UNL     1       1.412   8.770  20.068  0.00  0.00    +0.000 C 
ATOM      6  C   UNL     1       2.121   7.402  20.106  0.00  0.00    +0.000 C 
ENDROOT
BRANCH   4   7
ATOM      7  C   UNL     1       0.461  10.561  18.521  0.00  0.00    +0.000 A 
ATOM      8  C   UNL     1      -0.891  10.845  18.264  0.00  0.00    +0.000 A 
ATOM      9  C   UNL     1      -1.358  12.162  18.247  0.00  0.00    +0.000 A 
ATOM     10  C   UNL     1      -0.476  13.218  18.461  0.00  0.00    +0.000 A 
ATOM     11  C   UNL     1       0.872  12.958  18.687  0.00  0.00    +0.000 A 
ATOM     12  C   UNL     1       1.336  11.640  18.723  0.00  0.00    +0.000 A 
ENDBRANCH   4   7
BRANCH   1  13
ATOM     13  C   UNL     1       3.645   5.726  18.980  0.00  0.00    +0.000 C 
BRANCH  13  14
ATOM     14  C   UNL     1       2.607   4.664  19.289  0.00  0.00    +0.000 A 
ATOM     15  C   UNL     1       1.851   4.058  18.270  0.00  0.00    +0.000 A 
ATOM     16  C   UNL     1       0.875   3.105  18.568  0.00  0.00    +0.000 A 
ATOM     17  C   UNL     1       0.639   2.738  19.891  0.00  0.00    +0.000 A 
ATOM     18  C   UNL     1       1.377   3.331  20.915  0.00  0.00    +0.000 A 
ATOM     19  C   UNL     1       2.355   4.286  20.617  0.00  0.00    +0.000 A 
ENDBRANCH  13  14
BRANCH  13  20
ATOM     20  O   UNL     1       4.750   5.600  19.883  0.00  0.00    +0.000 OA
ATOM     21  H   UNL     1       4.966   4.652  19.934  0.00  0.00    +0.000 HD
ENDBRANCH  13  20
ENDBRANCH   1  13
BRANCH   5  22
ATOM     22  C   UNL     1       0.291   8.819  21.143  0.00  0.00    +0.000 C 
BRANCH  22  23
ATOM     23  C   UNL     1       0.072  10.165  21.788  0.00  0.00    +0.000 C 
ATOM     24  C   UNL     1      -1.077  10.856  21.767  0.00  0.00    +0.000 C 
BRANCH  24  25
ATOM     25  C   UNL     1      -1.253  12.171  22.411  0.00  0.00    +0.000 A 
ATOM     26  C   UNL     1      -0.324  13.193  22.158  0.00  0.00    +0.000 A 
ATOM     27  C   UNL     1      -0.455  14.452  22.757  0.00  0.00    +0.000 A 
ATOM     28  C   UNL     1      -1.516  14.702  23.623  0.00  0.00    +0.000 A 
ATOM     29  C   UNL     1      -2.426  13.688  23.892  0.00  0.00    +0.000 A 
ATOM     30  F   UNL     1      -3.442  13.922  24.733  0.00  0.00    +0.000 F 
ATOM     31  C   UNL     1      -2.300  12.431  23.307  0.00  0.00    +0.000 A 
ENDBRANCH  24  25
ENDBRANCH  22  23
ENDBRANCH   5  22
TORSDOF 7
ENDMDL
MODEL 8
REMARK VINA RESULT:      -8.0      0.878      1.480
REMARK  Name = 
REMARK  7 active torsions:
REMARK  status: ('A' for Active; 'I' for Inactive)
REMARK    1  A    between atoms: O_1  and  C_2
REMARK    2  A    between atoms: C_2  and  C_3
REMARK    3  A    between atoms: C_2  and  C_9
REMARK    4  A    between atoms: C_12  and  C_13
REMARK    5  A    between atoms: C_19  and  C_20
REMARK    6  A    between atoms: C_20  and  C_21
REMARK    7  A    between atoms: C_22  and  C_23
REMARK                            x       y       z     vdW  Elec       q    Type
REMARK                         _______ _______ _______ _____ _____    ______ ____
ROOT
ATOM      1  C   UNL     1       5.170   4.775  14.971  0.00  0.00    +0.000 C 
ATOM      2  C   UNL     1       5.300   3.607  15.948  0.00  0.00    +0.000 C 
ATOM      3  O   UNL     1       4.214   3.605  16.875  0.00  0.00    +0.000 OA
ATOM      4  C   UNL     1       4.231   4.736  17.762  0.00  0.00    +0.000 C 
ATOM      5  C   UNL     1       4.082   6.045  16.946  0.00  0.00    +0.000 C 
ATOM      6  C   UNL     1       5.084   6.088  15.776  0.00  0.00    +0.000 C 
ENDROOT
BRANCH   4   7
ATOM      7  C   UNL     1       3.101   4.557  18.770  0.00  0.00    +0.000 A 
ATOM      8  C   UNL     1       1.940   3.843  18.427  0.00  0.00    +0.000 A 
ATOM      9  C   UNL     1       0.939   3.602  19.371  0.00  0.00    +0.000 A 
ATOM     10  C   UNL     1       1.070   4.092  20.668  0.00  0.00    +0.000 A 
ATOM     11  C   UNL     1       2.198   4.827  21.018  0.00  0.00    +0.000 A 
ATOM     12  C   UNL     1       3.208   5.053  20.080  0.00  0.00    +0.000 A 
ENDBRANCH   4   7
BRANCH   1  13
ATOM     13  C   UNL     1       6.340   4.855  13.959  0.00  0.00    +0.000 C 
BRANCH  13  14
ATOM     14  C   UNL     1       6.370   3.788  12.881  0.00  0.00    +0.000 A 
ATOM     15  C   UNL     1       7.575   3.394  12.272  0.00  0.00    +0.000 A 
ATOM     16  C   UNL     1       7.588   2.433  11.259  0.00  0.00    +0.000 A 
ATOM     17  C   UNL     1       6.397   1.847  10.838  0.00  0.00    +0.000 A 
ATOM     18  C   UNL     1       5.192   2.229  11.427  0.00  0.00    +0.000 A 
ATOM     19  C   UNL     1       5.179   3.190  12.443  0.00  0.00    +0.000 A 
ENDBRANCH  13  14
BRANCH  13  20
ATOM     20  O   UNL     1       7.586   4.863  14.667  0.00  0.00    +0.000 OA
ATOM     21  H   UNL     1       8.036   5.695  14.437  0.00  0.00    +0.000 HD
ENDBRANCH  13  20
ENDBRANCH   1  13
BRANCH   5  22
ATOM     22  C   UNL     1       4.188   7.347  17.787  0.00  0.00    +0.000 C 
BRANCH  22  23
ATOM     23  C   UNL     1       3.002   8.275  17.694  0.00  0.00    +0.000 C 
ATOM     24  C   UNL     1       2.137   8.527  18.688  0.00  0.00    +0.000 C 
BRANCH  24  25
ATOM     25  C   UNL     1       0.987   9.442  18.559  0.00  0.00    +0.000 A 
ATOM     26  C   UNL     1      -0.047   9.129  17.663  0.00  0.00    +0.000 A 
ATOM     27  C   UNL     1      -1.150   9.978  17.511  0.00  0.00    +0.000 A 
ATOM     28  C   UNL     1      -1.229  11.156  18.248  0.00  0.00    +0.000 A 
ATOM     29  C   UNL     1      -0.198  11.480  19.121  0.00  0.00    +0.000 A 
ATOM     30  F   UNL     1      -0.265  12.617  19.825  0.00  0.00    +0.000 F 
ATOM     31  C   UNL     1       0.906  10.646  19.275  0.00  0.00    +0.000 A 
ENDBRANCH  24  25
ENDBRANCH  22  23
ENDBRANCH   5  22
TORSDOF 7
ENDMDL
MODEL 9
REMARK VINA RESULT:      -8.0      4.601      7.193
REMARK  Name = 
REMARK  7 active torsions:
REMARK  status: ('A' for Active; 'I' for Inactive)
REMARK    1  A    between atoms: O_1  and  C_2
REMARK    2  A    between atoms: C_2  and  C_3
REMARK    3  A    between atoms: C_2  and  C_9
REMARK    4  A    between atoms: C_12  and  C_13
REMARK    5  A    between atoms: C_19  and  C_20
REMARK    6  A    between atoms: C_20  and  C_21
REMARK    7  A    between atoms: C_22  and  C_23
REMARK                            x       y       z     vdW  Elec       q    Type
REMARK                         _______ _______ _______ _____ _____    ______ ____
ROOT
ATOM      1  C   UNL     1       3.083   7.244  19.015  0.00  0.00    +0.000 C 
ATOM      2  C   UNL     1       2.446   7.689  17.698  0.00  0.00    +0.000 C 
ATOM      3  O   UNL     1       1.984   9.037  17.795  0.00  0.00    +0.000 OA
ATOM      4  C   UNL     1       0.894   9.192  18.720  0.00  0.00    +0.000 C 
ATOM      5  C   UNL     1       1.358   8.805  20.147  0.00  0.00    +0.000 C 
ATOM      6  C   UNL     1       2.058   7.431  20.151  0.00  0.00    +0.000 C 
ENDROOT
BRANCH   4   7
ATOM      7  C   UNL     1       0.419  10.639  18.645  0.00  0.00    +0.000 A 
ATOM      8  C   UNL     1       1.319  11.701  18.841  0.00  0.00    +0.000 A 
ATOM      9  C   UNL     1       0.909  13.028  18.689  0.00  0.00    +0.000 A 
ATOM     10  C   UNL     1      -0.413  13.317  18.362  0.00  0.00    +0.000 A 
ATOM     11  C   UNL     1      -1.326  12.281  18.194  0.00  0.00    +0.000 A 
ATOM     12  C   UNL     1      -0.913  10.953  18.328  0.00  0.00    +0.000 A 
ENDBRANCH   4   7
BRANCH   1  13
ATOM     13  C   UNL     1       3.572   5.774  18.986  0.00  0.00    +0.000 C 
BRANCH  13  14
ATOM     14  C   UNL     1       2.538   4.715  19.318  0.00  0.00    +0.000 A 
ATOM     15  C   UNL     1       2.314   4.298  20.642  0.00  0.00    +0.000 A 
ATOM     16  C   UNL     1       1.382   3.299  20.933  0.00  0.00    +0.000 A 
ATOM     17  C   UNL     1       0.656   2.702  19.906  0.00  0.00    +0.000 A 
ATOM     18  C   UNL     1       0.868   3.100  18.587  0.00  0.00    +0.000 A 
ATOM     19  C   UNL     1       1.801   4.100  18.294  0.00  0.00    +0.000 A 
ENDBRANCH  13  14
BRANCH  13  20
ATOM     20  O   UNL     1       4.707   5.630  19.848  0.00  0.00    +0.000 OA
ATOM     21  H   UNL     1       5.227   4.881  19.508  0.00  0.00    +0.000 HD
ENDBRANCH  13  20
ENDBRANCH   1  13
BRANCH   5  22
ATOM     22  C   UNL     1       0.236   8.834  21.222  0.00  0.00    +0.000 C 
BRANCH  22  23
ATOM     23  C   UNL     1       0.004  10.173  21.878  0.00  0.00    +0.000 C 
ATOM     24  C   UNL     1      -1.129  10.887  21.799  0.00  0.00    +0.000 C 
BRANCH  24  25
ATOM     25  C   UNL     1      -1.318  12.195  22.456  0.00  0.00    +0.000 A 
ATOM     26  C   UNL     1      -2.458  12.412  23.245  0.00  0.00    +0.000 A 
ATOM     27  C   UNL     1      -2.673  13.643  23.878  0.00  0.00    +0.000 A 
ATOM     28  C   UNL     1      -1.751  14.675  23.722  0.00  0.00    +0.000 A 
ATOM     29  C   UNL     1      -0.633  14.471  22.925  0.00  0.00    +0.000 A 
ATOM     30  F   UNL     1       0.251  15.465  22.765  0.00  0.00    +0.000 F 
ATOM     31  C   UNL     1      -0.413  13.253  22.287  0.00  0.00    +0.000 A 
ENDBRANCH  24  25
ENDBRANCH  22  23
ENDBRANCH   5  22
TORSDOF 7
ENDMDL
