MODEL 1
REMARK VINA RESULT:      -7.7      0.000      0.000
REMARK  Name = 
REMARK  8 active torsions:
REMARK  status: ('A' for Active; 'I' for Inactive)
REMARK    1  A    between atoms: C_1  and  C_2
REMARK    2  A    between atoms: C_2  and  C_3
REMARK    3  A    between atoms: C_2  and  C_4
REMARK    4  A    between atoms: C_2  and  C_5
REMARK    5  A    between atoms: C_8  and  C_9
REMARK    6  A    between atoms: N_11  and  C_12
REMARK    7  A    between atoms: C_18  and  C_19
REMARK    8  A    between atoms: C_19  and  O_21
REMARK                            x       y       z     vdW  Elec       q    Type
REMARK                         _______ _______ _______ _____ _____    ______ ____
ROOT
ATOM      1  C   UNL     1       3.523   6.535  18.085  0.00  0.00    +0.000 C 
ATOM      2  O   UNL     1       3.235   5.360  18.295  0.00  0.00    +0.000 OA
ATOM      3  N   UNL     1       4.712   6.935  17.488  0.00  0.00    +0.000 N 
ATOM      4  H   UNL     1       5.108   7.827  17.778  0.00  0.00    +0.000 HD
ENDROOT
BRANCH   3   5
ATOM      5  C   UNL     1       5.556   5.971  16.879  0.00  0.00    +0.000 A 
ATOM      6  C   UNL     1       5.220   5.528  15.587  0.00  0.00    +0.000 A 
ATOM      7  C   UNL     1       6.003   4.574  14.939  0.00  0.00    +0.000 A 
ATOM      8 BR   UNL     1       5.513   3.967  13.217  0.00  0.00    +0.000 Br
ATOM      9  C   UNL     1       7.135   4.057  15.556  0.00  0.00    +0.000 A 
ATOM     10  C   UNL     1       7.487   4.500  16.834  0.00  0.00    +0.000 A 
ATOM     11  C   UNL     1       6.701   5.453  17.504  0.00  0.00    +0.000 A 
BRANCH  11  12
ATOM     12  C   UNL     1       7.121   5.771  18.894  0.00  0.00    +0.000 C 
ATOM     13  O   UNL     1       6.533   5.357  19.871  0.00  0.00    +0.000 OA
BRANCH  12  14
ATOM     14  O   UNL     1       8.181   6.607  18.968  0.00  0.00    +0.000 OA
ATOM     15  H   UNL     1       7.999   7.519  18.665  0.00  0.00    +0.000 HD
ENDBRANCH  12  14
ENDBRANCH  11  12
ENDBRANCH   3   5
BRANCH   1  19
ATOM     16  C   UNL     1       0.853   9.536  19.644  0.00  0.00    +0.000 A 
ATOM     17  C   UNL     1       1.296   8.457  20.426  0.00  0.00    +0.000 A 
ATOM     18  C   UNL     1       2.174   7.503  19.909  0.00  0.00    +0.000 A 
ATOM     19  C   UNL     1       2.626   7.599  18.592  0.00  0.00    +0.000 A 
ATOM     20  C   UNL     1       2.172   8.636  17.778  0.00  0.00    +0.000 A 
ATOM     21  C   UNL     1       1.288   9.586  18.302  0.00  0.00    +0.000 A 
BRANCH  16  23
ATOM     22  C   UNL     1       0.716  12.030  20.286  0.00  0.00    +0.000 C 
ATOM     23  C   UNL     1      -0.013  10.667  20.227  0.00  0.00    +0.000 C 
ATOM     24  C   UNL     1      -0.480  10.339  21.661  0.00  0.00    +0.000 C 
ATOM     25  C   UNL     1      -1.250  10.844  19.319  0.00  0.00    +0.000 C 
ENDBRANCH  16  23
ENDBRANCH   1  19
TORSDOF 5
ENDMDL
MODEL 2
REMARK VINA RESULT:      -7.7      0.215      1.503
REMARK  Name = 
REMARK  8 active torsions:
REMARK  status: ('A' for Active; 'I' for Inactive)
REMARK    1  A    between atoms: C_1  and  C_2
REMARK    2  A    between atoms: C_2  and  C_3
REMARK    3  A    between atoms: C_2  and  C_4
REMARK    4  A    between atoms: C_2  and  C_5
REMARK    5  A    between atoms: C_8  and  C_9
REMARK    6  A    between atoms: N_11  and  C_12
REMARK    7  A    between atoms: C_18  and  C_19
REMARK    8  A    between atoms: C_19  and  O_21
REMARK                            x       y       z     vdW  Elec       q    Type
REMARK                         _______ _______ _______ _____ _____    ______ ____
ROOT
ATOM      1  C   UNL     1       3.520   6.493  18.093  0.00  0.00    +0.000 C 
ATOM      2  O   UNL     1       3.325   5.324  18.415  0.00  0.00    +0.000 OA
ATOM      3  N   UNL     1       4.632   6.911  17.373  0.00  0.00    +0.000 N 
ATOM      4  H   UNL     1       4.992   7.844  17.560  0.00  0.00    +0.000 HD
ENDROOT
BRANCH   3   5
ATOM      5  C   UNL     1       5.487   5.950  16.773  0.00  0.00    +0.000 A 
ATOM      6  C   UNL     1       5.153   5.486  15.488  0.00  0.00    +0.000 A 
ATOM      7  C   UNL     1       5.946   4.535  14.850  0.00  0.00    +0.000 A 
ATOM      8 BR   UNL     1       5.459   3.899  13.137  0.00  0.00    +0.000 Br
ATOM      9  C   UNL     1       7.087   4.041  15.470  0.00  0.00    +0.000 A 
ATOM     10  C   UNL     1       7.437   4.505  16.740  0.00  0.00    +0.000 A 
ATOM     11  C   UNL     1       6.641   5.456  17.401  0.00  0.00    +0.000 A 
BRANCH  11  12
ATOM     12  C   UNL     1       7.061   5.797  18.785  0.00  0.00    +0.000 C 
ATOM     13  O   UNL     1       8.064   6.434  19.032  0.00  0.00    +0.000 OA
BRANCH  12  14
ATOM     14  O   UNL     1       6.254   5.287  19.743  0.00  0.00    +0.000 OA
ATOM     15  H   UNL     1       5.314   5.543  19.658  0.00  0.00    +0.000 HD
ENDBRANCH  12  14
ENDBRANCH  11  12
ENDBRANCH   3   5
BRANCH   1  19
ATOM     16  C   UNL     1       0.903   9.633  19.454  0.00  0.00    +0.000 A 
ATOM     17  C   UNL     1       1.441   9.625  18.157  0.00  0.00    +0.000 A 
ATOM     18  C   UNL     1       2.274   8.591  17.728  0.00  0.00    +0.000 A 
ATOM     19  C   UNL     1       2.598   7.541  18.588  0.00  0.00    +0.000 A 
ATOM     20  C   UNL     1       2.113   7.542  19.895  0.00  0.00    +0.000 A 
ATOM     21  C   UNL     1       1.282   8.585  20.321  0.00  0.00    +0.000 A 
BRANCH  16  23
ATOM     22  C   UNL     1      -0.586  10.504  21.371  0.00  0.00    +0.000 C 
ATOM     23  C   UNL     1      -0.117  10.693  19.910  0.00  0.00    +0.000 C 
ATOM     24  C   UNL     1      -1.379  10.681  19.022  0.00  0.00    +0.000 C 
ATOM     25  C   UNL     1       0.555  12.080  19.817  0.00  0.00    +0.000 C 
ENDBRANCH  16  23
ENDBRANCH   1  19
TORSDOF 5
ENDMDL
MODEL 3
REMARK VINA RESULT:      -7.3      2.892      4.080
REMARK  Name = 
REMARK  8 active torsions:
REMARK  status: ('A' for Active; 'I' for Inactive)
REMARK    1  A    between atoms: C_1  and  C_2
REMARK    2  A    between atoms: C_2  and  C_3
REMARK    3  A    between atoms: C_2  and  C_4
REMARK    4  A    between atoms: C_2  and  C_5
REMARK    5  A    between atoms: C_8  and  C_9
REMARK    6  A    between atoms: N_11  and  C_12
REMARK    7  A    between atoms: C_18  and  C_19
REMARK    8  A    between atoms: C_19  and  O_21
REMARK                            x       y       z     vdW  Elec       q    Type
REMARK                         _______ _______ _______ _____ _____    ______ ____
ROOT
ATOM      1  C   UNL     1       2.073   7.261  19.637  0.00  0.00    +0.000 C 
ATOM      2  O   UNL     1       2.255   7.176  18.425  0.00  0.00    +0.000 OA
ATOM      3  N   UNL     1       2.403   6.251  20.531  0.00  0.00    +0.000 N 
ATOM      4  H   UNL     1       1.822   6.146  21.360  0.00  0.00    +0.000 HD
ENDROOT
BRANCH   3   5
ATOM      5  C   UNL     1       3.188   5.152  20.096  0.00  0.00    +0.000 A 
ATOM      6  C   UNL     1       4.367   5.430  19.381  0.00  0.00    +0.000 A 
ATOM      7  C   UNL     1       5.176   4.395  18.917  0.00  0.00    +0.000 A 
ATOM      8 BR   UNL     1       6.737   4.792  17.927  0.00  0.00    +0.000 Br
ATOM      9  C   UNL     1       4.836   3.071  19.167  0.00  0.00    +0.000 A 
ATOM     10  C   UNL     1       3.675   2.782  19.889  0.00  0.00    +0.000 A 
ATOM     11  C   UNL     1       2.843   3.816  20.354  0.00  0.00    +0.000 A 
BRANCH  11  12
ATOM     12  C   UNL     1       1.589   3.382  21.022  0.00  0.00    +0.000 C 
ATOM     13  O   UNL     1       1.578   2.712  22.033  0.00  0.00    +0.000 OA
BRANCH  12  14
ATOM     14  O   UNL     1       0.464   3.754  20.369  0.00  0.00    +0.000 OA
ATOM     15  H   UNL     1       0.230   3.183  19.610  0.00  0.00    +0.000 HD
ENDBRANCH  12  14
ENDBRANCH  11  12
ENDBRANCH   3   5
BRANCH   1  19
ATOM     16  C   UNL     1       0.068  10.774  21.123  0.00  0.00    +0.000 A 
ATOM     17  C   UNL     1       0.488  10.667  19.787  0.00  0.00    +0.000 A 
ATOM     18  C   UNL     1       1.122   9.515  19.319  0.00  0.00    +0.000 A 
ATOM     19  C   UNL     1       1.360   8.441  20.178  0.00  0.00    +0.000 A 
ATOM     20  C   UNL     1       0.992   8.532  21.520  0.00  0.00    +0.000 A 
ATOM     21  C   UNL     1       0.361   9.693  21.983  0.00  0.00    +0.000 A 
BRANCH  16  23
ATOM     22  C   UNL     1       0.093  13.274  21.753  0.00  0.00    +0.000 C 
ATOM     23  C   UNL     1      -0.743  11.979  21.632  0.00  0.00    +0.000 C 
ATOM     24  C   UNL     1      -1.356  11.701  23.021  0.00  0.00    +0.000 C 
ATOM     25  C   UNL     1      -1.879  12.256  20.623  0.00  0.00    +0.000 C 
ENDBRANCH  16  23
ENDBRANCH   1  19
TORSDOF 5
ENDMDL
MODEL 4
REMARK VINA RESULT:      -7.3      2.866      4.066
REMARK  Name = 
REMARK  8 active torsions:
REMARK  status: ('A' for Active; 'I' for Inactive)
REMARK    1  A    between atoms: C_1  and  C_2
REMARK    2  A    between atoms: C_2  and  C_3
REMARK    3  A    between atoms: C_2  and  C_4
REMARK    4  A    between atoms: C_2  and  C_5
REMARK    5  A    between atoms: C_8  and  C_9
REMARK    6  A    between atoms: N_11  and  C_12
REMARK    7  A    between atoms: C_18  and  C_19
REMARK    8  A    between atoms: C_19  and  O_21
REMARK                            x       y       z     vdW  Elec       q    Type
REMARK                         _______ _______ _______ _____ _____    ______ ____
ROOT
ATOM      1  C   UNL     1       2.150   7.338  19.561  0.00  0.00    +0.000 C 
ATOM      2  O   UNL     1       2.528   7.316  18.393  0.00  0.00    +0.000 OA
ATOM      3  N   UNL     1       2.303   6.267  20.433  0.00  0.00    +0.000 N 
ATOM      4  H   UNL     1       1.590   6.136  21.147  0.00  0.00    +0.000 HD
ENDROOT
BRANCH   3   5
ATOM      5  C   UNL     1       3.122   5.169  20.065  0.00  0.00    +0.000 A 
ATOM      6  C   UNL     1       4.310   5.443  19.363  0.00  0.00    +0.000 A 
ATOM      7  C   UNL     1       5.153   4.407  18.964  0.00  0.00    +0.000 A 
ATOM      8 BR   UNL     1       6.726   4.796  17.991  0.00  0.00    +0.000 Br
ATOM      9  C   UNL     1       4.837   3.089  19.268  0.00  0.00    +0.000 A 
ATOM     10  C   UNL     1       3.667   2.805  19.977  0.00  0.00    +0.000 A 
ATOM     11  C   UNL     1       2.802   3.838  20.377  0.00  0.00    +0.000 A 
BRANCH  11  12
ATOM     12  C   UNL     1       1.543   3.405  21.037  0.00  0.00    +0.000 C 
ATOM     13  O   UNL     1       1.526   2.747  22.056  0.00  0.00    +0.000 OA
BRANCH  12  14
ATOM     14  O   UNL     1       0.424   3.763  20.369  0.00  0.00    +0.000 OA
ATOM     15  H   UNL     1       0.553   3.903  19.409  0.00  0.00    +0.000 HD
ENDBRANCH  12  14
ENDBRANCH  11  12
ENDBRANCH   3   5
BRANCH   1  19
ATOM     16  C   UNL     1      -0.140  10.661  21.070  0.00  0.00    +0.000 A 
ATOM     17  C   UNL     1       0.208   9.570  21.882  0.00  0.00    +0.000 A 
ATOM     18  C   UNL     1       0.964   8.509  21.380  0.00  0.00    +0.000 A 
ATOM     19  C   UNL     1       1.386   8.509  20.050  0.00  0.00    +0.000 A 
ATOM     20  C   UNL     1       1.022   9.559  19.208  0.00  0.00    +0.000 A 
ATOM     21  C   UNL     1       0.259  10.617  19.717  0.00  0.00    +0.000 A 
BRANCH  16  23
ATOM     22  C   UNL     1      -2.070  12.345  20.772  0.00  0.00    +0.000 C 
ATOM     23  C   UNL     1      -0.864  11.899  21.630  0.00  0.00    +0.000 C 
ATOM     24  C   UNL     1       0.089  13.108  21.740  0.00  0.00    +0.000 C 
ATOM     25  C   UNL     1      -1.402  11.548  23.035  0.00  0.00    +0.000 C 
ENDBRANCH  16  23
ENDBRANCH   1  19
TORSDOF 5
ENDMDL
MODEL 5
REMARK VINA RESULT:      -7.2      2.815      3.974
REMARK  Name = 
REMARK  8 active torsions:
REMARK  status: ('A' for Active; 'I' for Inactive)
REMARK    1  A    between atoms: C_1  and  C_2
REMARK    2  A    between atoms: C_2  and  C_3
REMARK    3  A    between atoms: C_2  and  C_4
REMARK    4  A    between atoms: C_2  and  C_5
REMARK    5  A    between atoms: C_8  and  C_9
REMARK    6  A    between atoms: N_11  and  C_12
REMARK    7  A    between atoms: C_18  and  C_19
REMARK    8  A    between atoms: C_19  and  O_21
REMARK                            x       y       z     vdW  Elec       q    Type
REMARK                         _______ _______ _______ _____ _____    ______ ____
ROOT
ATOM      1  C   UNL     1       2.123   7.660  19.227  0.00  0.00    +0.000 C 
ATOM      2  O   UNL     1       2.279   7.716  18.010  0.00  0.00    +0.000 OA
ATOM      3  N   UNL     1       2.544   6.588  20.004  0.00  0.00    +0.000 N 
ATOM      4  H   UNL     1       1.992   6.357  20.827  0.00  0.00    +0.000 HD
ENDROOT
BRANCH   3   5
ATOM      5  C   UNL     1       3.391   5.599  19.440  0.00  0.00    +0.000 A 
ATOM      6  C   UNL     1       4.755   5.909  19.296  0.00  0.00    +0.000 A 
ATOM      7  C   UNL     1       5.637   4.984  18.741  0.00  0.00    +0.000 A 
ATOM      8 BR   UNL     1       7.460   5.435  18.524  0.00  0.00    +0.000 Br
ATOM      9  C   UNL     1       5.182   3.736  18.334  0.00  0.00    +0.000 A 
ATOM     10  C   UNL     1       3.832   3.411  18.486  0.00  0.00    +0.000 A 
ATOM     11  C   UNL     1       2.928   4.337  19.034  0.00  0.00    +0.000 A 
BRANCH  11  12
ATOM     12  C   UNL     1       1.504   3.914  19.053  0.00  0.00    +0.000 C 
ATOM     13  O   UNL     1       0.796   4.026  20.032  0.00  0.00    +0.000 OA
BRANCH  12  14
ATOM     14  O   UNL     1       1.087   3.344  17.900  0.00  0.00    +0.000 OA
ATOM     15  H   UNL     1       0.606   3.950  17.301  0.00  0.00    +0.000 HD
ENDBRANCH  12  14
ENDBRANCH  11  12
ENDBRANCH   3   5
BRANCH   1  19
ATOM     16  C   UNL     1      -0.084  10.847  21.109  0.00  0.00    +0.000 A 
ATOM     17  C   UNL     1       0.278  10.895  19.753  0.00  0.00    +0.000 A 
ATOM     18  C   UNL     1       0.979   9.845  19.156  0.00  0.00    +0.000 A 
ATOM     19  C   UNL     1       1.344   8.724  19.903  0.00  0.00    +0.000 A 
ATOM     20  C   UNL     1       1.035   8.666  21.261  0.00  0.00    +0.000 A 
ATOM     21  C   UNL     1       0.336   9.724  21.854  0.00  0.00    +0.000 A 
BRANCH  16  23
ATOM     22  C   UNL     1      -2.185  12.327  20.897  0.00  0.00    +0.000 C 
ATOM     23  C   UNL     1      -0.964  11.931  21.759  0.00  0.00    +0.000 C 
ATOM     24  C   UNL     1      -0.162  13.221  22.031  0.00  0.00    +0.000 C 
ATOM     25  C   UNL     1      -1.502  11.377  23.096  0.00  0.00    +0.000 C 
ENDBRANCH  16  23
ENDBRANCH   1  19
TORSDOF 5
ENDMDL
MODEL 6
REMARK VINA RESULT:      -7.1      2.826      3.841
REMARK  Name = 
REMARK  8 active torsions:
REMARK  status: ('A' for Active; 'I' for Inactive)
REMARK    1  A    between atoms: C_1  and  C_2
REMARK    2  A    between atoms: C_2  and  C_3
REMARK    3  A    between atoms: C_2  and  C_4
REMARK    4  A    between atoms: C_2  and  C_5
REMARK    5  A    between atoms: C_8  and  C_9
REMARK    6  A    between atoms: N_11  and  C_12
REMARK    7  A    between atoms: C_18  and  C_19
REMARK    8  A    between atoms: C_19  and  O_21
REMARK                            x       y       z     vdW  Elec       q    Type
REMARK                         _______ _______ _______ _____ _____    ______ ____
ROOT
ATOM      1  C   UNL     1       2.142   7.710  19.124  0.00  0.00    +0.000 C 
ATOM      2  O   UNL     1       2.359   7.749  17.915  0.00  0.00    +0.000 OA
ATOM      3  N   UNL     1       2.519   6.646  19.933  0.00  0.00    +0.000 N 
ATOM      4  H   UNL     1       1.925   6.428  20.731  0.00  0.00    +0.000 HD
ENDROOT
BRANCH   3   5
ATOM      5  C   UNL     1       3.387   5.646  19.426  0.00  0.00    +0.000 A 
ATOM      6  C   UNL     1       4.753   5.961  19.308  0.00  0.00    +0.000 A 
ATOM      7  C   UNL     1       5.656   5.026  18.807  0.00  0.00    +0.000 A 
ATOM      8 BR   UNL     1       7.481   5.484  18.625  0.00  0.00    +0.000 Br
ATOM      9  C   UNL     1       5.221   3.762  18.429  0.00  0.00    +0.000 A 
ATOM     10  C   UNL     1       3.869   3.431  18.555  0.00  0.00    +0.000 A 
ATOM     11  C   UNL     1       2.945   4.368  19.048  0.00  0.00    +0.000 A 
BRANCH  11  12
ATOM     12  C   UNL     1       1.523   3.935  19.042  0.00  0.00    +0.000 C 
ATOM     13  O   UNL     1       0.802   4.026  20.014  0.00  0.00    +0.000 OA
BRANCH  12  14
ATOM     14  O   UNL     1       1.125   3.380  17.875  0.00  0.00    +0.000 OA
ATOM     15  H   UNL     1       1.032   2.406  17.902  0.00  0.00    +0.000 HD
ENDBRANCH  12  14
ENDBRANCH  11  12
ENDBRANCH   3   5
BRANCH   1  19
ATOM     16  C   UNL     1      -0.256  10.746  21.020  0.00  0.00    +0.000 A 
ATOM     17  C   UNL     1       0.230   9.635  21.727  0.00  0.00    +0.000 A 
ATOM     18  C   UNL     1       1.020   8.669  21.100  0.00  0.00    +0.000 A 
ATOM     19  C   UNL     1       1.336   8.786  19.746  0.00  0.00    +0.000 A 
ATOM     20  C   UNL     1       0.835   9.856  19.007  0.00  0.00    +0.000 A 
ATOM     21  C   UNL     1       0.039  10.819  19.641  0.00  0.00    +0.000 A 
BRANCH  16  23
ATOM     22  C   UNL     1      -2.261  12.366  20.924  0.00  0.00    +0.000 C 
ATOM     23  C   UNL     1      -1.021  11.887  21.715  0.00  0.00    +0.000 C 
ATOM     24  C   UNL     1      -0.118  13.120  21.935  0.00  0.00    +0.000 C 
ATOM     25  C   UNL     1      -1.517  11.371  23.083  0.00  0.00    +0.000 C 
ENDBRANCH  16  23
ENDBRANCH   1  19
TORSDOF 5
ENDMDL
MODEL 7
REMARK VINA RESULT:      -7.1      2.791      3.711
REMARK  Name = 
REMARK  8 active torsions:
REMARK  status: ('A' for Active; 'I' for Inactive)
REMARK    1  A    between atoms: C_1  and  C_2
REMARK    2  A    between atoms: C_2  and  C_3
REMARK    3  A    between atoms: C_2  and  C_4
REMARK    4  A    between atoms: C_2  and  C_5
REMARK    5  A    between atoms: C_8  and  C_9
REMARK    6  A    between atoms: N_11  and  C_12
REMARK    7  A    between atoms: C_18  and  C_19
REMARK    8  A    between atoms: C_19  and  O_21
REMARK                            x       y       z     vdW  Elec       q    Type
REMARK                         _______ _______ _______ _____ _____    ______ ____
ROOT
ATOM      1  C   UNL     1       2.212   7.739  19.056  0.00  0.00    +0.000 C 
ATOM      2  O   UNL     1       2.457   7.826  17.855  0.00  0.00    +0.000 OA
ATOM      3  N   UNL     1       2.568   6.643  19.831  0.00  0.00    +0.000 N 
ATOM      4  H   UNL     1       1.955   6.395  20.605  0.00  0.00    +0.000 HD
ENDROOT
BRANCH   3   5
ATOM      5  C   UNL     1       3.447   5.662  19.305  0.00  0.00    +0.000 A 
ATOM      6  C   UNL     1       4.823   5.955  19.290  0.00  0.00    +0.000 A 
ATOM      7  C   UNL     1       5.737   5.037  18.777  0.00  0.00    +0.000 A 
ATOM      8 BR   UNL     1       7.578   5.467  18.733  0.00  0.00    +0.000 Br
ATOM      9  C   UNL     1       5.302   3.812  18.286  0.00  0.00    +0.000 A 
ATOM     10  C   UNL     1       3.940   3.504  18.309  0.00  0.00    +0.000 A 
ATOM     11  C   UNL     1       3.005   4.424  18.813  0.00  0.00    +0.000 A 
BRANCH  11  12
ATOM     12  C   UNL     1       1.579   4.023  18.695  0.00  0.00    +0.000 C 
ATOM     13  O   UNL     1       1.058   3.744  17.635  0.00  0.00    +0.000 OA
BRANCH  12  14
ATOM     14  O   UNL     1       0.903   4.053  19.865  0.00  0.00    +0.000 OA
ATOM     15  H   UNL     1      -0.051   3.848  19.786  0.00  0.00    +0.000 HD
ENDBRANCH  12  14
ENDBRANCH  11  12
ENDBRANCH   3   5
BRANCH   1  19
ATOM     16  C   UNL     1      -0.229  10.703  21.011  0.00  0.00    +0.000 A 
ATOM     17  C   UNL     1       0.222   9.554  21.680  0.00  0.00    +0.000 A 
ATOM     18  C   UNL     1       1.025   8.612  21.035  0.00  0.00    +0.000 A 
ATOM     19  C   UNL     1       1.393   8.792  19.701  0.00  0.00    +0.000 A 
ATOM     20  C   UNL     1       0.928   9.902  18.998  0.00  0.00    +0.000 A 
ATOM     21  C   UNL     1       0.118  10.840  19.650  0.00  0.00    +0.000 A 
BRANCH  16  23
ATOM     22  C   UNL     1      -0.171  13.093  21.980  0.00  0.00    +0.000 C 
ATOM     23  C   UNL     1      -1.009  11.816  21.734  0.00  0.00    +0.000 C 
ATOM     24  C   UNL     1      -1.528  11.341  23.108  0.00  0.00    +0.000 C 
ATOM     25  C   UNL     1      -2.210  12.216  20.849  0.00  0.00    +0.000 C 
ENDBRANCH  16  23
ENDBRANCH   1  19
TORSDOF 5
ENDMDL
MODEL 8
REMARK VINA RESULT:      -7.0      3.910      8.104
REMARK  Name = 
REMARK  8 active torsions:
REMARK  status: ('A' for Active; 'I' for Inactive)
REMARK    1  A    between atoms: C_1  and  C_2
REMARK    2  A    between atoms: C_2  and  C_3
REMARK    3  A    between atoms: C_2  and  C_4
REMARK    4  A    between atoms: C_2  and  C_5
REMARK    5  A    between atoms: C_8  and  C_9
REMARK    6  A    between atoms: N_11  and  C_12
REMARK    7  A    between atoms: C_18  and  C_19
REMARK    8  A    between atoms: C_19  and  O_21
REMARK                            x       y       z     vdW  Elec       q    Type
REMARK                         _______ _______ _______ _____ _____    ______ ____
ROOT
ATOM      1  C   UNL     1       1.661   9.212  18.299  0.00  0.00    +0.000 C 
ATOM      2  O   UNL     1       1.947  10.192  17.616  0.00  0.00    +0.000 OA
ATOM      3  N   UNL     1       0.622   9.200  19.222  0.00  0.00    +0.000 N 
ATOM      4  H   UNL     1       0.735   8.623  20.052  0.00  0.00    +0.000 HD
ENDROOT
BRANCH   3   5
ATOM      5  C   UNL     1      -0.311  10.269  19.247  0.00  0.00    +0.000 A 
ATOM      6  C   UNL     1      -1.379  10.229  18.332  0.00  0.00    +0.000 A 
ATOM      7  C   UNL     1      -2.323  11.253  18.299  0.00  0.00    +0.000 A 
ATOM      8 BR   UNL     1      -3.729  11.196  17.037  0.00  0.00    +0.000 Br
ATOM      9  C   UNL     1      -2.230  12.322  19.181  0.00  0.00    +0.000 A 
ATOM     10  C   UNL     1      -1.183  12.366  20.105  0.00  0.00    +0.000 A 
ATOM     11  C   UNL     1      -0.217  11.346  20.142  0.00  0.00    +0.000 A 
BRANCH  11  12
ATOM     12  C   UNL     1       0.902  11.553  21.099  0.00  0.00    +0.000 C 
ATOM     13  O   UNL     1       1.558  12.572  21.136  0.00  0.00    +0.000 OA
BRANCH  12  14
ATOM     14  O   UNL     1       1.155  10.481  21.884  0.00  0.00    +0.000 OA
ATOM     15  H   UNL     1       0.734   9.652  21.584  0.00  0.00    +0.000 HD
ENDBRANCH  12  14
ENDBRANCH  11  12
ENDBRANCH   3   5
BRANCH   1  19
ATOM     16  C   UNL     1       4.180   5.717  18.257  0.00  0.00    +0.000 A 
ATOM     17  C   UNL     1       3.202   5.915  19.245  0.00  0.00    +0.000 A 
ATOM     18  C   UNL     1       2.384   7.046  19.233  0.00  0.00    +0.000 A 
ATOM     19  C   UNL     1       2.528   8.013  18.238  0.00  0.00    +0.000 A 
ATOM     20  C   UNL     1       3.517   7.864  17.266  0.00  0.00    +0.000 A 
ATOM     21  C   UNL     1       4.338   6.730  17.287  0.00  0.00    +0.000 A 
BRANCH  16  23
ATOM     22  C   UNL     1       4.826   3.661  16.840  0.00  0.00    +0.000 C 
ATOM     23  C   UNL     1       5.008   4.421  18.175  0.00  0.00    +0.000 C 
ATOM     24  C   UNL     1       4.639   3.442  19.310  0.00  0.00    +0.000 C 
ATOM     25  C   UNL     1       6.502   4.795  18.293  0.00  0.00    +0.000 C 
ENDBRANCH  16  23
ENDBRANCH   1  19
TORSDOF 5
ENDMDL
MODEL 9
REMARK VINA RESULT:      -7.0      3.977      8.257
REMARK  Name = 
REMARK  8 active torsions:
REMARK  status: ('A' for Active; 'I' for Inactive)
REMARK    1  A    between atoms: C_1  and  C_2
REMARK    2  A    between atoms: C_2  and  C_3
REMARK    3  A    between atoms: C_2  and  C_4
REMARK    4  A    between atoms: C_2  and  C_5
REMARK    5  A    between atoms: C_8  and  C_9
REMARK    6  A    between atoms: N_11  and  C_12
REMARK    7  A    between atoms: C_18  and  C_19
REMARK    8  A    between atoms: C_19  and  O_21
REMARK                            x       y       z     vdW  Elec       q    Type
REMARK                         _______ _______ _______ _____ _____    ______ ____
ROOT
ATOM      1  C   UNL     1       1.472   9.290  18.562  0.00  0.00    +0.000 C 
ATOM      2  O   UNL     1       1.757  10.263  17.868  0.00  0.00    +0.000 OA
ATOM      3  N   UNL     1       0.405   9.272  19.451  0.00  0.00    +0.000 N 
ATOM      4  H   UNL     1       0.505   8.714  20.296  0.00  0.00    +0.000 HD
ENDROOT
BRANCH   3   5
ATOM      5  C   UNL     1      -0.554  10.317  19.424  0.00  0.00    +0.000 A 
ATOM      6  C   UNL     1      -1.569  10.251  18.452  0.00  0.00    +0.000 A 
ATOM      7  C   UNL     1      -2.535  11.252  18.367  0.00  0.00    +0.000 A 
ATOM      8 BR   UNL     1      -3.868  11.162  17.030  0.00  0.00    +0.000 Br
ATOM      9  C   UNL     1      -2.516  12.323  19.252  0.00  0.00    +0.000 A 
ATOM     10  C   UNL     1      -1.522  12.392  20.230  0.00  0.00    +0.000 A 
ATOM     11  C   UNL     1      -0.535  11.396  20.322  0.00  0.00    +0.000 A 
BRANCH  11  12
ATOM     12  C   UNL     1       0.525  11.630  21.338  0.00  0.00    +0.000 C 
ATOM     13  O   UNL     1       1.126  12.679  21.433  0.00  0.00    +0.000 OA
BRANCH  12  14
ATOM     14  O   UNL     1       0.794  10.550  22.106  0.00  0.00    +0.000 OA
ATOM     15  H   UNL     1       0.002  10.115  22.482  0.00  0.00    +0.000 HD
ENDBRANCH  12  14
ENDBRANCH  11  12
ENDBRANCH   3   5
BRANCH   1  19
ATOM     16  C   UNL     1       4.079   5.864  18.397  0.00  0.00    +0.000 A 
ATOM     17  C   UNL     1       4.096   6.858  17.406  0.00  0.00    +0.000 A 
ATOM     18  C   UNL     1       3.255   7.969  17.484  0.00  0.00    +0.000 A 
ATOM     19  C   UNL     1       2.370   8.112  18.553  0.00  0.00    +0.000 A 
ATOM     20  C   UNL     1       2.301   7.122  19.532  0.00  0.00    +0.000 A 
ATOM     21  C   UNL     1       3.144   6.007  19.444  0.00  0.00    +0.000 A 
BRANCH  16  23
ATOM     22  C   UNL     1       4.652   3.521  19.310  0.00  0.00    +0.000 C 
ATOM     23  C   UNL     1       5.082   4.695  18.400  0.00  0.00    +0.000 C 
ATOM     24  C   UNL     1       6.478   5.151  18.874  0.00  0.00    +0.000 C 
ATOM     25  C   UNL     1       5.189   4.148  16.960  0.00  0.00    +0.000 C 
ENDBRANCH  16  23
ENDBRANCH   1  19
TORSDOF 5
ENDMDL
