MODEL 1
REMARK VINA RESULT:      -7.3      0.000      0.000
REMARK  Name = 
REMARK  5 active torsions:
REMARK  status: ('A' for Active; 'I' for Inactive)
REMARK    1  A    between atoms: C_7  and  C_8
REMARK    2  A    between atoms: C_11  and  O_12
REMARK    3  A    between atoms: C_15  and  C_16
REMARK    4  A    between atoms: C_19  and  O_20
REMARK    5  A    between atoms: N_26  and  C_27
REMARK                            x       y       z     vdW  Elec       q    Type
REMARK                         _______ _______ _______ _____ _____    ______ ____
ROOT
ATOM      1  O   UNL     1       2.898  11.802  17.888  0.00  0.00    +0.000 OA
ATOM      2  C   UNL     1       2.015  10.970  18.054  0.00  0.00    +0.000 C 
ATOM      3  C   UNL     1       2.100   9.595  17.434  0.00  0.00    +0.000 C 
ATOM      4  C   UNL     1       3.201   8.764  18.102  0.00  0.00    +0.000 C 
ATOM      5  O   UNL     1       2.539   8.496  19.380  0.00  0.00    +0.000 OA
ATOM      6  C   UNL     1       1.390   7.789  18.815  0.00  0.00    +0.000 C 
ATOM      7  C   UNL     1       2.149   6.721  18.060  0.00  0.00    +0.000 C 
ATOM      8  C   UNL     1       3.273   7.331  17.599  0.00  0.00    +0.000 C 
ATOM      9  C   UNL     1       0.837   8.889  17.916  0.00  0.00    +0.000 C 
ATOM     10  C   UNL     1       0.139   9.897  18.784  0.00  0.00    +0.000 C 
ATOM     11  O   UNL     1      -0.934   9.640  19.319  0.00  0.00    +0.000 OA
ATOM     12  N   UNL     1       0.873  11.063  18.829  0.00  0.00    +0.000 N 
ENDROOT
BRANCH   7  13
ATOM     13  C   UNL     1       2.105   5.314  18.499  0.00  0.00    +0.000 A 
ATOM     14  C   UNL     1       2.165   4.326  17.501  0.00  0.00    +0.000 A 
ATOM     15  C   UNL     1       1.966   2.979  17.798  0.00  0.00    +0.000 A 
ATOM     16  C   UNL     1       1.714   2.610  19.112  0.00  0.00    +0.000 A 
ATOM     17  C   UNL     1       1.676   3.564  20.123  0.00  0.00    +0.000 A 
ATOM     18  C   UNL     1       1.865   4.920  19.819  0.00  0.00    +0.000 A 
BRANCH  16  19
ATOM     19  O   UNL     1       1.477   1.307  19.436  0.00  0.00    +0.000 OA
ATOM     20  H   UNL     1       2.221   0.771  19.111  0.00  0.00    +0.000 HD
ENDBRANCH  16  19
ENDBRANCH   7  13
BRANCH   8  21
ATOM     21  C   UNL     1       4.558   6.631  17.442  0.00  0.00    +0.000 A 
ATOM     22  C   UNL     1       5.094   6.316  16.183  0.00  0.00    +0.000 A 
ATOM     23  C   UNL     1       6.240   5.519  16.083  0.00  0.00    +0.000 A 
ATOM     24  C   UNL     1       6.846   5.027  17.239  0.00  0.00    +0.000 A 
ATOM     25  C   UNL     1       6.335   5.339  18.490  0.00  0.00    +0.000 A 
ATOM     26  C   UNL     1       5.198   6.139  18.590  0.00  0.00    +0.000 A 
BRANCH  24  27
ATOM     27  O   UNL     1       7.939   4.216  17.188  0.00  0.00    +0.000 OA
ATOM     28  H   UNL     1       7.641   3.293  17.140  0.00  0.00    +0.000 HD
ENDBRANCH  24  27
ENDBRANCH   8  21
BRANCH  12  29
ATOM     29  C   UNL     1       0.483  12.220  19.576  0.00  0.00    +0.000 A 
ATOM     30  C   UNL     1      -0.131  13.320  18.955  0.00  0.00    +0.000 A 
ATOM     31  C   UNL     1      -0.573  14.425  19.698  0.00  0.00    +0.000 A 
ATOM     32  C   UNL     1      -0.385  14.468  21.075  0.00  0.00    +0.000 A 
ATOM     33  C   UNL     1       0.251  13.408  21.708  0.00  0.00    +0.000 A 
ATOM     34  C   UNL     1       0.674  12.296  20.967  0.00  0.00    +0.000 A 
ENDBRANCH  12  29
TORSDOF 5
ENDMDL
MODEL 2
REMARK VINA RESULT:      -7.0      4.124     10.972
REMARK  Name = 
REMARK  5 active torsions:
REMARK  status: ('A' for Active; 'I' for Inactive)
REMARK    1  A    between atoms: C_7  and  C_8
REMARK    2  A    between atoms: C_11  and  O_12
REMARK    3  A    between atoms: C_15  and  C_16
REMARK    4  A    between atoms: C_19  and  O_20
REMARK    5  A    between atoms: N_26  and  C_27
REMARK                            x       y       z     vdW  Elec       q    Type
REMARK                         _______ _______ _______ _____ _____    ______ ____
ROOT
ATOM      1  O   UNL     1      -1.873  10.174  18.845  0.00  0.00    +0.000 OA
ATOM      2  C   UNL     1      -1.114  11.036  19.270  0.00  0.00    +0.000 C 
ATOM      3  C   UNL     1      -1.621  12.392  19.700  0.00  0.00    +0.000 C 
ATOM      4  C   UNL     1      -2.442  12.283  20.990  0.00  0.00    +0.000 C 
ATOM      5  O   UNL     1      -1.350  12.039  21.933  0.00  0.00    +0.000 OA
ATOM      6  C   UNL     1      -0.638  13.290  21.675  0.00  0.00    +0.000 C 
ATOM      7  C   UNL     1      -1.771  14.245  21.981  0.00  0.00    +0.000 C 
ATOM      8  C   UNL     1      -2.897  13.626  21.539  0.00  0.00    +0.000 C 
ATOM      9  C   UNL     1      -0.373  13.123  20.184  0.00  0.00    +0.000 C 
ATOM     10  C   UNL     1       0.744  12.132  20.014  0.00  0.00    +0.000 C 
ATOM     11  O   UNL     1       1.900  12.423  20.301  0.00  0.00    +0.000 OA
ATOM     12  N   UNL     1       0.248  10.954  19.497  0.00  0.00    +0.000 N 
ENDROOT
BRANCH   7  13
ATOM     13  C   UNL     1      -1.727  15.104  23.178  0.00  0.00    +0.000 A 
ATOM     14  C   UNL     1      -1.804  16.493  22.976  0.00  0.00    +0.000 A 
ATOM     15  C   UNL     1      -1.608  17.392  24.024  0.00  0.00    +0.000 A 
ATOM     16  C   UNL     1      -1.340  16.899  25.292  0.00  0.00    +0.000 A 
ATOM     17  C   UNL     1      -1.285  15.529  25.526  0.00  0.00    +0.000 A 
ATOM     18  C   UNL     1      -1.472  14.626  24.468  0.00  0.00    +0.000 A 
BRANCH  16  19
ATOM     19  O   UNL     1      -1.105  17.747  26.334  0.00  0.00    +0.000 OA
ATOM     20  H   UNL     1      -1.937  17.871  26.821  0.00  0.00    +0.000 HD
ENDBRANCH  16  19
ENDBRANCH   7  13
BRANCH   8  21
ATOM     21  C   UNL     1      -4.209  13.792  22.185  0.00  0.00    +0.000 A 
ATOM     22  C   UNL     1      -5.013  14.924  21.974  0.00  0.00    +0.000 A 
ATOM     23  C   UNL     1      -6.180  15.109  22.724  0.00  0.00    +0.000 A 
ATOM     24  C   UNL     1      -6.541  14.171  23.690  0.00  0.00    +0.000 A 
ATOM     25  C   UNL     1      -5.763  13.042  23.901  0.00  0.00    +0.000 A 
ATOM     26  C   UNL     1      -4.605  12.853  23.150  0.00  0.00    +0.000 A 
BRANCH  24  27
ATOM     27  O   UNL     1      -7.647  14.330  24.470  0.00  0.00    +0.000 OA
ATOM     28  H   UNL     1      -7.530  15.123  25.018  0.00  0.00    +0.000 HD
ENDBRANCH  24  27
ENDBRANCH   8  21
BRANCH  12  29
ATOM     29  C   UNL     1       1.056   9.805  19.221  0.00  0.00    +0.000 A 
ATOM     30  C   UNL     1       1.268   8.809  20.188  0.00  0.00    +0.000 A 
ATOM     31  C   UNL     1       2.004   7.651  19.894  0.00  0.00    +0.000 A 
ATOM     32  C   UNL     1       2.570   7.477  18.636  0.00  0.00    +0.000 A 
ATOM     33  C   UNL     1       2.405   8.465  17.673  0.00  0.00    +0.000 A 
ATOM     34  C   UNL     1       1.652   9.611  17.962  0.00  0.00    +0.000 A 
ENDBRANCH  12  29
TORSDOF 5
ENDMDL
MODEL 3
REMARK VINA RESULT:      -7.0      0.273      1.231
REMARK  Name = 
REMARK  5 active torsions:
REMARK  status: ('A' for Active; 'I' for Inactive)
REMARK    1  A    between atoms: C_7  and  C_8
REMARK    2  A    between atoms: C_11  and  O_12
REMARK    3  A    between atoms: C_15  and  C_16
REMARK    4  A    between atoms: C_19  and  O_20
REMARK    5  A    between atoms: N_26  and  C_27
REMARK                            x       y       z     vdW  Elec       q    Type
REMARK                         _______ _______ _______ _____ _____    ______ ____
ROOT
ATOM      1  O   UNL     1       2.914  11.834  18.141  0.00  0.00    +0.000 OA
ATOM      2  C   UNL     1       1.986  11.035  18.178  0.00  0.00    +0.000 C 
ATOM      3  C   UNL     1       2.081   9.685  17.508  0.00  0.00    +0.000 C 
ATOM      4  C   UNL     1       3.072   8.778  18.247  0.00  0.00    +0.000 C 
ATOM      5  O   UNL     1       2.269   8.487  19.437  0.00  0.00    +0.000 OA
ATOM      6  C   UNL     1       1.159   7.856  18.725  0.00  0.00    +0.000 C 
ATOM      7  C   UNL     1       1.950   6.787  18.004  0.00  0.00    +0.000 C 
ATOM      8  C   UNL     1       3.139   7.365  17.690  0.00  0.00    +0.000 C 
ATOM      9  C   UNL     1       0.747   9.015  17.826  0.00  0.00    +0.000 C 
ATOM     10  C   UNL     1       0.002  10.017  18.662  0.00  0.00    +0.000 C 
ATOM     11  O   UNL     1      -1.130   9.786  19.072  0.00  0.00    +0.000 OA
ATOM     12  N   UNL     1       0.774  11.146  18.835  0.00  0.00    +0.000 N 
ENDROOT
BRANCH   7  13
ATOM     13  C   UNL     1       1.805   5.367  18.372  0.00  0.00    +0.000 A 
ATOM     14  C   UNL     1       1.714   5.063  19.742  0.00  0.00    +0.000 A 
ATOM     15  C   UNL     1       1.740   3.747  20.198  0.00  0.00    +0.000 A 
ATOM     16  C   UNL     1       1.848   2.717  19.275  0.00  0.00    +0.000 A 
ATOM     17  C   UNL     1       1.913   2.987  17.913  0.00  0.00    +0.000 A 
ATOM     18  C   UNL     1       1.898   4.314  17.456  0.00  0.00    +0.000 A 
BRANCH  16  19
ATOM     19  O   UNL     1       1.915   1.418  19.686  0.00  0.00    +0.000 OA
ATOM     20  H   UNL     1       1.018   1.125  19.919  0.00  0.00    +0.000 HD
ENDBRANCH  16  19
ENDBRANCH   7  13
BRANCH   8  21
ATOM     21  C   UNL     1       4.405   6.617  17.633  0.00  0.00    +0.000 A 
ATOM     22  C   UNL     1       5.018   6.267  16.420  0.00  0.00    +0.000 A 
ATOM     23  C   UNL     1       6.137   5.426  16.412  0.00  0.00    +0.000 A 
ATOM     24  C   UNL     1       6.639   4.927  17.613  0.00  0.00    +0.000 A 
ATOM     25  C   UNL     1       6.051   5.273  18.821  0.00  0.00    +0.000 A 
ATOM     26  C   UNL     1       4.941   6.116  18.829  0.00  0.00    +0.000 A 
BRANCH  24  27
ATOM     27  O   UNL     1       7.702   4.075  17.650  0.00  0.00    +0.000 OA
ATOM     28  H   UNL     1       7.739   3.661  18.528  0.00  0.00    +0.000 HD
ENDBRANCH  24  27
ENDBRANCH   8  21
BRANCH  12  29
ATOM     29  C   UNL     1       0.354  12.288  19.590  0.00  0.00    +0.000 A 
ATOM     30  C   UNL     1       0.457  12.319  20.990  0.00  0.00    +0.000 A 
ATOM     31  C   UNL     1       0.107  13.464  21.722  0.00  0.00    +0.000 A 
ATOM     32  C   UNL     1      -0.380  14.593  21.073  0.00  0.00    +0.000 A 
ATOM     33  C   UNL     1      -0.525  14.575  19.692  0.00  0.00    +0.000 A 
ATOM     34  C   UNL     1      -0.156  13.437  18.960  0.00  0.00    +0.000 A 
ENDBRANCH  12  29
TORSDOF 5
ENDMDL
MODEL 4
REMARK VINA RESULT:      -7.0      1.868      4.268
REMARK  Name = 
REMARK  5 active torsions:
REMARK  status: ('A' for Active; 'I' for Inactive)
REMARK    1  A    between atoms: C_7  and  C_8
REMARK    2  A    between atoms: C_11  and  O_12
REMARK    3  A    between atoms: C_15  and  C_16
REMARK    4  A    between atoms: C_19  and  O_20
REMARK    5  A    between atoms: N_26  and  C_27
REMARK                            x       y       z     vdW  Elec       q    Type
REMARK                         _______ _______ _______ _____ _____    ______ ____
ROOT
ATOM      1  O   UNL     1      -0.437   7.941  20.864  0.00  0.00    +0.000 OA
ATOM      2  C   UNL     1       0.483   8.442  20.231  0.00  0.00    +0.000 C 
ATOM      3  C   UNL     1       1.850   7.801  20.186  0.00  0.00    +0.000 C 
ATOM      4  C   UNL     1       1.816   6.500  19.375  0.00  0.00    +0.000 C 
ATOM      5  O   UNL     1       1.690   7.073  18.034  0.00  0.00    +0.000 OA
ATOM      6  C   UNL     1       2.941   7.829  18.068  0.00  0.00    +0.000 C 
ATOM      7  C   UNL     1       3.875   6.678  18.370  0.00  0.00    +0.000 C 
ATOM      8  C   UNL     1       3.181   5.855  19.199  0.00  0.00    +0.000 C 
ATOM      9  C   UNL     1       2.663   8.716  19.276  0.00  0.00    +0.000 C 
ATOM     10  C   UNL     1       1.704   9.794  18.856  0.00  0.00    +0.000 C 
ATOM     11  O   UNL     1       2.059  10.710  18.123  0.00  0.00    +0.000 OA
ATOM     12  N   UNL     1       0.471   9.569  19.429  0.00  0.00    +0.000 N 
ENDROOT
BRANCH   7  13
ATOM     13  C   UNL     1       4.830   6.198  17.354  0.00  0.00    +0.000 A 
ATOM     14  C   UNL     1       6.191   6.184  17.705  0.00  0.00    +0.000 A 
ATOM     15  C   UNL     1       7.182   5.905  16.766  0.00  0.00    +0.000 A 
ATOM     16  C   UNL     1       6.810   5.627  15.458  0.00  0.00    +0.000 A 
ATOM     17  C   UNL     1       5.469   5.608  15.089  0.00  0.00    +0.000 A 
ATOM     18  C   UNL     1       4.474   5.900  16.035  0.00  0.00    +0.000 A 
BRANCH  16  19
ATOM     19  O   UNL     1       7.752   5.387  14.502  0.00  0.00    +0.000 OA
ATOM     20  H   UNL     1       7.426   5.739  13.657  0.00  0.00    +0.000 HD
ENDBRANCH  16  19
ENDBRANCH   7  13
BRANCH   8  21
ATOM     21  C   UNL     1       3.351   4.393  19.204  0.00  0.00    +0.000 A 
ATOM     22  C   UNL     1       4.343   3.753  19.965  0.00  0.00    +0.000 A 
ATOM     23  C   UNL     1       4.565   2.379  19.822  0.00  0.00    +0.000 A 
ATOM     24  C   UNL     1       3.804   1.644  18.913  0.00  0.00    +0.000 A 
ATOM     25  C   UNL     1       2.813   2.259  18.163  0.00  0.00    +0.000 A 
ATOM     26  C   UNL     1       2.587   3.627  18.311  0.00  0.00    +0.000 A 
BRANCH  24  27
ATOM     27  O   UNL     1       4.012   0.312  18.713  0.00  0.00    +0.000 OA
ATOM     28  H   UNL     1       4.818   0.199  18.182  0.00  0.00    +0.000 HD
ENDBRANCH  24  27
ENDBRANCH   8  21
BRANCH  12  29
ATOM     29  C   UNL     1      -0.667  10.414  19.224  0.00  0.00    +0.000 A 
ATOM     30  C   UNL     1      -1.520  10.240  18.123  0.00  0.00    +0.000 A 
ATOM     31  C   UNL     1      -2.671  11.025  17.959  0.00  0.00    +0.000 A 
ATOM     32  C   UNL     1      -2.980  12.022  18.878  0.00  0.00    +0.000 A 
ATOM     33  C   UNL     1      -2.132  12.238  19.958  0.00  0.00    +0.000 A 
ATOM     34  C   UNL     1      -0.994  11.439  20.130  0.00  0.00    +0.000 A 
ENDBRANCH  12  29
TORSDOF 5
ENDMDL
MODEL 5
REMARK VINA RESULT:      -7.0      0.773      1.460
REMARK  Name = 
REMARK  5 active torsions:
REMARK  status: ('A' for Active; 'I' for Inactive)
REMARK    1  A    between atoms: C_7  and  C_8
REMARK    2  A    between atoms: C_11  and  O_12
REMARK    3  A    between atoms: C_15  and  C_16
REMARK    4  A    between atoms: C_19  and  O_20
REMARK    5  A    between atoms: N_26  and  C_27
REMARK                            x       y       z     vdW  Elec       q    Type
REMARK                         _______ _______ _______ _____ _____    ______ ____
ROOT
ATOM      1  O   UNL     1       3.039  11.362  17.482  0.00  0.00    +0.000 OA
ATOM      2  C   UNL     1       2.119  10.650  17.863  0.00  0.00    +0.000 C 
ATOM      3  C   UNL     1       2.053   9.185  17.500  0.00  0.00    +0.000 C 
ATOM      4  C   UNL     1       3.149   8.395  18.226  0.00  0.00    +0.000 C 
ATOM      5  O   UNL     1       2.584   8.413  19.576  0.00  0.00    +0.000 OA
ATOM      6  C   UNL     1       1.344   7.716  19.237  0.00  0.00    +0.000 C 
ATOM      7  C   UNL     1       1.958   6.472  18.635  0.00  0.00    +0.000 C 
ATOM      8  C   UNL     1       3.076   6.894  17.989  0.00  0.00    +0.000 C 
ATOM      9  C   UNL     1       0.792   8.683  18.196  0.00  0.00    +0.000 C 
ATOM     10  C   UNL     1       0.244   9.884  18.914  0.00  0.00    +0.000 C 
ATOM     11  O   UNL     1      -0.793   9.817  19.565  0.00  0.00    +0.000 OA
ATOM     12  N   UNL     1       1.059  10.973  18.690  0.00  0.00    +0.000 N 
ENDROOT
BRANCH   7  13
ATOM     13  C   UNL     1       1.856   5.173  19.327  0.00  0.00    +0.000 A 
ATOM     14  C   UNL     1       2.023   5.173  20.722  0.00  0.00    +0.000 A 
ATOM     15  C   UNL     1       2.108   3.983  21.444  0.00  0.00    +0.000 A 
ATOM     16  C   UNL     1       2.015   2.777  20.766  0.00  0.00    +0.000 A 
ATOM     17  C   UNL     1       1.822   2.748  19.388  0.00  0.00    +0.000 A 
ATOM     18  C   UNL     1       1.748   3.947  18.663  0.00  0.00    +0.000 A 
BRANCH  16  19
ATOM     19  O   UNL     1       2.132   1.593  21.432  0.00  0.00    +0.000 OA
ATOM     20  H   UNL     1       1.934   0.872  20.810  0.00  0.00    +0.000 HD
ENDBRANCH  16  19
ENDBRANCH   7  13
BRANCH   8  21
ATOM     21  C   UNL     1       4.291   6.072  17.867  0.00  0.00    +0.000 A 
ATOM     22  C   UNL     1       5.151   5.836  18.952  0.00  0.00    +0.000 A 
ATOM     23  C   UNL     1       6.369   5.178  18.755  0.00  0.00    +0.000 A 
ATOM     24  C   UNL     1       6.736   4.762  17.476  0.00  0.00    +0.000 A 
ATOM     25  C   UNL     1       5.892   4.977  16.396  0.00  0.00    +0.000 A 
ATOM     26  C   UNL     1       4.674   5.627  16.593  0.00  0.00    +0.000 A 
BRANCH  24  27
ATOM     27  O   UNL     1       7.929   4.152  17.231  0.00  0.00    +0.000 OA
ATOM     28  H   UNL     1       8.515   4.298  17.992  0.00  0.00    +0.000 HD
ENDBRANCH  24  27
ENDBRANCH   8  21
BRANCH  12  29
ATOM     29  C   UNL     1       0.817  12.273  19.240  0.00  0.00    +0.000 A 
ATOM     30  C   UNL     1       0.107  13.250  18.525  0.00  0.00    +0.000 A 
ATOM     31  C   UNL     1      -0.187  14.500  19.091  0.00  0.00    +0.000 A 
ATOM     32  C   UNL     1       0.248  14.811  20.374  0.00  0.00    +0.000 A 
ATOM     33  C   UNL     1       0.983  13.874  21.090  0.00  0.00    +0.000 A 
ATOM     34  C   UNL     1       1.258  12.619  20.530  0.00  0.00    +0.000 A 
ENDBRANCH  12  29
TORSDOF 5
ENDMDL
MODEL 6
REMARK VINA RESULT:      -7.0      0.997      1.628
REMARK  Name = 
REMARK  5 active torsions:
REMARK  status: ('A' for Active; 'I' for Inactive)
REMARK    1  A    between atoms: C_7  and  C_8
REMARK    2  A    between atoms: C_11  and  O_12
REMARK    3  A    between atoms: C_15  and  C_16
REMARK    4  A    between atoms: C_19  and  O_20
REMARK    5  A    between atoms: N_26  and  C_27
REMARK                            x       y       z     vdW  Elec       q    Type
REMARK                         _______ _______ _______ _____ _____    ______ ____
ROOT
ATOM      1  O   UNL     1       2.868  11.217  17.341  0.00  0.00    +0.000 OA
ATOM      2  C   UNL     1       2.012  10.520  17.872  0.00  0.00    +0.000 C 
ATOM      3  C   UNL     1       1.942   9.031  17.627  0.00  0.00    +0.000 C 
ATOM      4  C   UNL     1       3.129   8.315  18.282  0.00  0.00    +0.000 C 
ATOM      5  O   UNL     1       2.716   8.426  19.682  0.00  0.00    +0.000 OA
ATOM      6  C   UNL     1       1.463   7.686  19.534  0.00  0.00    +0.000 C 
ATOM      7  C   UNL     1       2.037   6.410  18.961  0.00  0.00    +0.000 C 
ATOM      8  C   UNL     1       3.067   6.801  18.165  0.00  0.00    +0.000 C 
ATOM      9  C   UNL     1       0.777   8.563  18.494  0.00  0.00    +0.000 C 
ATOM     10  C   UNL     1       0.283   9.806  19.179  0.00  0.00    +0.000 C 
ATOM     11  O   UNL     1      -0.674   9.771  19.944  0.00  0.00    +0.000 OA
ATOM     12  N   UNL     1       1.041  10.888  18.787  0.00  0.00    +0.000 N 
ENDROOT
BRANCH   7  13
ATOM     13  C   UNL     1       2.043   5.166  19.752  0.00  0.00    +0.000 A 
ATOM     14  C   UNL     1       1.374   4.055  19.209  0.00  0.00    +0.000 A 
ATOM     15  C   UNL     1       1.182   2.889  19.948  0.00  0.00    +0.000 A 
ATOM     16  C   UNL     1       1.673   2.825  21.244  0.00  0.00    +0.000 A 
ATOM     17  C   UNL     1       2.362   3.900  21.797  0.00  0.00    +0.000 A 
ATOM     18  C   UNL     1       2.544   5.077  21.054  0.00  0.00    +0.000 A 
BRANCH  16  19
ATOM     19  O   UNL     1       1.472   1.716  22.011  0.00  0.00    +0.000 OA
ATOM     20  H   UNL     1       0.567   1.395  21.853  0.00  0.00    +0.000 HD
ENDBRANCH  16  19
ENDBRANCH   7  13
BRANCH   8  21
ATOM     21  C   UNL     1       4.281   5.991  17.969  0.00  0.00    +0.000 A 
ATOM     22  C   UNL     1       5.268   5.865  18.960  0.00  0.00    +0.000 A 
ATOM     23  C   UNL     1       6.473   5.212  18.676  0.00  0.00    +0.000 A 
ATOM     24  C   UNL     1       6.697   4.692  17.401  0.00  0.00    +0.000 A 
ATOM     25  C   UNL     1       5.727   4.798  16.416  0.00  0.00    +0.000 A 
ATOM     26  C   UNL     1       4.524   5.443  16.701  0.00  0.00    +0.000 A 
BRANCH  24  27
ATOM     27  O   UNL     1       7.870   4.083  17.069  0.00  0.00    +0.000 OA
ATOM     28  H   UNL     1       7.711   3.130  16.978  0.00  0.00    +0.000 HD
ENDBRANCH  24  27
ENDBRANCH   8  21
BRANCH  12  29
ATOM     29  C   UNL     1       0.830  12.222  19.264  0.00  0.00    +0.000 A 
ATOM     30  C   UNL     1       1.486  12.703  20.408  0.00  0.00    +0.000 A 
ATOM     31  C   UNL     1       1.329  14.030  20.835  0.00  0.00    +0.000 A 
ATOM     32  C   UNL     1       0.490  14.898  20.144  0.00  0.00    +0.000 A 
ATOM     33  C   UNL     1      -0.198  14.435  19.029  0.00  0.00    +0.000 A 
ATOM     34  C   UNL     1      -0.024  13.115  18.593  0.00  0.00    +0.000 A 
ENDBRANCH  12  29
TORSDOF 5
ENDMDL
MODEL 7
REMARK VINA RESULT:      -6.9      5.476      7.773
REMARK  Name = 
REMARK  5 active torsions:
REMARK  status: ('A' for Active; 'I' for Inactive)
REMARK    1  A    between atoms: C_7  and  C_8
REMARK    2  A    between atoms: C_11  and  O_12
REMARK    3  A    between atoms: C_15  and  C_16
REMARK    4  A    between atoms: C_19  and  O_20
REMARK    5  A    between atoms: N_26  and  C_27
REMARK                            x       y       z     vdW  Elec       q    Type
REMARK                         _______ _______ _______ _____ _____    ______ ____
ROOT
ATOM      1  O   UNL     1       3.333  15.644  16.912  0.00  0.00    +0.000 OA
ATOM      2  C   UNL     1       3.341  15.434  18.119  0.00  0.00    +0.000 C 
ATOM      3  C   UNL     1       2.088  15.030  18.858  0.00  0.00    +0.000 C 
ATOM      4  C   UNL     1       1.663  13.607  18.473  0.00  0.00    +0.000 C 
ATOM      5  O   UNL     1       2.704  12.861  19.182  0.00  0.00    +0.000 OA
ATOM      6  C   UNL     1       2.360  13.344  20.519  0.00  0.00    +0.000 C 
ATOM      7  C   UNL     1       0.909  12.916  20.532  0.00  0.00    +0.000 C 
ATOM      8  C   UNL     1       0.467  13.095  19.259  0.00  0.00    +0.000 C 
ATOM      9  C   UNL     1       2.548  14.840  20.300  0.00  0.00    +0.000 C 
ATOM     10  C   UNL     1       4.022  15.130  20.275  0.00  0.00    +0.000 C 
ATOM     11  O   UNL     1       4.696  15.081  21.298  0.00  0.00    +0.000 OA
ATOM     12  N   UNL     1       4.413  15.452  18.993  0.00  0.00    +0.000 N 
ENDROOT
BRANCH   7  13
ATOM     13  C   UNL     1       0.457  11.819  21.407  0.00  0.00    +0.000 A 
ATOM     14  C   UNL     1       1.086  10.571  21.252  0.00  0.00    +0.000 A 
ATOM     15  C   UNL     1       0.621   9.435  21.913  0.00  0.00    +0.000 A 
ATOM     16  C   UNL     1      -0.483   9.546  22.747  0.00  0.00    +0.000 A 
ATOM     17  C   UNL     1      -1.108  10.774  22.938  0.00  0.00    +0.000 A 
ATOM     18  C   UNL     1      -0.644  11.914  22.263  0.00  0.00    +0.000 A 
BRANCH  16  19
ATOM     19  O   UNL     1      -0.990   8.451  23.380  0.00  0.00    +0.000 OA
ATOM     20  H   UNL     1      -0.263   8.004  23.847  0.00  0.00    +0.000 HD
ENDBRANCH  16  19
ENDBRANCH   7  13
BRANCH   8  21
ATOM     21  C   UNL     1      -0.555  12.237  18.637  0.00  0.00    +0.000 A 
ATOM     22  C   UNL     1      -1.925  12.543  18.687  0.00  0.00    +0.000 A 
ATOM     23  C   UNL     1      -2.870  11.625  18.216  0.00  0.00    +0.000 A 
ATOM     24  C   UNL     1      -2.451  10.398  17.704  0.00  0.00    +0.000 A 
ATOM     25  C   UNL     1      -1.101  10.086  17.638  0.00  0.00    +0.000 A 
ATOM     26  C   UNL     1      -0.159  11.004  18.100  0.00  0.00    +0.000 A 
BRANCH  24  27
ATOM     27  O   UNL     1      -3.337   9.458  17.271  0.00  0.00    +0.000 OA
ATOM     28  H   UNL     1      -3.501   8.829  17.991  0.00  0.00    +0.000 HD
ENDBRANCH  24  27
ENDBRANCH   8  21
BRANCH  12  29
ATOM     29  C   UNL     1       5.760  15.776  18.631  0.00  0.00    +0.000 A 
ATOM     30  C   UNL     1       6.304  17.043  18.895  0.00  0.00    +0.000 A 
ATOM     31  C   UNL     1       7.644  17.338  18.600  0.00  0.00    +0.000 A 
ATOM     32  C   UNL     1       8.461  16.382  18.007  0.00  0.00    +0.000 A 
ATOM     33  C   UNL     1       7.936  15.132  17.703  0.00  0.00    +0.000 A 
ATOM     34  C   UNL     1       6.603  14.833  18.017  0.00  0.00    +0.000 A 
ENDBRANCH  12  29
TORSDOF 5
ENDMDL
MODEL 8
REMARK VINA RESULT:      -6.6      3.852     10.790
REMARK  Name = 
REMARK  5 active torsions:
REMARK  status: ('A' for Active; 'I' for Inactive)
REMARK    1  A    between atoms: C_7  and  C_8
REMARK    2  A    between atoms: C_11  and  O_12
REMARK    3  A    between atoms: C_15  and  C_16
REMARK    4  A    between atoms: C_19  and  O_20
REMARK    5  A    between atoms: N_26  and  C_27
REMARK                            x       y       z     vdW  Elec       q    Type
REMARK                         _______ _______ _______ _____ _____    ______ ____
ROOT
ATOM      1  O   UNL     1      -1.656  10.004  18.546  0.00  0.00    +0.000 OA
ATOM      2  C   UNL     1      -0.880  10.868  18.935  0.00  0.00    +0.000 C 
ATOM      3  C   UNL     1      -1.358  12.254  19.295  0.00  0.00    +0.000 C 
ATOM      4  C   UNL     1      -2.191  12.227  20.582  0.00  0.00    +0.000 C 
ATOM      5  O   UNL     1      -1.111  12.003  21.546  0.00  0.00    +0.000 OA
ATOM      6  C   UNL     1      -0.368  13.223  21.233  0.00  0.00    +0.000 C 
ATOM      7  C   UNL     1      -1.479  14.218  21.483  0.00  0.00    +0.000 C 
ATOM      8  C   UNL     1      -2.617  13.605  21.062  0.00  0.00    +0.000 C 
ATOM      9  C   UNL     1      -0.095  12.978  19.754  0.00  0.00    +0.000 C 
ATOM     10  C   UNL     1       0.998  11.954  19.641  0.00  0.00    +0.000 C 
ATOM     11  O   UNL     1       2.159  12.231  19.924  0.00  0.00    +0.000 OA
ATOM     12  N   UNL     1       0.478  10.765  19.178  0.00  0.00    +0.000 N 
ENDROOT
BRANCH   7  13
ATOM     13  C   UNL     1      -1.424  15.133  22.639  0.00  0.00    +0.000 A 
ATOM     14  C   UNL     1      -1.257  14.555  23.909  0.00  0.00    +0.000 A 
ATOM     15  C   UNL     1      -1.357  15.315  25.073  0.00  0.00    +0.000 A 
ATOM     16  C   UNL     1      -1.618  16.674  24.969  0.00  0.00    +0.000 A 
ATOM     17  C   UNL     1      -1.762  17.276  23.723  0.00  0.00    +0.000 A 
ATOM     18  C   UNL     1      -1.672  16.506  22.553  0.00  0.00    +0.000 A 
BRANCH  16  19
ATOM     19  O   UNL     1      -1.761  17.443  26.085  0.00  0.00    +0.000 OA
ATOM     20  H   UNL     1      -1.696  16.865  26.864  0.00  0.00    +0.000 HD
ENDBRANCH  16  19
ENDBRANCH   7  13
BRANCH   8  21
ATOM     21  C   UNL     1      -3.930  13.833  21.688  0.00  0.00    +0.000 A 
ATOM     22  C   UNL     1      -4.445  12.987  22.683  0.00  0.00    +0.000 A 
ATOM     23  C   UNL     1      -5.757  13.153  23.139  0.00  0.00    +0.000 A 
ATOM     24  C   UNL     1      -6.559  14.158  22.598  0.00  0.00    +0.000 A 
ATOM     25  C   UNL     1      -6.060  15.009  21.623  0.00  0.00    +0.000 A 
ATOM     26  C   UNL     1      -4.750  14.848  21.173  0.00  0.00    +0.000 A 
BRANCH  24  27
ATOM     27  O   UNL     1      -7.854  14.332  22.984  0.00  0.00    +0.000 OA
ATOM     28  H   UNL     1      -8.297  14.906  22.339  0.00  0.00    +0.000 HD
ENDBRANCH  24  27
ENDBRANCH   8  21
BRANCH  12  29
ATOM     29  C   UNL     1       1.260   9.585  18.964  0.00  0.00    +0.000 A 
ATOM     30  C   UNL     1       1.452   8.638  19.984  0.00  0.00    +0.000 A 
ATOM     31  C   UNL     1       2.162   7.451  19.753  0.00  0.00    +0.000 A 
ATOM     32  C   UNL     1       2.722   7.196  18.506  0.00  0.00    +0.000 A 
ATOM     33  C   UNL     1       2.577   8.133  17.490  0.00  0.00    +0.000 A 
ATOM     34  C   UNL     1       1.849   9.310  17.717  0.00  0.00    +0.000 A 
ENDBRANCH  12  29
TORSDOF 5
ENDMDL
MODEL 9
REMARK VINA RESULT:      -6.4      4.237     11.193
REMARK  Name = 
REMARK  5 active torsions:
REMARK  status: ('A' for Active; 'I' for Inactive)
REMARK    1  A    between atoms: C_7  and  C_8
REMARK    2  A    between atoms: C_11  and  O_12
REMARK    3  A    between atoms: C_15  and  C_16
REMARK    4  A    between atoms: C_19  and  O_20
REMARK    5  A    between atoms: N_26  and  C_27
REMARK                            x       y       z     vdW  Elec       q    Type
REMARK                         _______ _______ _______ _____ _____    ______ ____
ROOT
ATOM      1  O   UNL     1      -1.845  10.930  18.878  0.00  0.00    +0.000 OA
ATOM      2  C   UNL     1      -1.017  11.631  19.447  0.00  0.00    +0.000 C 
ATOM      3  C   UNL     1      -1.365  13.013  19.947  0.00  0.00    +0.000 C 
ATOM      4  C   UNL     1      -2.326  12.936  21.140  0.00  0.00    +0.000 C 
ATOM      5  O   UNL     1      -1.387  12.458  22.156  0.00  0.00    +0.000 OA
ATOM      6  C   UNL     1      -0.477  13.601  22.078  0.00  0.00    +0.000 C 
ATOM      7  C   UNL     1      -1.484  14.693  22.360  0.00  0.00    +0.000 C 
ATOM      8  C   UNL     1      -2.635  14.289  21.761  0.00  0.00    +0.000 C 
ATOM      9  C   UNL     1      -0.082  13.506  20.609  0.00  0.00    +0.000 C 
ATOM     10  C   UNL     1       0.890  12.370  20.457  0.00  0.00    +0.000 C 
ATOM     11  O   UNL     1       2.039  12.457  20.876  0.00  0.00    +0.000 OA
ATOM     12  N   UNL     1       0.286  11.324  19.793  0.00  0.00    +0.000 N 
ENDROOT
BRANCH   7  13
ATOM     13  C   UNL     1      -1.444  15.444  23.628  0.00  0.00    +0.000 A 
ATOM     14  C   UNL     1      -1.123  16.811  23.556  0.00  0.00    +0.000 A 
ATOM     15  C   UNL     1      -0.900  17.567  24.706  0.00  0.00    +0.000 A 
ATOM     16  C   UNL     1      -1.006  16.954  25.946  0.00  0.00    +0.000 A 
ATOM     17  C   UNL     1      -1.348  15.609  26.047  0.00  0.00    +0.000 A 
ATOM     18  C   UNL     1      -1.562  14.848  24.888  0.00  0.00    +0.000 A 
BRANCH  16  19
ATOM     19  O   UNL     1      -0.757  17.651  27.091  0.00  0.00    +0.000 OA
ATOM     20  H   UNL     1      -1.572  18.115  27.349  0.00  0.00    +0.000 HD
ENDBRANCH  16  19
ENDBRANCH   7  13
BRANCH   8  21
ATOM     21  C   UNL     1      -3.971  14.607  22.293  0.00  0.00    +0.000 A 
ATOM     22  C   UNL     1      -4.720  13.686  23.042  0.00  0.00    +0.000 A 
ATOM     23  C   UNL     1      -6.042  13.975  23.397  0.00  0.00    +0.000 A 
ATOM     24  C   UNL     1      -6.621  15.179  22.997  0.00  0.00    +0.000 A 
ATOM     25  C   UNL     1      -5.889  16.104  22.267  0.00  0.00    +0.000 A 
ATOM     26  C   UNL     1      -4.570  15.819  21.919  0.00  0.00    +0.000 A 
BRANCH  24  27
ATOM     27  O   UNL     1      -7.916  15.486  23.286  0.00  0.00    +0.000 OA
ATOM     28  H   UNL     1      -8.376  14.674  23.555  0.00  0.00    +0.000 HD
ENDBRANCH  24  27
ENDBRANCH   8  21
BRANCH  12  29
ATOM     29  C   UNL     1       0.943  10.088  19.493  0.00  0.00    +0.000 A 
ATOM     30  C   UNL     1       1.568   9.872  18.255  0.00  0.00    +0.000 A 
ATOM     31  C   UNL     1       2.269   8.686  17.987  0.00  0.00    +0.000 A 
ATOM     32  C   UNL     1       2.334   7.677  18.941  0.00  0.00    +0.000 A 
ATOM     33  C   UNL     1       1.693   7.851  20.161  0.00  0.00    +0.000 A 
ATOM     34  C   UNL     1       1.011   9.045  20.434  0.00  0.00    +0.000 A 
ENDBRANCH  12  29
TORSDOF 5
ENDMDL
