MODEL 1
REMARK VINA RESULT:      -7.4      0.000      0.000
REMARK  Name = 
REMARK  8 active torsions:
REMARK  status: ('A' for Active; 'I' for Inactive)
REMARK    1  A    between atoms: C_1  and  C_2
REMARK    2  A    between atoms: C_2  and  C_4
REMARK    3  A    between atoms: C_5  and  O_6
REMARK    4  A    between atoms: C_8  and  O_9
REMARK    5  A    between atoms: C_8  and  N_10
REMARK    6  A    between atoms: N_10  and  C_11
REMARK    7  A    between atoms: C_14  and  N_15
REMARK    8  A    between atoms: C_16  and  O_17
REMARK                            x       y       z     vdW  Elec       q    Type
REMARK                         _______ _______ _______ _____ _____    ______ ____
ROOT
ATOM      1  C   UNL     1       0.853   9.742  21.110  0.00  0.00    +0.000 C 
ATOM      2  C   UNL     1       1.443   8.572  20.822  0.00  0.00    +0.000 C 
ATOM      3  C   UNL     1       1.855   8.245  19.472  0.00  0.00    +0.000 C 
ATOM      4  C   UNL     1       2.429   7.066  19.100  0.00  0.00    +0.000 C 
ATOM      5  C   UNL     1       1.632   9.275  18.425  0.00  0.00    +0.000 C 
ATOM      6  O   UNL     1       1.972   9.119  17.256  0.00  0.00    +0.000 OA
ATOM      7  O   UNL     1       1.038  10.430  18.785  0.00  0.00    +0.000 OA
ATOM      8  C   UNL     1       0.668  10.722  20.039  0.00  0.00    +0.000 C 
ATOM      9  O   UNL     1       0.182  11.827  20.284  0.00  0.00    +0.000 OA
ENDROOT
BRANCH   1  11
ATOM     10  C   UNL     1      -1.043  10.399  22.750  0.00  0.00    +0.000 C 
ATOM     11  C   UNL     1       0.377   9.966  22.506  0.00  0.00    +0.000 C 
ATOM     12  O   UNL     1       1.119   9.680  23.452  0.00  0.00    +0.000 OA
ENDBRANCH   1  11
BRANCH   2  13
ATOM     13  O   UNL     1       1.696   7.594  21.782  0.00  0.00    +0.000 OA
ATOM     14  H   UNL     1       1.574   7.983  22.683  0.00  0.00    +0.000 HD
ENDBRANCH   2  13
BRANCH   4  15
ATOM     15  O   UNL     1       2.681   6.084  20.045  0.00  0.00    +0.000 OA
ATOM     16  H   UNL     1       2.600   5.210  19.619  0.00  0.00    +0.000 HD
ENDBRANCH   4  15
BRANCH   4  17
ATOM     17  N   UNL     1       2.850   6.744  17.825  0.00  0.00    +0.000 N 
ATOM     18  H   UNL     1       2.252   7.071  17.062  0.00  0.00    +0.000 HD
BRANCH  17  19
ATOM     19  C   UNL     1       4.056   6.140  17.421  0.00  0.00    +0.000 A 
ATOM     20  C   UNL     1       4.191   4.753  17.288  0.00  0.00    +0.000 A 
ATOM     21  C   UNL     1       5.433   4.157  17.039  0.00  0.00    +0.000 A 
ATOM     22  C   UNL     1       6.570   4.939  16.869  0.00  0.00    +0.000 A 
ATOM     23  C   UNL     1       6.438   6.326  17.015  0.00  0.00    +0.000 A 
ATOM     24  C   UNL     1       5.203   6.925  17.268  0.00  0.00    +0.000 A 
BRANCH  22  25
ATOM     25  N   UNL     1       7.832   4.318  16.785  0.00  0.00    +0.000 N 
ATOM     26  H   UNL     1       8.588   4.952  17.035  0.00  0.00    +0.000 HD
ATOM     27  H   UNL     1       7.910   3.452  17.305  0.00  0.00    +0.000 HD
ENDBRANCH  22  25
BRANCH  23  28
ATOM     28  O   UNL     1       7.535   7.144  16.956  0.00  0.00    +0.000 OA
ATOM     29  H   UNL     1       7.230   8.008  17.277  0.00  0.00    +0.000 HD
ENDBRANCH  23  28
ENDBRANCH  17  19
ENDBRANCH   4  17
TORSDOF 7
ENDMDL
MODEL 2
REMARK VINA RESULT:      -7.3      2.258      2.521
REMARK  Name = 
REMARK  8 active torsions:
REMARK  status: ('A' for Active; 'I' for Inactive)
REMARK    1  A    between atoms: C_1  and  C_2
REMARK    2  A    between atoms: C_2  and  C_4
REMARK    3  A    between atoms: C_5  and  O_6
REMARK    4  A    between atoms: C_8  and  O_9
REMARK    5  A    between atoms: C_8  and  N_10
REMARK    6  A    between atoms: N_10  and  C_11
REMARK    7  A    between atoms: C_14  and  N_15
REMARK    8  A    between atoms: C_16  and  O_17
REMARK                            x       y       z     vdW  Elec       q    Type
REMARK                         _______ _______ _______ _____ _____    ______ ____
ROOT
ATOM      1  C   UNL     1       0.280  10.720  20.611  0.00  0.00    +0.000 C 
ATOM      2  C   UNL     1       0.794   9.488  20.741  0.00  0.00    +0.000 C 
ATOM      3  C   UNL     1       1.488   8.840  19.646  0.00  0.00    +0.000 C 
ATOM      4  C   UNL     1       2.008   7.580  19.694  0.00  0.00    +0.000 C 
ATOM      5  C   UNL     1       1.641   9.611  18.385  0.00  0.00    +0.000 C 
ATOM      6  O   UNL     1       2.239   9.174  17.407  0.00  0.00    +0.000 OA
ATOM      7  O   UNL     1       1.102  10.845  18.326  0.00  0.00    +0.000 OA
ATOM      8  C   UNL     1       0.469  11.435  19.348  0.00  0.00    +0.000 C 
ATOM      9  O   UNL     1       0.059  12.590  19.219  0.00  0.00    +0.000 OA
ENDROOT
BRANCH   1  11
ATOM     10  C   UNL     1      -1.855  11.885  21.507  0.00  0.00    +0.000 C 
ATOM     11  C   UNL     1      -0.498  11.282  21.753  0.00  0.00    +0.000 C 
ATOM     12  O   UNL     1      -0.071  11.140  22.904  0.00  0.00    +0.000 OA
ENDBRANCH   1  11
BRANCH   2  13
ATOM     13  O   UNL     1       0.698   8.745  21.916  0.00  0.00    +0.000 OA
ATOM     14  H   UNL     1       1.375   9.067  22.560  0.00  0.00    +0.000 HD
ENDBRANCH   2  13
BRANCH   4  15
ATOM     15  O   UNL     1       1.913   6.830  20.856  0.00  0.00    +0.000 OA
ATOM     16  H   UNL     1       2.044   7.421  21.622  0.00  0.00    +0.000 HD
ENDBRANCH   4  15
BRANCH   4  17
ATOM     17  N   UNL     1       2.692   6.953  18.671  0.00  0.00    +0.000 N 
ATOM     18  H   UNL     1       3.211   7.568  18.040  0.00  0.00    +0.000 HD
BRANCH  17  19
ATOM     19  C   UNL     1       2.882   5.576  18.452  0.00  0.00    +0.000 A 
ATOM     20  C   UNL     1       1.878   4.757  17.924  0.00  0.00    +0.000 A 
ATOM     21  C   UNL     1       2.025   3.366  17.858  0.00  0.00    +0.000 A 
ATOM     22  C   UNL     1       3.203   2.760  18.277  0.00  0.00    +0.000 A 
ATOM     23  C   UNL     1       4.203   3.578  18.819  0.00  0.00    +0.000 A 
ATOM     24  C   UNL     1       4.060   4.964  18.891  0.00  0.00    +0.000 A 
BRANCH  22  25
ATOM     25  N   UNL     1       3.269   1.354  18.358  0.00  0.00    +0.000 N 
ATOM     26  H   UNL     1       2.995   1.010  19.275  0.00  0.00    +0.000 HD
ATOM     27  H   UNL     1       2.759   0.867  17.631  0.00  0.00    +0.000 HD
ENDBRANCH  22  25
BRANCH  23  28
ATOM     28  O   UNL     1       5.348   3.034  19.338  0.00  0.00    +0.000 OA
ATOM     29  H   UNL     1       6.033   3.712  19.218  0.00  0.00    +0.000 HD
ENDBRANCH  23  28
ENDBRANCH  17  19
ENDBRANCH   4  17
TORSDOF 7
ENDMDL
MODEL 3
REMARK VINA RESULT:      -7.2      2.512      3.665
REMARK  Name = 
REMARK  8 active torsions:
REMARK  status: ('A' for Active; 'I' for Inactive)
REMARK    1  A    between atoms: C_1  and  C_2
REMARK    2  A    between atoms: C_2  and  C_4
REMARK    3  A    between atoms: C_5  and  O_6
REMARK    4  A    between atoms: C_8  and  O_9
REMARK    5  A    between atoms: C_8  and  N_10
REMARK    6  A    between atoms: N_10  and  C_11
REMARK    7  A    between atoms: C_14  and  N_15
REMARK    8  A    between atoms: C_16  and  O_17
REMARK                            x       y       z     vdW  Elec       q    Type
REMARK                         _______ _______ _______ _____ _____    ______ ____
ROOT
ATOM      1  C   UNL     1       0.157  10.872  19.328  0.00  0.00    +0.000 C 
ATOM      2  C   UNL     1       0.994   9.990  18.763  0.00  0.00    +0.000 C 
ATOM      3  C   UNL     1       1.457   8.819  19.481  0.00  0.00    +0.000 C 
ATOM      4  C   UNL     1       2.331   7.899  18.984  0.00  0.00    +0.000 C 
ATOM      5  C   UNL     1       0.935   8.615  20.857  0.00  0.00    +0.000 C 
ATOM      6  O   UNL     1       1.233   7.642  21.543  0.00  0.00    +0.000 OA
ATOM      7  O   UNL     1       0.093   9.540  21.361  0.00  0.00    +0.000 OA
ATOM      8  C   UNL     1      -0.331  10.614  20.683  0.00  0.00    +0.000 C 
ATOM      9  O   UNL     1      -1.147  11.375  21.207  0.00  0.00    +0.000 OA
ENDROOT
BRANCH   1  11
ATOM     10  C   UNL     1      -1.568  12.217  17.937  0.00  0.00    +0.000 C 
ATOM     11  C   UNL     1      -0.202  12.097  18.556  0.00  0.00    +0.000 C 
ATOM     12  O   UNL     1       0.584  13.050  18.535  0.00  0.00    +0.000 OA
ENDBRANCH   1  11
BRANCH   2  13
ATOM     13  O   UNL     1       1.482  10.131  17.465  0.00  0.00    +0.000 OA
ATOM     14  H   UNL     1       1.067  10.925  17.046  0.00  0.00    +0.000 HD
ENDBRANCH   2  13
BRANCH   4  15
ATOM     15  O   UNL     1       2.826   8.032  17.695  0.00  0.00    +0.000 OA
ATOM     16  H   UNL     1       3.102   8.958  17.560  0.00  0.00    +0.000 HD
ENDBRANCH   4  15
BRANCH   4  17
ATOM     17  N   UNL     1       2.766   6.765  19.642  0.00  0.00    +0.000 N 
ATOM     18  H   UNL     1       2.896   6.859  20.652  0.00  0.00    +0.000 HD
BRANCH  17  19
ATOM     19  C   UNL     1       2.933   5.463  19.137  0.00  0.00    +0.000 A 
ATOM     20  C   UNL     1       1.936   4.812  18.401  0.00  0.00    +0.000 A 
ATOM     21  C   UNL     1       2.051   3.464  18.040  0.00  0.00    +0.000 A 
ATOM     22  C   UNL     1       3.192   2.741  18.368  0.00  0.00    +0.000 A 
ATOM     23  C   UNL     1       4.184   3.387  19.117  0.00  0.00    +0.000 A 
ATOM     24  C   UNL     1       4.072   4.729  19.482  0.00  0.00    +0.000 A 
BRANCH  22  25
ATOM     25  N   UNL     1       3.220   1.350  18.144  0.00  0.00    +0.000 N 
ATOM     26  H   UNL     1       2.288   0.941  18.163  0.00  0.00    +0.000 HD
ATOM     27  H   UNL     1       3.712   1.069  17.304  0.00  0.00    +0.000 HD
ENDBRANCH  22  25
BRANCH  23  28
ATOM     28  O   UNL     1       5.288   2.705  19.555  0.00  0.00    +0.000 OA
ATOM     29  H   UNL     1       4.942   1.966  20.081  0.00  0.00    +0.000 HD
ENDBRANCH  23  28
ENDBRANCH  17  19
ENDBRANCH   4  17
TORSDOF 7
ENDMDL
MODEL 4
REMARK VINA RESULT:      -7.2      2.811      4.496
REMARK  Name = 
REMARK  8 active torsions:
REMARK  status: ('A' for Active; 'I' for Inactive)
REMARK    1  A    between atoms: C_1  and  C_2
REMARK    2  A    between atoms: C_2  and  C_4
REMARK    3  A    between atoms: C_5  and  O_6
REMARK    4  A    between atoms: C_8  and  O_9
REMARK    5  A    between atoms: C_8  and  N_10
REMARK    6  A    between atoms: N_10  and  C_11
REMARK    7  A    between atoms: C_14  and  N_15
REMARK    8  A    between atoms: C_16  and  O_17
REMARK                            x       y       z     vdW  Elec       q    Type
REMARK                         _______ _______ _______ _____ _____    ______ ____
ROOT
ATOM      1  C   UNL     1       0.044  11.143  19.399  0.00  0.00    +0.000 C 
ATOM      2  C   UNL     1       0.848  10.227  18.837  0.00  0.00    +0.000 C 
ATOM      3  C   UNL     1       1.297   9.063  19.574  0.00  0.00    +0.000 C 
ATOM      4  C   UNL     1       2.137   8.109  19.081  0.00  0.00    +0.000 C 
ATOM      5  C   UNL     1       0.802   8.905  20.966  0.00  0.00    +0.000 C 
ATOM      6  O   UNL     1       1.091   7.942  21.670  0.00  0.00    +0.000 OA
ATOM      7  O   UNL     1      -0.006   9.862  21.465  0.00  0.00    +0.000 OA
ATOM      8  C   UNL     1      -0.419  10.931  20.771  0.00  0.00    +0.000 C 
ATOM      9  O   UNL     1      -1.203  11.724  21.293  0.00  0.00    +0.000 OA
ENDROOT
BRANCH   1  11
ATOM     10  C   UNL     1       0.567  13.583  18.700  0.00  0.00    +0.000 C 
ATOM     11  C   UNL     1      -0.301  12.358  18.605  0.00  0.00    +0.000 C 
ATOM     12  O   UNL     1      -1.227  12.304  17.789  0.00  0.00    +0.000 OA
ENDBRANCH   1  11
BRANCH   2  13
ATOM     13  O   UNL     1       1.309  10.324  17.526  0.00  0.00    +0.000 OA
ATOM     14  H   UNL     1       1.786  11.183  17.413  0.00  0.00    +0.000 HD
ENDBRANCH   2  13
BRANCH   4  15
ATOM     15  O   UNL     1       2.607   8.198  17.780  0.00  0.00    +0.000 OA
ATOM     16  H   UNL     1       3.257   7.486  17.631  0.00  0.00    +0.000 HD
ENDBRANCH   4  15
BRANCH   4  17
ATOM     17  N   UNL     1       2.559   6.981  19.758  0.00  0.00    +0.000 N 
ATOM     18  H   UNL     1       3.077   7.149  20.623  0.00  0.00    +0.000 HD
BRANCH  17  19
ATOM     19  C   UNL     1       2.264   5.632  19.491  0.00  0.00    +0.000 A 
ATOM     20  C   UNL     1       2.295   5.101  18.196  0.00  0.00    +0.000 A 
ATOM     21  C   UNL     1       1.848   3.801  17.925  0.00  0.00    +0.000 A 
ATOM     22  C   UNL     1       1.401   2.980  18.953  0.00  0.00    +0.000 A 
ATOM     23  C   UNL     1       1.357   3.515  20.246  0.00  0.00    +0.000 A 
ATOM     24  C   UNL     1       1.797   4.811  20.521  0.00  0.00    +0.000 A 
BRANCH  22  25
ATOM     25  N   UNL     1       0.804   1.742  18.641  0.00  0.00    +0.000 N 
ATOM     26  H   UNL     1      -0.168   1.847  18.358  0.00  0.00    +0.000 HD
ATOM     27  H   UNL     1       1.312   1.189  17.961  0.00  0.00    +0.000 HD
ENDBRANCH  22  25
BRANCH  23  28
ATOM     28  O   UNL     1       0.837   2.792  21.287  0.00  0.00    +0.000 OA
ATOM     29  H   UNL     1       1.404   2.992  22.049  0.00  0.00    +0.000 HD
ENDBRANCH  23  28
ENDBRANCH  17  19
ENDBRANCH   4  17
TORSDOF 7
ENDMDL
MODEL 5
REMARK VINA RESULT:      -7.2      1.456      2.795
REMARK  Name = 
REMARK  8 active torsions:
REMARK  status: ('A' for Active; 'I' for Inactive)
REMARK    1  A    between atoms: C_1  and  C_2
REMARK    2  A    between atoms: C_2  and  C_4
REMARK    3  A    between atoms: C_5  and  O_6
REMARK    4  A    between atoms: C_8  and  O_9
REMARK    5  A    between atoms: C_8  and  N_10
REMARK    6  A    between atoms: N_10  and  C_11
REMARK    7  A    between atoms: C_14  and  N_15
REMARK    8  A    between atoms: C_16  and  O_17
REMARK                            x       y       z     vdW  Elec       q    Type
REMARK                         _______ _______ _______ _____ _____    ______ ____
ROOT
ATOM      1  C   UNL     1       0.728  10.729  20.835  0.00  0.00    +0.000 C 
ATOM      2  C   UNL     1       1.166  10.227  19.670  0.00  0.00    +0.000 C 
ATOM      3  C   UNL     1       1.556   8.837  19.545  0.00  0.00    +0.000 C 
ATOM      4  C   UNL     1       2.038   8.267  18.404  0.00  0.00    +0.000 C 
ATOM      5  C   UNL     1       1.415   7.980  20.750  0.00  0.00    +0.000 C 
ATOM      6  O   UNL     1       1.683   6.782  20.748  0.00  0.00    +0.000 OA
ATOM      7  O   UNL     1       0.966   8.549  21.886  0.00  0.00    +0.000 OA
ATOM      8  C   UNL     1       0.602   9.834  21.986  0.00  0.00    +0.000 C 
ATOM      9  O   UNL     1       0.149  10.252  23.053  0.00  0.00    +0.000 OA
ENDROOT
BRANCH   1  11
ATOM     10  C   UNL     1      -0.988  12.670  20.783  0.00  0.00    +0.000 C 
ATOM     11  C   UNL     1       0.432  12.189  20.907  0.00  0.00    +0.000 C 
ATOM     12  O   UNL     1       1.342  12.978  21.185  0.00  0.00    +0.000 OA
ENDBRANCH   1  11
BRANCH   2  13
ATOM     13  O   UNL     1       1.283  10.992  18.512  0.00  0.00    +0.000 OA
ATOM     14  H   UNL     1       0.579  11.686  18.508  0.00  0.00    +0.000 HD
ENDBRANCH   2  13
BRANCH   4  15
ATOM     15  O   UNL     1       2.164   9.020  17.247  0.00  0.00    +0.000 OA
ATOM     16  H   UNL     1       1.572   8.648  16.566  0.00  0.00    +0.000 HD
ENDBRANCH   4  15
BRANCH   4  17
ATOM     17  N   UNL     1       2.393   6.940  18.257  0.00  0.00    +0.000 N 
ATOM     18  H   UNL     1       1.618   6.279  18.166  0.00  0.00    +0.000 HD
BRANCH  17  19
ATOM     19  C   UNL     1       3.675   6.385  18.084  0.00  0.00    +0.000 A 
ATOM     20  C   UNL     1       4.567   6.849  17.110  0.00  0.00    +0.000 A 
ATOM     21  C   UNL     1       5.772   6.188  16.844  0.00  0.00    +0.000 A 
ATOM     22  C   UNL     1       6.140   5.068  17.580  0.00  0.00    +0.000 A 
ATOM     23  C   UNL     1       5.242   4.595  18.545  0.00  0.00    +0.000 A 
ATOM     24  C   UNL     1       4.037   5.247  18.811  0.00  0.00    +0.000 A 
BRANCH  22  25
ATOM     25  N   UNL     1       7.271   4.323  17.190  0.00  0.00    +0.000 N 
ATOM     26  H   UNL     1       8.112   4.894  17.155  0.00  0.00    +0.000 HD
ATOM     27  H   UNL     1       7.434   3.487  17.738  0.00  0.00    +0.000 HD
ENDBRANCH  22  25
BRANCH  23  28
ATOM     28  O   UNL     1       5.500   3.441  19.237  0.00  0.00    +0.000 OA
ATOM     29  H   UNL     1       4.711   3.283  19.779  0.00  0.00    +0.000 HD
ENDBRANCH  23  28
ENDBRANCH  17  19
ENDBRANCH   4  17
TORSDOF 7
ENDMDL
MODEL 6
REMARK VINA RESULT:      -7.0      2.846      4.259
REMARK  Name = 
REMARK  8 active torsions:
REMARK  status: ('A' for Active; 'I' for Inactive)
REMARK    1  A    between atoms: C_1  and  C_2
REMARK    2  A    between atoms: C_2  and  C_4
REMARK    3  A    between atoms: C_5  and  O_6
REMARK    4  A    between atoms: C_8  and  O_9
REMARK    5  A    between atoms: C_8  and  N_10
REMARK    6  A    between atoms: N_10  and  C_11
REMARK    7  A    between atoms: C_14  and  N_15
REMARK    8  A    between atoms: C_16  and  O_17
REMARK                            x       y       z     vdW  Elec       q    Type
REMARK                         _______ _______ _______ _____ _____    ______ ____
ROOT
ATOM      1  C   UNL     1       0.054  11.166  19.402  0.00  0.00    +0.000 C 
ATOM      2  C   UNL     1       0.852  10.239  18.850  0.00  0.00    +0.000 C 
ATOM      3  C   UNL     1       1.261   9.060  19.586  0.00  0.00    +0.000 C 
ATOM      4  C   UNL     1       2.093   8.094  19.103  0.00  0.00    +0.000 C 
ATOM      5  C   UNL     1       0.731   8.900  20.965  0.00  0.00    +0.000 C 
ATOM      6  O   UNL     1       0.985   7.925  21.666  0.00  0.00    +0.000 OA
ATOM      7  O   UNL     1      -0.069   9.869  21.454  0.00  0.00    +0.000 OA
ATOM      8  C   UNL     1      -0.445  10.951  20.760  0.00  0.00    +0.000 C 
ATOM      9  O   UNL     1      -1.225  11.755  21.272  0.00  0.00    +0.000 OA
ENDROOT
BRANCH   1  11
ATOM     10  C   UNL     1       0.634  13.605  18.746  0.00  0.00    +0.000 C 
ATOM     11  C   UNL     1      -0.249  12.395  18.611  0.00  0.00    +0.000 C 
ATOM     12  O   UNL     1      -1.151  12.364  17.768  0.00  0.00    +0.000 OA
ENDBRANCH   1  11
BRANCH   2  13
ATOM     13  O   UNL     1       1.345  10.339  17.551  0.00  0.00    +0.000 OA
ATOM     14  H   UNL     1       0.641  10.062  16.914  0.00  0.00    +0.000 HD
ENDBRANCH   2  13
BRANCH   4  15
ATOM     15  O   UNL     1       2.594   8.185  17.813  0.00  0.00    +0.000 OA
ATOM     16  H   UNL     1       1.850   8.134  17.184  0.00  0.00    +0.000 HD
ENDBRANCH   4  15
BRANCH   4  17
ATOM     17  N   UNL     1       2.477   6.952  19.779  0.00  0.00    +0.000 N 
ATOM     18  H   UNL     1       3.048   7.099  20.614  0.00  0.00    +0.000 HD
BRANCH  17  19
ATOM     19  C   UNL     1       2.085   5.620  19.551  0.00  0.00    +0.000 A 
ATOM     20  C   UNL     1       1.640   4.784  20.583  0.00  0.00    +0.000 A 
ATOM     21  C   UNL     1       1.403   3.420  20.371  0.00  0.00    +0.000 A 
ATOM     22  C   UNL     1       1.561   2.864  19.107  0.00  0.00    +0.000 A 
ATOM     23  C   UNL     1       2.019   3.697  18.078  0.00  0.00    +0.000 A 
ATOM     24  C   UNL     1       2.261   5.056  18.284  0.00  0.00    +0.000 A 
BRANCH  22  25
ATOM     25  N   UNL     1       1.479   1.466  18.950  0.00  0.00    +0.000 N 
ATOM     26  H   UNL     1       1.970   0.969  19.690  0.00  0.00    +0.000 HD
ATOM     27  H   UNL     1       0.537   1.108  18.848  0.00  0.00    +0.000 HD
ENDBRANCH  22  25
BRANCH  23  28
ATOM     28  O   UNL     1       2.287   3.190  16.834  0.00  0.00    +0.000 OA
ATOM     29  H   UNL     1       2.124   2.236  16.903  0.00  0.00    +0.000 HD
ENDBRANCH  23  28
ENDBRANCH  17  19
ENDBRANCH   4  17
TORSDOF 7
ENDMDL
MODEL 7
REMARK VINA RESULT:      -6.9      1.358      2.672
REMARK  Name = 
REMARK  8 active torsions:
REMARK  status: ('A' for Active; 'I' for Inactive)
REMARK    1  A    between atoms: C_1  and  C_2
REMARK    2  A    between atoms: C_2  and  C_4
REMARK    3  A    between atoms: C_5  and  O_6
REMARK    4  A    between atoms: C_8  and  O_9
REMARK    5  A    between atoms: C_8  and  N_10
REMARK    6  A    between atoms: N_10  and  C_11
REMARK    7  A    between atoms: C_14  and  N_15
REMARK    8  A    between atoms: C_16  and  O_17
REMARK                            x       y       z     vdW  Elec       q    Type
REMARK                         _______ _______ _______ _____ _____    ______ ____
ROOT
ATOM      1  C   UNL     1       0.511  10.121  20.375  0.00  0.00    +0.000 C 
ATOM      2  C   UNL     1       1.144   9.627  19.300  0.00  0.00    +0.000 C 
ATOM      3  C   UNL     1       1.698   8.288  19.299  0.00  0.00    +0.000 C 
ATOM      4  C   UNL     1       2.381   7.732  18.258  0.00  0.00    +0.000 C 
ATOM      5  C   UNL     1       1.502   7.469  20.523  0.00  0.00    +0.000 C 
ATOM      6  O   UNL     1       1.899   6.312  20.620  0.00  0.00    +0.000 OA
ATOM      7  O   UNL     1       0.853   8.028  21.564  0.00  0.00    +0.000 OA
ATOM      8  C   UNL     1       0.340   9.266  21.549  0.00  0.00    +0.000 C 
ATOM      9  O   UNL     1      -0.287   9.671  22.529  0.00  0.00    +0.000 OA
ENDROOT
BRANCH   1  11
ATOM     10  C   UNL     1       0.930  12.629  20.877  0.00  0.00    +0.000 C 
ATOM     11  C   UNL     1       0.049  11.539  20.330  0.00  0.00    +0.000 C 
ATOM     12  O   UNL     1      -0.999  11.815  19.736  0.00  0.00    +0.000 OA
ENDBRANCH   1  11
BRANCH   2  13
ATOM     13  O   UNL     1       1.322  10.353  18.124  0.00  0.00    +0.000 OA
ATOM     14  H   UNL     1       0.614  10.106  17.480  0.00  0.00    +0.000 HD
ENDBRANCH   2  13
BRANCH   4  15
ATOM     15  O   UNL     1       2.567   8.446  17.085  0.00  0.00    +0.000 OA
ATOM     16  H   UNL     1       3.515   8.428  16.854  0.00  0.00    +0.000 HD
ENDBRANCH   4  15
BRANCH   4  17
ATOM     17  N   UNL     1       2.895   6.450  18.227  0.00  0.00    +0.000 N 
ATOM     18  H   UNL     1       2.211   5.694  18.300  0.00  0.00    +0.000 HD
BRANCH  17  19
ATOM     19  C   UNL     1       4.218   6.037  17.980  0.00  0.00    +0.000 A 
ATOM     20  C   UNL     1       4.652   5.636  16.711  0.00  0.00    +0.000 A 
ATOM     21  C   UNL     1       5.922   5.080  16.512  0.00  0.00    +0.000 A 
ATOM     22  C   UNL     1       6.811   4.954  17.572  0.00  0.00    +0.000 A 
ATOM     23  C   UNL     1       6.373   5.343  18.845  0.00  0.00    +0.000 A 
ATOM     24  C   UNL     1       5.107   5.893  19.049  0.00  0.00    +0.000 A 
BRANCH  22  25
ATOM     25  N   UNL     1       8.015   4.245  17.387  0.00  0.00    +0.000 N 
ATOM     26  H   UNL     1       7.989   3.327  17.824  0.00  0.00    +0.000 HD
ATOM     27  H   UNL     1       8.314   4.169  16.422  0.00  0.00    +0.000 HD
ENDBRANCH  22  25
BRANCH  23  28
ATOM     28  O   UNL     1       7.165   5.156  19.947  0.00  0.00    +0.000 OA
ATOM     29  H   UNL     1       6.912   5.857  20.568  0.00  0.00    +0.000 HD
ENDBRANCH  23  28
ENDBRANCH  17  19
ENDBRANCH   4  17
TORSDOF 7
ENDMDL
MODEL 8
REMARK VINA RESULT:      -6.9      2.299      2.917
REMARK  Name = 
REMARK  8 active torsions:
REMARK  status: ('A' for Active; 'I' for Inactive)
REMARK    1  A    between atoms: C_1  and  C_2
REMARK    2  A    between atoms: C_2  and  C_4
REMARK    3  A    between atoms: C_5  and  O_6
REMARK    4  A    between atoms: C_8  and  O_9
REMARK    5  A    between atoms: C_8  and  N_10
REMARK    6  A    between atoms: N_10  and  C_11
REMARK    7  A    between atoms: C_14  and  N_15
REMARK    8  A    between atoms: C_16  and  O_17
REMARK                            x       y       z     vdW  Elec       q    Type
REMARK                         _______ _______ _______ _____ _____    ______ ____
ROOT
ATOM      1  C   UNL     1       0.423  10.725  20.391  0.00  0.00    +0.000 C 
ATOM      2  C   UNL     1       0.867   9.486  20.650  0.00  0.00    +0.000 C 
ATOM      3  C   UNL     1       1.549   8.700  19.641  0.00  0.00    +0.000 C 
ATOM      4  C   UNL     1       1.998   7.426  19.821  0.00  0.00    +0.000 C 
ATOM      5  C   UNL     1       1.769   9.338  18.317  0.00  0.00    +0.000 C 
ATOM      6  O   UNL     1       2.363   8.779  17.400  0.00  0.00    +0.000 OA
ATOM      7  O   UNL     1       1.299  10.587  18.127  0.00  0.00    +0.000 OA
ATOM      8  C   UNL     1       0.676  11.304  19.072  0.00  0.00    +0.000 C 
ATOM      9  O   UNL     1       0.332  12.461  18.823  0.00  0.00    +0.000 OA
ENDROOT
BRANCH   1  11
ATOM     10  C   UNL     1      -1.704  12.005  21.137  0.00  0.00    +0.000 C 
ATOM     11  C   UNL     1      -0.348  11.433  21.454  0.00  0.00    +0.000 C 
ATOM     12  O   UNL     1       0.083  11.439  22.612  0.00  0.00    +0.000 OA
ENDBRANCH   1  11
BRANCH   2  13
ATOM     13  O   UNL     1       0.706   8.865  21.887  0.00  0.00    +0.000 OA
ATOM     14  H   UNL     1       0.344   9.519  22.534  0.00  0.00    +0.000 HD
ENDBRANCH   2  13
BRANCH   4  15
ATOM     15  O   UNL     1       1.839   6.797  21.047  0.00  0.00    +0.000 OA
ATOM     16  H   UNL     1       2.481   6.065  21.108  0.00  0.00    +0.000 HD
ENDBRANCH   4  15
BRANCH   4  17
ATOM     17  N   UNL     1       2.670   6.669  18.881  0.00  0.00    +0.000 N 
ATOM     18  H   UNL     1       3.063   7.187  18.091  0.00  0.00    +0.000 HD
BRANCH  17  19
ATOM     19  C   UNL     1       3.001   5.303  18.923  0.00  0.00    +0.000 A 
ATOM     20  C   UNL     1       4.291   4.854  19.233  0.00  0.00    +0.000 A 
ATOM     21  C   UNL     1       4.645   3.504  19.118  0.00  0.00    +0.000 A 
ATOM     22  C   UNL     1       3.703   2.557  18.734  0.00  0.00    +0.000 A 
ATOM     23  C   UNL     1       2.417   3.007  18.411  0.00  0.00    +0.000 A 
ATOM     24  C   UNL     1       2.059   4.352  18.519  0.00  0.00    +0.000 A 
BRANCH  22  25
ATOM     25  N   UNL     1       4.118   1.237  18.465  0.00  0.00    +0.000 N 
ATOM     26  H   UNL     1       4.684   1.178  17.622  0.00  0.00    +0.000 HD
ATOM     27  H   UNL     1       4.585   0.777  19.238  0.00  0.00    +0.000 HD
ENDBRANCH  22  25
BRANCH  23  28
ATOM     28  O   UNL     1       1.470   2.140  17.934  0.00  0.00    +0.000 OA
ATOM     29  H   UNL     1       0.618   2.581  18.081  0.00  0.00    +0.000 HD
ENDBRANCH  23  28
ENDBRANCH  17  19
ENDBRANCH   4  17
TORSDOF 7
ENDMDL
MODEL 9
REMARK VINA RESULT:      -6.9      2.949      3.562
REMARK  Name = 
REMARK  8 active torsions:
REMARK  status: ('A' for Active; 'I' for Inactive)
REMARK    1  A    between atoms: C_1  and  C_2
REMARK    2  A    between atoms: C_2  and  C_4
REMARK    3  A    between atoms: C_5  and  O_6
REMARK    4  A    between atoms: C_8  and  O_9
REMARK    5  A    between atoms: C_8  and  N_10
REMARK    6  A    between atoms: N_10  and  C_11
REMARK    7  A    between atoms: C_14  and  N_15
REMARK    8  A    between atoms: C_16  and  O_17
REMARK                            x       y       z     vdW  Elec       q    Type
REMARK                         _______ _______ _______ _____ _____    ______ ____
ROOT
ATOM      1  C   UNL     1      -0.125  11.420  20.499  0.00  0.00    +0.000 C 
ATOM      2  C   UNL     1       0.504  10.326  20.955  0.00  0.00    +0.000 C 
ATOM      3  C   UNL     1       1.068   9.346  20.049  0.00  0.00    +0.000 C 
ATOM      4  C   UNL     1       1.691   8.197  20.438  0.00  0.00    +0.000 C 
ATOM      5  C   UNL     1       0.956   9.621  18.593  0.00  0.00    +0.000 C 
ATOM      6  O   UNL     1       1.426   8.878  17.738  0.00  0.00    +0.000 OA
ATOM      7  O   UNL     1       0.315  10.742  18.206  0.00  0.00    +0.000 OA
ATOM      8  C   UNL     1      -0.197  11.643  19.055  0.00  0.00    +0.000 C 
ATOM      9  O   UNL     1      -0.716  12.667  18.608  0.00  0.00    +0.000 OA
ENDROOT
BRANCH   1  11
ATOM     10  C   UNL     1      -2.250  12.321  21.677  0.00  0.00    +0.000 C 
ATOM     11  C   UNL     1      -0.757  12.335  21.494  0.00  0.00    +0.000 C 
ATOM     12  O   UNL     1      -0.037  13.007  22.240  0.00  0.00    +0.000 OA
ENDBRANCH   1  11
BRANCH   2  13
ATOM     13  O   UNL     1       0.656  10.048  22.312  0.00  0.00    +0.000 OA
ATOM     14  H   UNL     1       1.447   9.469  22.439  0.00  0.00    +0.000 HD
ENDBRANCH   2  13
BRANCH   4  15
ATOM     15  O   UNL     1       1.844   7.908  21.786  0.00  0.00    +0.000 OA
ATOM     16  H   UNL     1       1.731   6.947  21.915  0.00  0.00    +0.000 HD
ENDBRANCH   4  15
BRANCH   4  17
ATOM     17  N   UNL     1       2.256   7.262  19.592  0.00  0.00    +0.000 N 
ATOM     18  H   UNL     1       3.085   7.570  19.079  0.00  0.00    +0.000 HD
BRANCH  17  19
ATOM     19  C   UNL     1       1.927   5.903  19.435  0.00  0.00    +0.000 A 
ATOM     20  C   UNL     1       1.539   5.098  20.513  0.00  0.00    +0.000 A 
ATOM     21  C   UNL     1       1.367   3.715  20.370  0.00  0.00    +0.000 A 
ATOM     22  C   UNL     1       1.533   3.107  19.132  0.00  0.00    +0.000 A 
ATOM     23  C   UNL     1       1.935   3.910  18.057  0.00  0.00    +0.000 A 
ATOM     24  C   UNL     1       2.112   5.288  18.194  0.00  0.00    +0.000 A 
BRANCH  22  25
ATOM     25  N   UNL     1       1.518   1.701  19.043  0.00  0.00    +0.000 N 
ATOM     26  H   UNL     1       2.146   1.268  19.717  0.00  0.00    +0.000 HD
ATOM     27  H   UNL     1       0.596   1.285  19.101  0.00  0.00    +0.000 HD
ENDBRANCH  22  25
BRANCH  23  28
ATOM     28  O   UNL     1       2.210   3.358  16.834  0.00  0.00    +0.000 OA
ATOM     29  H   UNL     1       1.588   3.776  16.216  0.00  0.00    +0.000 HD
ENDBRANCH  23  28
ENDBRANCH  17  19
ENDBRANCH   4  17
TORSDOF 7
ENDMDL
