MODEL 1
REMARK VINA RESULT:      -7.0      0.000      0.000
REMARK  Name = 
REMARK  9 active torsions:
REMARK  status: ('A' for Active; 'I' for Inactive)
REMARK    1  A    between atoms: C_1  and  N_2
REMARK    2  A    between atoms: N_2  and  C_3
REMARK    3  A    between atoms: N_2  and  C_4
REMARK    4  A    between atoms: C_4  and  C_5
REMARK    5  A    between atoms: C_5  and  N_6
REMARK    6  A    between atoms: N_6  and  C_7
REMARK    7  A    between atoms: C_7  and  C_8
REMARK    8  A    between atoms: C_13  and  S_14
REMARK    9  A    between atoms: S_14  and  C_15
REMARK                            x       y       z     vdW  Elec       q    Type
REMARK                         _______ _______ _______ _____ _____    ______ ____
ROOT
ATOM      1  C   UNL     1       3.834   4.207  18.617  0.00  0.00    +0.000 A 
ATOM      2  C   UNL     1       3.847   3.071  17.778  0.00  0.00    +0.000 A 
ATOM      3  C   UNL     1       2.707   2.292  17.591  0.00  0.00    +0.000 A 
ATOM      4  C   UNL     1       1.531   2.627  18.243  0.00  0.00    +0.000 A 
ATOM      5  C   UNL     1       1.498   3.742  19.084  0.00  0.00    +0.000 A 
ATOM      6  C   UNL     1       2.637   4.544  19.284  0.00  0.00    +0.000 A 
ENDROOT
BRANCH   1   7
ATOM      7  C   UNL     1       5.141   4.937  18.831  0.00  0.00    +0.000 C 
BRANCH   7   8
ATOM      8  N   UNL     1       6.303   4.041  18.729  0.00  0.00    +0.000 NA
ATOM      9  H   UNL     1       6.774   4.033  19.637  0.00  0.00    +0.000 HD
BRANCH   8  10
ATOM     10  C   UNL     1       7.285   4.557  17.763  0.00  0.00    +0.000 C 
BRANCH  10  11
ATOM     11  C   UNL     1       6.945   5.959  17.200  0.00  0.00    +0.000 C 
BRANCH  11  13
ATOM     12  C   UNL     1       6.984   4.684  15.134  0.00  0.00    +0.000 C 
ATOM     13  N   UNL     1       6.660   5.976  15.744  0.00  0.00    +0.000 NA
ATOM     14  C   UNL     1       5.242   6.282  15.529  0.00  0.00    +0.000 C 
ENDBRANCH  11  13
ENDBRANCH  10  11
ENDBRANCH   8  10
ENDBRANCH   7   8
ENDBRANCH   1   7
BRANCH   6  15
ATOM     15  S   UNL     1       2.486   5.813  20.537  0.00  0.00    +0.000 S 
BRANCH  15  16
ATOM     16  C   UNL     1       2.120   7.340  19.686  0.00  0.00    +0.000 A 
ATOM     17  C   UNL     1       2.500   7.611  18.367  0.00  0.00    +0.000 A 
ATOM     18  C   UNL     1       2.122   8.811  17.749  0.00  0.00    +0.000 A 
ATOM     19  C   UNL     1       1.357   9.752  18.433  0.00  0.00    +0.000 A 
ATOM     20  C   UNL     1       0.972   9.502  19.746  0.00  0.00    +0.000 A 
ATOM     21  C   UNL     1       1.351   8.304  20.355  0.00  0.00    +0.000 A 
ATOM     22  F   UNL     1       0.948   8.099  21.624  0.00  0.00    +0.000 F 
ENDBRANCH  15  16
ENDBRANCH   6  15
TORSDOF 7
ENDMDL
MODEL 2
REMARK VINA RESULT:      -6.9      3.337      6.262
REMARK  Name = 
REMARK  9 active torsions:
REMARK  status: ('A' for Active; 'I' for Inactive)
REMARK    1  A    between atoms: C_1  and  N_2
REMARK    2  A    between atoms: N_2  and  C_3
REMARK    3  A    between atoms: N_2  and  C_4
REMARK    4  A    between atoms: C_4  and  C_5
REMARK    5  A    between atoms: C_5  and  N_6
REMARK    6  A    between atoms: N_6  and  C_7
REMARK    7  A    between atoms: C_7  and  C_8
REMARK    8  A    between atoms: C_13  and  S_14
REMARK    9  A    between atoms: S_14  and  C_15
REMARK                            x       y       z     vdW  Elec       q    Type
REMARK                         _______ _______ _______ _____ _____    ______ ____
ROOT
ATOM      1  C   UNL     1       2.265   5.264  19.723  0.00  0.00    +0.000 A 
ATOM      2  C   UNL     1       1.445   4.713  20.733  0.00  0.00    +0.000 A 
ATOM      3  C   UNL     1       1.239   3.339  20.832  0.00  0.00    +0.000 A 
ATOM      4  C   UNL     1       1.843   2.486  19.922  0.00  0.00    +0.000 A 
ATOM      5  C   UNL     1       2.652   3.010  18.911  0.00  0.00    +0.000 A 
ATOM      6  C   UNL     1       2.875   4.395  18.795  0.00  0.00    +0.000 A 
ENDROOT
BRANCH   1   7
ATOM      7  C   UNL     1       2.356   6.772  19.638  0.00  0.00    +0.000 C 
BRANCH   7   8
ATOM      8  N   UNL     1       2.072   7.421  20.927  0.00  0.00    +0.000 NA
ATOM      9  H   UNL     1       1.630   6.730  21.537  0.00  0.00    +0.000 HD
BRANCH   8  10
ATOM     10  C   UNL     1       1.095   8.508  20.767  0.00  0.00    +0.000 C 
BRANCH  10  11
ATOM     11  C   UNL     1       0.689   9.197  22.094  0.00  0.00    +0.000 C 
BRANCH  11  13
ATOM     12  C   UNL     1       0.654  11.119  20.611  0.00  0.00    +0.000 C 
ATOM     13  N   UNL     1       0.586  10.674  22.005  0.00  0.00    +0.000 NA
ATOM     14  C   UNL     1      -0.681  11.110  22.601  0.00  0.00    +0.000 C 
ENDBRANCH  11  13
ENDBRANCH  10  11
ENDBRANCH   8  10
ENDBRANCH   7   8
ENDBRANCH   1   7
BRANCH   6  15
ATOM     15  S   UNL     1       3.771   4.920  17.336  0.00  0.00    +0.000 S 
BRANCH  15  16
ATOM     16  C   UNL     1       5.347   5.547  17.895  0.00  0.00    +0.000 A 
ATOM     17  C   UNL     1       5.987   5.124  19.066  0.00  0.00    +0.000 A 
ATOM     18  C   UNL     1       7.253   5.621  19.405  0.00  0.00    +0.000 A 
ATOM     19  C   UNL     1       7.899   6.540  18.582  0.00  0.00    +0.000 A 
ATOM     20  C   UNL     1       7.278   6.974  17.416  0.00  0.00    +0.000 A 
ATOM     21  C   UNL     1       6.018   6.474  17.083  0.00  0.00    +0.000 A 
ATOM     22  F   UNL     1       5.457   6.915  15.940  0.00  0.00    +0.000 F 
ENDBRANCH  15  16
ENDBRANCH   6  15
TORSDOF 7
ENDMDL
MODEL 3
REMARK VINA RESULT:      -6.9      0.842      1.215
REMARK  Name = 
REMARK  9 active torsions:
REMARK  status: ('A' for Active; 'I' for Inactive)
REMARK    1  A    between atoms: C_1  and  N_2
REMARK    2  A    between atoms: N_2  and  C_3
REMARK    3  A    between atoms: N_2  and  C_4
REMARK    4  A    between atoms: C_4  and  C_5
REMARK    5  A    between atoms: C_5  and  N_6
REMARK    6  A    between atoms: N_6  and  C_7
REMARK    7  A    between atoms: C_7  and  C_8
REMARK    8  A    between atoms: C_13  and  S_14
REMARK    9  A    between atoms: S_14  and  C_15
REMARK                            x       y       z     vdW  Elec       q    Type
REMARK                         _______ _______ _______ _____ _____    ______ ____
ROOT
ATOM      1  C   UNL     1       3.720   4.062  18.835  0.00  0.00    +0.000 A 
ATOM      2  C   UNL     1       3.719   2.895  18.038  0.00  0.00    +0.000 A 
ATOM      3  C   UNL     1       2.557   2.154  17.837  0.00  0.00    +0.000 A 
ATOM      4  C   UNL     1       1.372   2.558  18.431  0.00  0.00    +0.000 A 
ATOM      5  C   UNL     1       1.352   3.704  19.229  0.00  0.00    +0.000 A 
ATOM      6  C   UNL     1       2.514   4.469  19.443  0.00  0.00    +0.000 A 
ENDROOT
BRANCH   1   7
ATOM      7  C   UNL     1       5.047   4.749  19.072  0.00  0.00    +0.000 C 
BRANCH   7   8
ATOM      8  N   UNL     1       6.187   3.910  18.675  0.00  0.00    +0.000 NA
ATOM      9  H   UNL     1       6.779   3.773  19.497  0.00  0.00    +0.000 HD
BRANCH   8  10
ATOM     10  C   UNL     1       7.026   4.595  17.679  0.00  0.00    +0.000 C 
BRANCH  10  11
ATOM     11  C   UNL     1       7.534   5.988  18.128  0.00  0.00    +0.000 C 
BRANCH  11  13
ATOM     12  C   UNL     1       5.885   7.168  16.794  0.00  0.00    +0.000 C 
ATOM     13  N   UNL     1       7.306   7.067  17.137  0.00  0.00    +0.000 NA
ATOM     14  C   UNL     1       7.771   8.343  17.690  0.00  0.00    +0.000 C 
ENDBRANCH  11  13
ENDBRANCH  10  11
ENDBRANCH   8  10
ENDBRANCH   7   8
ENDBRANCH   1   7
BRANCH   6  15
ATOM     15  S   UNL     1       2.368   5.789  20.643  0.00  0.00    +0.000 S 
BRANCH  15  16
ATOM     16  C   UNL     1       2.093   7.295  19.725  0.00  0.00    +0.000 A 
ATOM     17  C   UNL     1       2.489   7.485  18.396  0.00  0.00    +0.000 A 
ATOM     18  C   UNL     1       2.182   8.677  17.724  0.00  0.00    +0.000 A 
ATOM     19  C   UNL     1       1.474   9.690  18.364  0.00  0.00    +0.000 A 
ATOM     20  C   UNL     1       1.074   9.521  19.685  0.00  0.00    +0.000 A 
ATOM     21  C   UNL     1       1.381   8.332  20.347  0.00  0.00    +0.000 A 
ATOM     22  F   UNL     1       0.966   8.207  21.623  0.00  0.00    +0.000 F 
ENDBRANCH  15  16
ENDBRANCH   6  15
TORSDOF 7
ENDMDL
MODEL 4
REMARK VINA RESULT:      -6.8      1.696      2.306
REMARK  Name = 
REMARK  9 active torsions:
REMARK  status: ('A' for Active; 'I' for Inactive)
REMARK    1  A    between atoms: C_1  and  N_2
REMARK    2  A    between atoms: N_2  and  C_3
REMARK    3  A    between atoms: N_2  and  C_4
REMARK    4  A    between atoms: C_4  and  C_5
REMARK    5  A    between atoms: C_5  and  N_6
REMARK    6  A    between atoms: N_6  and  C_7
REMARK    7  A    between atoms: C_7  and  C_8
REMARK    8  A    between atoms: C_13  and  S_14
REMARK    9  A    between atoms: S_14  and  C_15
REMARK                            x       y       z     vdW  Elec       q    Type
REMARK                         _______ _______ _______ _____ _____    ______ ____
ROOT
ATOM      1  C   UNL     1       2.745   3.860  17.960  0.00  0.00    +0.000 A 
ATOM      2  C   UNL     1       2.040   2.644  17.814  0.00  0.00    +0.000 A 
ATOM      3  C   UNL     1       1.116   2.221  18.768  0.00  0.00    +0.000 A 
ATOM      4  C   UNL     1       0.882   3.000  19.890  0.00  0.00    +0.000 A 
ATOM      5  C   UNL     1       1.574   4.202  20.058  0.00  0.00    +0.000 A 
ATOM      6  C   UNL     1       2.508   4.649  19.105  0.00  0.00    +0.000 A 
ENDROOT
BRANCH   1   7
ATOM      7  C   UNL     1       3.793   4.192  16.921  0.00  0.00    +0.000 C 
BRANCH   7   8
ATOM      8  N   UNL     1       5.047   3.457  17.140  0.00  0.00    +0.000 NA
ATOM      9  H   UNL     1       5.316   3.578  18.119  0.00  0.00    +0.000 HD
BRANCH   8  10
ATOM     10  C   UNL     1       6.142   4.030  16.342  0.00  0.00    +0.000 C 
BRANCH  10  11
ATOM     11  C   UNL     1       7.311   4.598  17.184  0.00  0.00    +0.000 C 
BRANCH  11  13
ATOM     12  C   UNL     1       7.718   5.728  19.294  0.00  0.00    +0.000 C 
ATOM     13  N   UNL     1       6.934   5.736  18.057  0.00  0.00    +0.000 NA
ATOM     14  C   UNL     1       7.159   6.996  17.339  0.00  0.00    +0.000 C 
ENDBRANCH  11  13
ENDBRANCH  10  11
ENDBRANCH   8  10
ENDBRANCH   7   8
ENDBRANCH   1   7
BRANCH   6  15
ATOM     15  S   UNL     1       3.450   6.102  19.559  0.00  0.00    +0.000 S 
BRANCH  15  16
ATOM     16  C   UNL     1       2.345   7.498  19.422  0.00  0.00    +0.000 A 
ATOM     17  C   UNL     1       1.587   8.004  20.485  0.00  0.00    +0.000 A 
ATOM     18  C   UNL     1       0.787   9.142  20.311  0.00  0.00    +0.000 A 
ATOM     19  C   UNL     1       0.737   9.793  19.082  0.00  0.00    +0.000 A 
ATOM     20  C   UNL     1       1.480   9.304  18.013  0.00  0.00    +0.000 A 
ATOM     21  C   UNL     1       2.276   8.171  18.193  0.00  0.00    +0.000 A 
ATOM     22  F   UNL     1       2.987   7.738  17.134  0.00  0.00    +0.000 F 
ENDBRANCH  15  16
ENDBRANCH   6  15
TORSDOF 7
ENDMDL
MODEL 5
REMARK VINA RESULT:      -6.8      1.367      1.864
REMARK  Name = 
REMARK  9 active torsions:
REMARK  status: ('A' for Active; 'I' for Inactive)
REMARK    1  A    between atoms: C_1  and  N_2
REMARK    2  A    between atoms: N_2  and  C_3
REMARK    3  A    between atoms: N_2  and  C_4
REMARK    4  A    between atoms: C_4  and  C_5
REMARK    5  A    between atoms: C_5  and  N_6
REMARK    6  A    between atoms: N_6  and  C_7
REMARK    7  A    between atoms: C_7  and  C_8
REMARK    8  A    between atoms: C_13  and  S_14
REMARK    9  A    between atoms: S_14  and  C_15
REMARK                            x       y       z     vdW  Elec       q    Type
REMARK                         _______ _______ _______ _____ _____    ______ ____
ROOT
ATOM      1  C   UNL     1       2.654   3.743  17.950  0.00  0.00    +0.000 A 
ATOM      2  C   UNL     1       1.883   2.564  17.856  0.00  0.00    +0.000 A 
ATOM      3  C   UNL     1       0.974   2.208  18.851  0.00  0.00    +0.000 A 
ATOM      4  C   UNL     1       0.821   3.020  19.963  0.00  0.00    +0.000 A 
ATOM      5  C   UNL     1       1.580   4.188  20.080  0.00  0.00    +0.000 A 
ATOM      6  C   UNL     1       2.500   4.566  19.085  0.00  0.00    +0.000 A 
ENDROOT
BRANCH   1   7
ATOM      7  C   UNL     1       3.680   3.999  16.867  0.00  0.00    +0.000 C 
BRANCH   7   8
ATOM      8  N   UNL     1       5.020   3.532  17.248  0.00  0.00    +0.000 NA
ATOM      9  H   UNL     1       5.178   3.790  18.225  0.00  0.00    +0.000 HD
BRANCH   8  10
ATOM     10  C   UNL     1       6.061   4.222  16.471  0.00  0.00    +0.000 C 
BRANCH  10  11
ATOM     11  C   UNL     1       7.291   4.659  17.306  0.00  0.00    +0.000 C 
BRANCH  11  13
ATOM     12  C   UNL     1       7.805   5.706  19.435  0.00  0.00    +0.000 C 
ATOM     13  N   UNL     1       7.043   5.824  18.189  0.00  0.00    +0.000 NA
ATOM     14  C   UNL     1       7.428   7.055  17.491  0.00  0.00    +0.000 C 
ENDBRANCH  11  13
ENDBRANCH  10  11
ENDBRANCH   8  10
ENDBRANCH   7   8
ENDBRANCH   1   7
BRANCH   6  15
ATOM     15  S   UNL     1       3.532   5.977  19.474  0.00  0.00    +0.000 S 
BRANCH  15  16
ATOM     16  C   UNL     1       2.560   7.437  19.136  0.00  0.00    +0.000 A 
ATOM     17  C   UNL     1       2.511   8.073  17.890  0.00  0.00    +0.000 A 
ATOM     18  C   UNL     1       1.676   9.181  17.689  0.00  0.00    +0.000 A 
ATOM     19  C   UNL     1       0.878   9.665  18.721  0.00  0.00    +0.000 A 
ATOM     20  C   UNL     1       0.915   9.048  19.967  0.00  0.00    +0.000 A 
ATOM     21  C   UNL     1       1.747   7.944  20.160  0.00  0.00    +0.000 A 
ATOM     22  F   UNL     1       1.744   7.372  21.380  0.00  0.00    +0.000 F 
ENDBRANCH  15  16
ENDBRANCH   6  15
TORSDOF 7
ENDMDL
MODEL 6
REMARK VINA RESULT:      -6.8      2.779      5.675
REMARK  Name = 
REMARK  9 active torsions:
REMARK  status: ('A' for Active; 'I' for Inactive)
REMARK    1  A    between atoms: C_1  and  N_2
REMARK    2  A    between atoms: N_2  and  C_3
REMARK    3  A    between atoms: N_2  and  C_4
REMARK    4  A    between atoms: C_4  and  C_5
REMARK    5  A    between atoms: C_5  and  N_6
REMARK    6  A    between atoms: N_6  and  C_7
REMARK    7  A    between atoms: C_7  and  C_8
REMARK    8  A    between atoms: C_13  and  S_14
REMARK    9  A    between atoms: S_14  and  C_15
REMARK                            x       y       z     vdW  Elec       q    Type
REMARK                         _______ _______ _______ _____ _____    ______ ____
ROOT
ATOM      1  C   UNL     1       2.430   6.496  19.569  0.00  0.00    +0.000 A 
ATOM      2  C   UNL     1       1.712   7.522  20.224  0.00  0.00    +0.000 A 
ATOM      3  C   UNL     1       1.453   8.740  19.598  0.00  0.00    +0.000 A 
ATOM      4  C   UNL     1       1.910   8.962  18.310  0.00  0.00    +0.000 A 
ATOM      5  C   UNL     1       2.629   7.965  17.647  0.00  0.00    +0.000 A 
ATOM      6  C   UNL     1       2.899   6.726  18.259  0.00  0.00    +0.000 A 
ENDROOT
BRANCH   1   7
ATOM      7  C   UNL     1       2.742   5.244  20.359  0.00  0.00    +0.000 C 
BRANCH   7   8
ATOM      8  N   UNL     1       1.575   4.749  21.103  0.00  0.00    +0.000 NA
ATOM      9  H   UNL     1       1.685   5.024  22.081  0.00  0.00    +0.000 HD
BRANCH   8  10
ATOM     10  C   UNL     1       1.527   3.279  21.095  0.00  0.00    +0.000 C 
BRANCH  10  11
ATOM     11  C   UNL     1       2.665   2.613  20.282  0.00  0.00    +0.000 C 
BRANCH  11  13
ATOM     12  C   UNL     1       0.907   2.335  18.631  0.00  0.00    +0.000 C 
ATOM     13  N   UNL     1       2.199   1.834  19.109  0.00  0.00    +0.000 NA
ATOM     14  C   UNL     1       3.193   1.930  18.035  0.00  0.00    +0.000 C 
ENDBRANCH  11  13
ENDBRANCH  10  11
ENDBRANCH   8  10
ENDBRANCH   7   8
ENDBRANCH   1   7
BRANCH   6  15
ATOM     15  S   UNL     1       3.995   5.634  17.358  0.00  0.00    +0.000 S 
BRANCH  15  16
ATOM     16  C   UNL     1       5.663   6.111  17.783  0.00  0.00    +0.000 A 
ATOM     17  C   UNL     1       6.348   7.176  17.189  0.00  0.00    +0.000 A 
ATOM     18  C   UNL     1       7.636   7.525  17.620  0.00  0.00    +0.000 A 
ATOM     19  C   UNL     1       8.254   6.822  18.651  0.00  0.00    +0.000 A 
ATOM     20  C   UNL     1       7.590   5.759  19.252  0.00  0.00    +0.000 A 
ATOM     21  C   UNL     1       6.308   5.417  18.819  0.00  0.00    +0.000 A 
ATOM     22  F   UNL     1       5.698   4.386  19.436  0.00  0.00    +0.000 F 
ENDBRANCH  15  16
ENDBRANCH   6  15
TORSDOF 7
ENDMDL
MODEL 7
REMARK VINA RESULT:      -6.7      3.345      6.404
REMARK  Name = 
REMARK  9 active torsions:
REMARK  status: ('A' for Active; 'I' for Inactive)
REMARK    1  A    between atoms: C_1  and  N_2
REMARK    2  A    between atoms: N_2  and  C_3
REMARK    3  A    between atoms: N_2  and  C_4
REMARK    4  A    between atoms: C_4  and  C_5
REMARK    5  A    between atoms: C_5  and  N_6
REMARK    6  A    between atoms: N_6  and  C_7
REMARK    7  A    between atoms: C_7  and  C_8
REMARK    8  A    between atoms: C_13  and  S_14
REMARK    9  A    between atoms: S_14  and  C_15
REMARK                            x       y       z     vdW  Elec       q    Type
REMARK                         _______ _______ _______ _____ _____    ______ ____
ROOT
ATOM      1  C   UNL     1       2.463   4.819  19.538  0.00  0.00    +0.000 A 
ATOM      2  C   UNL     1       1.211   4.166  19.513  0.00  0.00    +0.000 A 
ATOM      3  C   UNL     1       1.114   2.783  19.374  0.00  0.00    +0.000 A 
ATOM      4  C   UNL     1       2.266   2.023  19.251  0.00  0.00    +0.000 A 
ATOM      5  C   UNL     1       3.515   2.648  19.265  0.00  0.00    +0.000 A 
ATOM      6  C   UNL     1       3.635   4.043  19.407  0.00  0.00    +0.000 A 
ENDROOT
BRANCH   1   7
ATOM      7  C   UNL     1       2.467   6.330  19.600  0.00  0.00    +0.000 C 
BRANCH   7   8
ATOM      8  N   UNL     1       1.964   6.836  20.886  0.00  0.00    +0.000 NA
ATOM      9  H   UNL     1       1.156   6.268  21.153  0.00  0.00    +0.000 HD
BRANCH   8  10
ATOM     10  C   UNL     1       1.469   8.215  20.754  0.00  0.00    +0.000 C 
BRANCH  10  11
ATOM     11  C   UNL     1       1.222   8.932  22.105  0.00  0.00    +0.000 C 
BRANCH  11  13
ATOM     12  C   UNL     1       0.418  10.634  20.572  0.00  0.00    +0.000 C 
ATOM     13  N   UNL     1       0.707  10.316  21.973  0.00  0.00    +0.000 NA
ATOM     14  C   UNL     1      -0.514  10.459  22.772  0.00  0.00    +0.000 C 
ENDBRANCH  11  13
ENDBRANCH  10  11
ENDBRANCH   8  10
ENDBRANCH   7   8
ENDBRANCH   1   7
BRANCH   6  15
ATOM     15  S   UNL     1       5.285   4.708  19.209  0.00  0.00    +0.000 S 
BRANCH  15  16
ATOM     16  C   UNL     1       5.674   4.615  17.468  0.00  0.00    +0.000 A 
ATOM     17  C   UNL     1       4.712   4.589  16.452  0.00  0.00    +0.000 A 
ATOM     18  C   UNL     1       5.099   4.575  15.104  0.00  0.00    +0.000 A 
ATOM     19  C   UNL     1       6.446   4.593  14.753  0.00  0.00    +0.000 A 
ATOM     20  C   UNL     1       7.417   4.616  15.748  0.00  0.00    +0.000 A 
ATOM     21  C   UNL     1       7.024   4.631  17.088  0.00  0.00    +0.000 A 
ATOM     22  F   UNL     1       7.998   4.663  18.019  0.00  0.00    +0.000 F 
ENDBRANCH  15  16
ENDBRANCH   6  15
TORSDOF 7
ENDMDL
MODEL 8
REMARK VINA RESULT:      -6.7      2.939      5.023
REMARK  Name = 
REMARK  9 active torsions:
REMARK  status: ('A' for Active; 'I' for Inactive)
REMARK    1  A    between atoms: C_1  and  N_2
REMARK    2  A    between atoms: N_2  and  C_3
REMARK    3  A    between atoms: N_2  and  C_4
REMARK    4  A    between atoms: C_4  and  C_5
REMARK    5  A    between atoms: C_5  and  N_6
REMARK    6  A    between atoms: N_6  and  C_7
REMARK    7  A    between atoms: C_7  and  C_8
REMARK    8  A    between atoms: C_13  and  S_14
REMARK    9  A    between atoms: S_14  and  C_15
REMARK                            x       y       z     vdW  Elec       q    Type
REMARK                         _______ _______ _______ _____ _____    ______ ____
ROOT
ATOM      1  C   UNL     1       6.100   5.258  16.545  0.00  0.00    +0.000 A 
ATOM      2  C   UNL     1       7.141   6.155  16.874  0.00  0.00    +0.000 A 
ATOM      3  C   UNL     1       7.543   6.349  18.194  0.00  0.00    +0.000 A 
ATOM      4  C   UNL     1       6.911   5.657  19.214  0.00  0.00    +0.000 A 
ATOM      5  C   UNL     1       5.873   4.771  18.913  0.00  0.00    +0.000 A 
ATOM      6  C   UNL     1       5.454   4.558  17.586  0.00  0.00    +0.000 A 
ENDROOT
BRANCH   1   7
ATOM      7  C   UNL     1       5.671   5.181  15.097  0.00  0.00    +0.000 C 
BRANCH   7   8
ATOM      8  N   UNL     1       6.230   4.006  14.412  0.00  0.00    +0.000 NA
ATOM      9  H   UNL     1       6.843   3.521  15.070  0.00  0.00    +0.000 HD
BRANCH   8  10
ATOM     10  C   UNL     1       7.080   4.409  13.281  0.00  0.00    +0.000 C 
BRANCH  10  11
ATOM     11  C   UNL     1       6.711   3.732  11.938  0.00  0.00    +0.000 C 
BRANCH  11  13
ATOM     12  C   UNL     1       4.375   3.290  11.445  0.00  0.00    +0.000 C 
ATOM     13  N   UNL     1       5.603   2.751  12.036  0.00  0.00    +0.000 NA
ATOM     14  C   UNL     1       5.983   1.516  11.342  0.00  0.00    +0.000 C 
ENDBRANCH  11  13
ENDBRANCH  10  11
ENDBRANCH   8  10
ENDBRANCH   7   8
ENDBRANCH   1   7
BRANCH   6  15
ATOM     15  S   UNL     1       3.990   3.548  17.385  0.00  0.00    +0.000 S 
BRANCH  15  16
ATOM     16  C   UNL     1       3.136   3.556  18.953  0.00  0.00    +0.000 A 
ATOM     17  C   UNL     1       3.321   2.590  19.949  0.00  0.00    +0.000 A 
ATOM     18  C   UNL     1       2.657   2.699  21.179  0.00  0.00    +0.000 A 
ATOM     19  C   UNL     1       1.807   3.772  21.435  0.00  0.00    +0.000 A 
ATOM     20  C   UNL     1       1.609   4.740  20.457  0.00  0.00    +0.000 A 
ATOM     21  C   UNL     1       2.274   4.626  19.235  0.00  0.00    +0.000 A 
ATOM     22  F   UNL     1       2.060   5.592  18.320  0.00  0.00    +0.000 F 
ENDBRANCH  15  16
ENDBRANCH   6  15
TORSDOF 7
ENDMDL
MODEL 9
REMARK VINA RESULT:      -6.7      2.998      5.073
REMARK  Name = 
REMARK  9 active torsions:
REMARK  status: ('A' for Active; 'I' for Inactive)
REMARK    1  A    between atoms: C_1  and  N_2
REMARK    2  A    between atoms: N_2  and  C_3
REMARK    3  A    between atoms: N_2  and  C_4
REMARK    4  A    between atoms: C_4  and  C_5
REMARK    5  A    between atoms: C_5  and  N_6
REMARK    6  A    between atoms: N_6  and  C_7
REMARK    7  A    between atoms: C_7  and  C_8
REMARK    8  A    between atoms: C_13  and  S_14
REMARK    9  A    between atoms: S_14  and  C_15
REMARK                            x       y       z     vdW  Elec       q    Type
REMARK                         _______ _______ _______ _____ _____    ______ ____
ROOT
ATOM      1  C   UNL     1       5.962   4.810  16.964  0.00  0.00    +0.000 A 
ATOM      2  C   UNL     1       7.337   4.597  17.207  0.00  0.00    +0.000 A 
ATOM      3  C   UNL     1       7.921   4.939  18.426  0.00  0.00    +0.000 A 
ATOM      4  C   UNL     1       7.146   5.505  19.424  0.00  0.00    +0.000 A 
ATOM      5  C   UNL     1       5.785   5.732  19.203  0.00  0.00    +0.000 A 
ATOM      6  C   UNL     1       5.175   5.392  17.981  0.00  0.00    +0.000 A 
ENDROOT
BRANCH   1   7
ATOM      7  C   UNL     1       5.436   4.494  15.581  0.00  0.00    +0.000 C 
BRANCH   7   8
ATOM      8  N   UNL     1       6.485   3.974  14.692  0.00  0.00    +0.000 NA
ATOM      9  H   UNL     1       7.379   4.364  14.998  0.00  0.00    +0.000 HD
BRANCH   8  10
ATOM     10  C   UNL     1       6.287   4.440  13.311  0.00  0.00    +0.000 C 
BRANCH  10  11
ATOM     11  C   UNL     1       6.572   3.367  12.232  0.00  0.00    +0.000 C 
BRANCH  11  13
ATOM     12  C   UNL     1       4.346   3.186  11.278  0.00  0.00    +0.000 C 
ATOM     13  N   UNL     1       5.427   2.465  11.955  0.00  0.00    +0.000 NA
ATOM     14  C   UNL     1       5.878   1.350  11.116  0.00  0.00    +0.000 C 
ENDBRANCH  11  13
ENDBRANCH  10  11
ENDBRANCH   8  10
ENDBRANCH   7   8
ENDBRANCH   1   7
BRANCH   6  15
ATOM     15  S   UNL     1       3.478   5.925  17.782  0.00  0.00    +0.000 S 
BRANCH  15  16
ATOM     16  C   UNL     1       2.461   4.749  18.661  0.00  0.00    +0.000 A 
ATOM     17  C   UNL     1       1.959   4.959  19.951  0.00  0.00    +0.000 A 
ATOM     18  C   UNL     1       1.117   4.011  20.550  0.00  0.00    +0.000 A 
ATOM     19  C   UNL     1       0.760   2.849  19.873  0.00  0.00    +0.000 A 
ATOM     20  C   UNL     1       1.251   2.622  18.592  0.00  0.00    +0.000 A 
ATOM     21  C   UNL     1       2.088   3.569  18.000  0.00  0.00    +0.000 A 
ATOM     22  F   UNL     1       2.532   3.312  16.754  0.00  0.00    +0.000 F 
ENDBRANCH  15  16
ENDBRANCH   6  15
TORSDOF 7
ENDMDL
