MODEL 1
REMARK VINA RESULT:      -7.0      0.000      0.000
REMARK  Name = 
REMARK  6 active torsions:
REMARK  status: ('A' for Active; 'I' for Inactive)
REMARK    1  A    between atoms: C_1  and  C_2
REMARK    2  A    between atoms: C_2  and  C_3
REMARK    3  A    between atoms: C_3  and  C_4
REMARK    4  A    between atoms: C_3  and  N_8
REMARK    5  A    between atoms: C_4  and  O_6
REMARK    6  A    between atoms: O_6  and  C_7
REMARK                            x       y       z     vdW  Elec       q    Type
REMARK                         _______ _______ _______ _____ _____    ______ ____
ROOT
ATOM      1  N   UNL     1       5.677   5.760  17.602  0.00  0.00    +0.000 N 
ATOM      2  C   UNL     1       6.250   4.728  18.350  0.00  0.00    +0.000 A 
ATOM      3  N   UNL     1       5.660   3.938  19.199  0.00  0.00    +0.000 NA
ATOM      4  C   UNL     1       4.301   4.217  19.346  0.00  0.00    +0.000 A 
ATOM      5  C   UNL     1       3.676   5.235  18.688  0.00  0.00    +0.000 A 
ATOM      6  O   UNL     1       2.371   5.318  19.053  0.00  0.00    +0.000 OA
ATOM      7  C   UNL     1       2.170   4.300  19.950  0.00  0.00    +0.000 A 
ATOM      8  C   UNL     1       0.965   4.013  20.587  0.00  0.00    +0.000 A 
ATOM      9  C   UNL     1       0.960   2.911  21.449  0.00  0.00    +0.000 A 
ATOM     10  C   UNL     1       2.111   2.144  21.653  0.00  0.00    +0.000 A 
ATOM     11  C   UNL     1       3.317   2.464  21.014  0.00  0.00    +0.000 A 
ATOM     12  C   UNL     1       3.345   3.569  20.146  0.00  0.00    +0.000 A 
ATOM     13  C   UNL     1       4.325   6.097  17.754  0.00  0.00    +0.000 A 
ATOM     14  O   UNL     1       3.786   7.032  17.169  0.00  0.00    +0.000 OA
ENDROOT
BRANCH   1  15
ATOM     15  C   UNL     1       6.513   6.594  16.713  0.00  0.00    +0.000 C 
BRANCH  15  17
ATOM     16  C   UNL     1       7.828   8.589  17.637  0.00  0.00    +0.000 C 
ATOM     17  C   UNL     1       7.775   7.082  17.438  0.00  0.00    +0.000 C 
ENDBRANCH  15  17
BRANCH  15  18
ATOM     18  C   UNL     1       6.812   5.843  15.406  0.00  0.00    +0.000 C 
ATOM     19  O   UNL     1       7.921   5.727  14.904  0.00  0.00    +0.000 OA
BRANCH  18  20
ATOM     20  O   UNL     1       5.661   5.354  14.861  0.00  0.00    +0.000 OA
ATOM     21  C   UNL     1       5.753   3.999  14.410  0.00  0.00    +0.000 C 
ENDBRANCH  18  20
ENDBRANCH  15  18
ENDBRANCH   1  15
TORSDOF 4
ENDMDL
MODEL 2
REMARK VINA RESULT:      -6.8      1.521      2.049
REMARK  Name = 
REMARK  6 active torsions:
REMARK  status: ('A' for Active; 'I' for Inactive)
REMARK    1  A    between atoms: C_1  and  C_2
REMARK    2  A    between atoms: C_2  and  C_3
REMARK    3  A    between atoms: C_3  and  C_4
REMARK    4  A    between atoms: C_3  and  N_8
REMARK    5  A    between atoms: C_4  and  O_6
REMARK    6  A    between atoms: O_6  and  C_7
REMARK                            x       y       z     vdW  Elec       q    Type
REMARK                         _______ _______ _______ _____ _____    ______ ____
ROOT
ATOM      1  N   UNL     1       5.655   5.715  17.610  0.00  0.00    +0.000 N 
ATOM      2  C   UNL     1       4.389   5.781  17.021  0.00  0.00    +0.000 A 
ATOM      3  N   UNL     1       3.273   5.290  17.477  0.00  0.00    +0.000 NA
ATOM      4  C   UNL     1       3.429   4.619  18.690  0.00  0.00    +0.000 A 
ATOM      5  C   UNL     1       4.637   4.472  19.306  0.00  0.00    +0.000 A 
ATOM      6  O   UNL     1       4.514   3.734  20.440  0.00  0.00    +0.000 OA
ATOM      7  C   UNL     1       3.180   3.435  20.546  0.00  0.00    +0.000 A 
ATOM      8  C   UNL     1       2.601   2.686  21.568  0.00  0.00    +0.000 A 
ATOM      9  C   UNL     1       1.213   2.515  21.510  0.00  0.00    +0.000 A 
ATOM     10  C   UNL     1       0.456   3.073  20.475  0.00  0.00    +0.000 A 
ATOM     11  C   UNL     1       1.065   3.808  19.448  0.00  0.00    +0.000 A 
ATOM     12  C   UNL     1       2.459   3.988  19.485  0.00  0.00    +0.000 A 
ATOM     13  C   UNL     1       5.859   5.014  18.807  0.00  0.00    +0.000 A 
ATOM     14  O   UNL     1       6.958   4.873  19.335  0.00  0.00    +0.000 OA
ENDROOT
BRANCH   1  15
ATOM     15  C   UNL     1       6.831   6.291  16.925  0.00  0.00    +0.000 C 
BRANCH  15  17
ATOM     16  C   UNL     1       7.892   8.500  17.669  0.00  0.00    +0.000 C 
ATOM     17  C   UNL     1       7.756   7.005  17.919  0.00  0.00    +0.000 C 
ENDBRANCH  15  17
BRANCH  15  18
ATOM     18  C   UNL     1       7.543   5.210  16.097  0.00  0.00    +0.000 C 
ATOM     19  O   UNL     1       8.126   4.241  16.564  0.00  0.00    +0.000 OA
BRANCH  18  20
ATOM     20  O   UNL     1       7.470   5.500  14.766  0.00  0.00    +0.000 OA
ATOM     21  C   UNL     1       6.679   4.580  14.007  0.00  0.00    +0.000 C 
ENDBRANCH  18  20
ENDBRANCH  15  18
ENDBRANCH   1  15
TORSDOF 4
ENDMDL
MODEL 3
REMARK VINA RESULT:      -6.8      1.206      1.362
REMARK  Name = 
REMARK  6 active torsions:
REMARK  status: ('A' for Active; 'I' for Inactive)
REMARK    1  A    between atoms: C_1  and  C_2
REMARK    2  A    between atoms: C_2  and  C_3
REMARK    3  A    between atoms: C_3  and  C_4
REMARK    4  A    between atoms: C_3  and  N_8
REMARK    5  A    between atoms: C_4  and  O_6
REMARK    6  A    between atoms: O_6  and  C_7
REMARK                            x       y       z     vdW  Elec       q    Type
REMARK                         _______ _______ _______ _____ _____    ______ ____
ROOT
ATOM      1  N   UNL     1       5.861   5.596  17.781  0.00  0.00    +0.000 N 
ATOM      2  C   UNL     1       5.983   5.495  19.170  0.00  0.00    +0.000 A 
ATOM      3  N   UNL     1       5.132   4.978  20.009  0.00  0.00    +0.000 NA
ATOM      4  C   UNL     1       3.978   4.501  19.386  0.00  0.00    +0.000 A 
ATOM      5  C   UNL     1       3.763   4.602  18.043  0.00  0.00    +0.000 A 
ATOM      6  O   UNL     1       2.542   4.108  17.710  0.00  0.00    +0.000 OA
ATOM      7  C   UNL     1       1.990   3.660  18.883  0.00  0.00    +0.000 A 
ATOM      8  C   UNL     1       0.732   3.076  19.010  0.00  0.00    +0.000 A 
ATOM      9  C   UNL     1       0.362   2.659  20.294  0.00  0.00    +0.000 A 
ATOM     10  C   UNL     1       1.218   2.827  21.386  0.00  0.00    +0.000 A 
ATOM     11  C   UNL     1       2.473   3.435  21.236  0.00  0.00    +0.000 A 
ATOM     12  C   UNL     1       2.863   3.864  19.955  0.00  0.00    +0.000 A 
ATOM     13  C   UNL     1       4.699   5.165  17.125  0.00  0.00    +0.000 A 
ATOM     14  O   UNL     1       4.515   5.286  15.918  0.00  0.00    +0.000 OA
ENDROOT
BRANCH   1  15
ATOM     15  C   UNL     1       6.912   6.262  16.984  0.00  0.00    +0.000 C 
BRANCH  15  17
ATOM     16  C   UNL     1       7.794   8.584  17.610  0.00  0.00    +0.000 C 
ATOM     17  C   UNL     1       7.847   7.087  17.879  0.00  0.00    +0.000 C 
ENDBRANCH  15  17
BRANCH  15  18
ATOM     18  C   UNL     1       7.651   5.232  16.115  0.00  0.00    +0.000 C 
ATOM     19  O   UNL     1       8.119   4.178  16.524  0.00  0.00    +0.000 OA
BRANCH  18  20
ATOM     20  O   UNL     1       7.749   5.673  14.829  0.00  0.00    +0.000 OA
ATOM     21  C   UNL     1       7.121   4.821  13.866  0.00  0.00    +0.000 C 
ENDBRANCH  18  20
ENDBRANCH  15  18
ENDBRANCH   1  15
TORSDOF 4
ENDMDL
MODEL 4
REMARK VINA RESULT:      -6.8      3.557      5.170
REMARK  Name = 
REMARK  6 active torsions:
REMARK  status: ('A' for Active; 'I' for Inactive)
REMARK    1  A    between atoms: C_1  and  C_2
REMARK    2  A    between atoms: C_2  and  C_3
REMARK    3  A    between atoms: C_3  and  C_4
REMARK    4  A    between atoms: C_3  and  N_8
REMARK    5  A    between atoms: C_4  and  O_6
REMARK    6  A    between atoms: O_6  and  C_7
REMARK                            x       y       z     vdW  Elec       q    Type
REMARK                         _______ _______ _______ _____ _____    ______ ____
ROOT
ATOM      1  N   UNL     1       3.734   5.522  18.648  0.00  0.00    +0.000 N 
ATOM      2  C   UNL     1       3.721   6.540  17.692  0.00  0.00    +0.000 A 
ATOM      3  N   UNL     1       3.081   7.673  17.742  0.00  0.00    +0.000 NA
ATOM      4  C   UNL     1       2.326   7.817  18.906  0.00  0.00    +0.000 A 
ATOM      5  C   UNL     1       2.249   6.852  19.866  0.00  0.00    +0.000 A 
ATOM      6  O   UNL     1       1.405   7.227  20.863  0.00  0.00    +0.000 OA
ATOM      7  C   UNL     1       0.963   8.481  20.523  0.00  0.00    +0.000 A 
ATOM      8  C   UNL     1       0.072   9.250  21.268  0.00  0.00    +0.000 A 
ATOM      9  C   UNL     1      -0.234  10.519  20.762  0.00  0.00    +0.000 A 
ATOM     10  C   UNL     1       0.333  10.981  19.570  0.00  0.00    +0.000 A 
ATOM     11  C   UNL     1       1.214  10.180  18.830  0.00  0.00    +0.000 A 
ATOM     12  C   UNL     1       1.531   8.900  19.318  0.00  0.00    +0.000 A 
ATOM     13  C   UNL     1       2.955   5.614  19.810  0.00  0.00    +0.000 A 
ATOM     14  O   UNL     1       2.880   4.724  20.652  0.00  0.00    +0.000 OA
ENDROOT
BRANCH   1  15
ATOM     15  C   UNL     1       4.484   4.273  18.403  0.00  0.00    +0.000 C 
BRANCH  15  17
ATOM     16  C   UNL     1       2.672   2.658  17.584  0.00  0.00    +0.000 C 
ATOM     17  C   UNL     1       3.891   3.494  17.221  0.00  0.00    +0.000 C 
ENDBRANCH  15  17
BRANCH  15  18
ATOM     18  C   UNL     1       5.982   4.577  18.243  0.00  0.00    +0.000 C 
ATOM     19  O   UNL     1       6.625   4.407  17.216  0.00  0.00    +0.000 OA
BRANCH  18  20
ATOM     20  O   UNL     1       6.508   5.028  19.418  0.00  0.00    +0.000 OA
ATOM     21  C   UNL     1       7.737   5.747  19.274  0.00  0.00    +0.000 C 
ENDBRANCH  18  20
ENDBRANCH  15  18
ENDBRANCH   1  15
TORSDOF 4
ENDMDL
MODEL 5
REMARK VINA RESULT:      -6.7      4.386      5.568
REMARK  Name = 
REMARK  6 active torsions:
REMARK  status: ('A' for Active; 'I' for Inactive)
REMARK    1  A    between atoms: C_1  and  C_2
REMARK    2  A    between atoms: C_2  and  C_3
REMARK    3  A    between atoms: C_3  and  C_4
REMARK    4  A    between atoms: C_3  and  N_8
REMARK    5  A    between atoms: C_4  and  O_6
REMARK    6  A    between atoms: O_6  and  C_7
REMARK                            x       y       z     vdW  Elec       q    Type
REMARK                         _______ _______ _______ _____ _____    ______ ____
ROOT
ATOM      1  N   UNL     1       2.471   6.763  18.742  0.00  0.00    +0.000 N 
ATOM      2  C   UNL     1       2.160   6.273  20.013  0.00  0.00    +0.000 A 
ATOM      3  N   UNL     1       1.547   6.894  20.979  0.00  0.00    +0.000 NA
ATOM      4  C   UNL     1       1.199   8.204  20.647  0.00  0.00    +0.000 A 
ATOM      5  C   UNL     1       1.506   8.772  19.445  0.00  0.00    +0.000 A 
ATOM      6  O   UNL     1       1.101  10.068  19.405  0.00  0.00    +0.000 OA
ATOM      7  C   UNL     1       0.498  10.306  20.614  0.00  0.00    +0.000 A 
ATOM      8  C   UNL     1      -0.064  11.518  21.008  0.00  0.00    +0.000 A 
ATOM      9  C   UNL     1      -0.658  11.549  22.275  0.00  0.00    +0.000 A 
ATOM     10  C   UNL     1      -0.679  10.416  23.095  0.00  0.00    +0.000 A 
ATOM     11  C   UNL     1      -0.089   9.213  22.682  0.00  0.00    +0.000 A 
ATOM     12  C   UNL     1       0.515   9.161  21.414  0.00  0.00    +0.000 A 
ATOM     13  C   UNL     1       2.175   8.087  18.387  0.00  0.00    +0.000 A 
ATOM     14  O   UNL     1       2.480   8.587  17.309  0.00  0.00    +0.000 OA
ENDROOT
BRANCH   1  15
ATOM     15  C   UNL     1       3.220   5.929  17.780  0.00  0.00    +0.000 C 
BRANCH  15  17
ATOM     16  C   UNL     1       5.580   6.617  17.063  0.00  0.00    +0.000 C 
ATOM     17  C   UNL     1       4.719   5.920  18.105  0.00  0.00    +0.000 C 
ENDBRANCH  15  17
BRANCH  15  18
ATOM     18  C   UNL     1       2.603   4.523  17.704  0.00  0.00    +0.000 C 
ATOM     19  O   UNL     1       1.454   4.280  17.363  0.00  0.00    +0.000 OA
BRANCH  18  20
ATOM     20  O   UNL     1       3.505   3.583  18.109  0.00  0.00    +0.000 OA
ATOM     21  C   UNL     1       2.958   2.268  18.254  0.00  0.00    +0.000 C 
ENDBRANCH  18  20
ENDBRANCH  15  18
ENDBRANCH   1  15
TORSDOF 4
ENDMDL
MODEL 6
REMARK VINA RESULT:      -6.6      2.936      4.334
REMARK  Name = 
REMARK  6 active torsions:
REMARK  status: ('A' for Active; 'I' for Inactive)
REMARK    1  A    between atoms: C_1  and  C_2
REMARK    2  A    between atoms: C_2  and  C_3
REMARK    3  A    between atoms: C_3  and  C_4
REMARK    4  A    between atoms: C_3  and  N_8
REMARK    5  A    between atoms: C_4  and  O_6
REMARK    6  A    between atoms: O_6  and  C_7
REMARK                            x       y       z     vdW  Elec       q    Type
REMARK                         _______ _______ _______ _____ _____    ______ ____
ROOT
ATOM      1  N   UNL     1       4.592   5.814  17.644  0.00  0.00    +0.000 N 
ATOM      2  C   UNL     1       4.193   6.960  16.951  0.00  0.00    +0.000 A 
ATOM      3  N   UNL     1       3.326   7.856  17.327  0.00  0.00    +0.000 NA
ATOM      4  C   UNL     1       2.754   7.571  18.567  0.00  0.00    +0.000 A 
ATOM      5  C   UNL     1       3.056   6.451  19.285  0.00  0.00    +0.000 A 
ATOM      6  O   UNL     1       2.319   6.394  20.425  0.00  0.00    +0.000 OA
ATOM      7  C   UNL     1       1.552   7.531  20.429  0.00  0.00    +0.000 A 
ATOM      8  C   UNL     1       0.639   7.883  21.420  0.00  0.00    +0.000 A 
ATOM      9  C   UNL     1      -0.027   9.103  21.253  0.00  0.00    +0.000 A 
ATOM     10  C   UNL     1       0.220   9.918  20.144  0.00  0.00    +0.000 A 
ATOM     11  C   UNL     1       1.131   9.533  19.150  0.00  0.00    +0.000 A 
ATOM     12  C   UNL     1       1.808   8.310  19.297  0.00  0.00    +0.000 A 
ATOM     13  C   UNL     1       4.009   5.473  18.873  0.00  0.00    +0.000 A 
ATOM     14  O   UNL     1       4.277   4.448  19.492  0.00  0.00    +0.000 OA
ENDROOT
BRANCH   1  15
ATOM     15  C   UNL     1       5.561   4.874  17.042  0.00  0.00    +0.000 C 
BRANCH  15  17
ATOM     16  C   UNL     1       6.264   3.772  14.839  0.00  0.00    +0.000 C 
ATOM     17  C   UNL     1       5.202   4.571  15.581  0.00  0.00    +0.000 C 
ENDBRANCH  15  17
BRANCH  15  18
ATOM     18  C   UNL     1       6.993   5.401  17.221  0.00  0.00    +0.000 C 
ATOM     19  O   UNL     1       7.527   6.236  16.504  0.00  0.00    +0.000 OA
BRANCH  18  20
ATOM     20  O   UNL     1       7.604   4.780  18.271  0.00  0.00    +0.000 OA
ATOM     21  C   UNL     1       7.802   5.617  19.415  0.00  0.00    +0.000 C 
ENDBRANCH  18  20
ENDBRANCH  15  18
ENDBRANCH   1  15
TORSDOF 4
ENDMDL
MODEL 7
REMARK VINA RESULT:      -6.6      0.690      1.026
REMARK  Name = 
REMARK  6 active torsions:
REMARK  status: ('A' for Active; 'I' for Inactive)
REMARK    1  A    between atoms: C_1  and  C_2
REMARK    2  A    between atoms: C_2  and  C_3
REMARK    3  A    between atoms: C_3  and  C_4
REMARK    4  A    between atoms: C_3  and  N_8
REMARK    5  A    between atoms: C_4  and  O_6
REMARK    6  A    between atoms: O_6  and  C_7
REMARK                            x       y       z     vdW  Elec       q    Type
REMARK                         _______ _______ _______ _____ _____    ______ ____
ROOT
ATOM      1  N   UNL     1       5.623   5.494  17.265  0.00  0.00    +0.000 N 
ATOM      2  C   UNL     1       6.199   4.496  18.056  0.00  0.00    +0.000 A 
ATOM      3  N   UNL     1       5.625   3.780  18.979  0.00  0.00    +0.000 NA
ATOM      4  C   UNL     1       4.282   4.109  19.163  0.00  0.00    +0.000 A 
ATOM      5  C   UNL     1       3.657   5.100  18.465  0.00  0.00    +0.000 A 
ATOM      6  O   UNL     1       2.371   5.246  18.877  0.00  0.00    +0.000 OA
ATOM      7  C   UNL     1       2.182   4.294  19.847  0.00  0.00    +0.000 A 
ATOM      8  C   UNL     1       0.998   4.085  20.550  0.00  0.00    +0.000 A 
ATOM      9  C   UNL     1       1.000   3.041  21.483  0.00  0.00    +0.000 A 
ATOM     10  C   UNL     1       2.137   2.255  21.690  0.00  0.00    +0.000 A 
ATOM     11  C   UNL     1       3.323   2.497  20.982  0.00  0.00    +0.000 A 
ATOM     12  C   UNL     1       3.344   3.543  20.042  0.00  0.00    +0.000 A 
ATOM     13  C   UNL     1       4.288   5.880  17.450  0.00  0.00    +0.000 A 
ATOM     14  O   UNL     1       3.750   6.791  16.828  0.00  0.00    +0.000 OA
ENDROOT
BRANCH   1  15
ATOM     15  C   UNL     1       6.442   6.244  16.291  0.00  0.00    +0.000 C 
BRANCH  15  17
ATOM     16  C   UNL     1       7.595   8.124  17.595  0.00  0.00    +0.000 C 
ATOM     17  C   UNL     1       7.736   6.760  16.936  0.00  0.00    +0.000 C 
ENDBRANCH  15  17
BRANCH  15  18
ATOM     18  C   UNL     1       6.684   5.392  15.035  0.00  0.00    +0.000 C 
ATOM     19  O   UNL     1       5.884   4.596  14.564  0.00  0.00    +0.000 OA
BRANCH  18  20
ATOM     20  O   UNL     1       7.934   5.618  14.537  0.00  0.00    +0.000 OA
ATOM     21  C   UNL     1       8.041   5.450  13.119  0.00  0.00    +0.000 C 
ENDBRANCH  18  20
ENDBRANCH  15  18
ENDBRANCH   1  15
TORSDOF 4
ENDMDL
MODEL 8
REMARK VINA RESULT:      -6.6      2.080      6.562
REMARK  Name = 
REMARK  6 active torsions:
REMARK  status: ('A' for Active; 'I' for Inactive)
REMARK    1  A    between atoms: C_1  and  C_2
REMARK    2  A    between atoms: C_2  and  C_3
REMARK    3  A    between atoms: C_3  and  C_4
REMARK    4  A    between atoms: C_3  and  N_8
REMARK    5  A    between atoms: C_4  and  O_6
REMARK    6  A    between atoms: O_6  and  C_7
REMARK                            x       y       z     vdW  Elec       q    Type
REMARK                         _______ _______ _______ _____ _____    ______ ____
ROOT
ATOM      1  N   UNL     1       4.604   4.309  18.125  0.00  0.00    +0.000 N 
ATOM      2  C   UNL     1       3.913   3.561  17.168  0.00  0.00    +0.000 A 
ATOM      3  N   UNL     1       4.213   3.401  15.912  0.00  0.00    +0.000 NA
ATOM      4  C   UNL     1       5.362   4.098  15.537  0.00  0.00    +0.000 A 
ATOM      5  C   UNL     1       6.068   4.886  16.398  0.00  0.00    +0.000 A 
ATOM      6  O   UNL     1       7.106   5.488  15.762  0.00  0.00    +0.000 OA
ATOM      7  C   UNL     1       7.061   5.039  14.467  0.00  0.00    +0.000 A 
ATOM      8  C   UNL     1       7.945   5.405  13.455  0.00  0.00    +0.000 A 
ATOM      9  C   UNL     1       7.745   4.811  12.204  0.00  0.00    +0.000 A 
ATOM     10  C   UNL     1       6.707   3.899  11.991  0.00  0.00    +0.000 A 
ATOM     11  C   UNL     1       5.818   3.560  13.021  0.00  0.00    +0.000 A 
ATOM     12  C   UNL     1       5.999   4.148  14.285  0.00  0.00    +0.000 A 
ATOM     13  C   UNL     1       5.738   5.055  17.776  0.00  0.00    +0.000 A 
ATOM     14  O   UNL     1       6.346   5.778  18.560  0.00  0.00    +0.000 OA
ENDROOT
BRANCH   1  15
ATOM     15  C   UNL     1       4.089   4.419  19.505  0.00  0.00    +0.000 C 
BRANCH  15  17
ATOM     16  C   UNL     1       2.939   6.668  19.078  0.00  0.00    +0.000 C 
ATOM     17  C   UNL     1       2.786   5.228  19.547  0.00  0.00    +0.000 C 
ENDBRANCH  15  17
BRANCH  15  18
ATOM     18  C   UNL     1       3.960   3.023  20.136  0.00  0.00    +0.000 C 
ATOM     19  O   UNL     1       4.896   2.268  20.361  0.00  0.00    +0.000 OA
BRANCH  18  20
ATOM     20  O   UNL     1       2.652   2.726  20.378  0.00  0.00    +0.000 OA
ATOM     21  C   UNL     1       2.301   2.700  21.765  0.00  0.00    +0.000 C 
ENDBRANCH  18  20
ENDBRANCH  15  18
ENDBRANCH   1  15
TORSDOF 4
ENDMDL
MODEL 9
REMARK VINA RESULT:      -6.6      2.728      3.985
REMARK  Name = 
REMARK  6 active torsions:
REMARK  status: ('A' for Active; 'I' for Inactive)
REMARK    1  A    between atoms: C_1  and  C_2
REMARK    2  A    between atoms: C_2  and  C_3
REMARK    3  A    between atoms: C_3  and  C_4
REMARK    4  A    between atoms: C_3  and  N_8
REMARK    5  A    between atoms: C_4  and  O_6
REMARK    6  A    between atoms: O_6  and  C_7
REMARK                            x       y       z     vdW  Elec       q    Type
REMARK                         _______ _______ _______ _____ _____    ______ ____
ROOT
ATOM      1  N   UNL     1       4.761   5.403  17.593  0.00  0.00    +0.000 N 
ATOM      2  C   UNL     1       4.419   4.968  18.876  0.00  0.00    +0.000 A 
ATOM      3  N   UNL     1       3.581   5.519  19.707  0.00  0.00    +0.000 NA
ATOM      4  C   UNL     1       3.005   6.685  19.203  0.00  0.00    +0.000 A 
ATOM      5  C   UNL     1       3.319   7.200  17.980  0.00  0.00    +0.000 A 
ATOM      6  O   UNL     1       2.656   8.365  17.761  0.00  0.00    +0.000 OA
ATOM      7  C   UNL     1       1.883   8.568  18.875  0.00  0.00    +0.000 A 
ATOM      8  C   UNL     1       1.035   9.654  19.081  0.00  0.00    +0.000 A 
ATOM      9  C   UNL     1       0.308   9.662  20.277  0.00  0.00    +0.000 A 
ATOM     10  C   UNL     1       0.434   8.629  21.211  0.00  0.00    +0.000 A 
ATOM     11  C   UNL     1       1.308   7.556  20.988  0.00  0.00    +0.000 A 
ATOM     12  C   UNL     1       2.051   7.529  19.795  0.00  0.00    +0.000 A 
ATOM     13  C   UNL     1       4.233   6.592  17.069  0.00  0.00    +0.000 A 
ATOM     14  O   UNL     1       4.547   7.052  15.975  0.00  0.00    +0.000 OA
ENDROOT
BRANCH   1  15
ATOM     15  C   UNL     1       5.774   4.675  16.801  0.00  0.00    +0.000 C 
BRANCH  15  17
ATOM     16  C   UNL     1       6.290   3.865  14.426  0.00  0.00    +0.000 C 
ATOM     17  C   UNL     1       5.539   4.863  15.296  0.00  0.00    +0.000 C 
ENDBRANCH  15  17
BRANCH  15  18
ATOM     18  C   UNL     1       7.187   5.076  17.252  0.00  0.00    +0.000 C 
ATOM     19  O   UNL     1       7.872   4.449  18.048  0.00  0.00    +0.000 OA
BRANCH  18  20
ATOM     20  O   UNL     1       7.560   6.252  16.670  0.00  0.00    +0.000 OA
ATOM     21  C   UNL     1       7.710   7.340  17.588  0.00  0.00    +0.000 C 
ENDBRANCH  18  20
ENDBRANCH  15  18
ENDBRANCH   1  15
TORSDOF 4
ENDMDL
