MODEL 1
REMARK VINA RESULT:      -8.5      0.000      0.000
REMARK  Name = 
REMARK  6 active torsions:
REMARK  status: ('A' for Active; 'I' for Inactive)
REMARK    1  A    between atoms: C_1  and  O_2
REMARK    2  A    between atoms: O_2  and  C_3
REMARK    3  A    between atoms: N_13  and  N_14
REMARK    4  A    between atoms: N_14  and  C_15
REMARK    5  A    between atoms: C_15  and  C_16
REMARK    6  A    between atoms: C_20  and  N_21
REMARK                            x       y       z     vdW  Elec       q    Type
REMARK                         _______ _______ _______ _____ _____    ______ ____
ROOT
ATOM      1  N   UNL     1       1.235   8.836  19.783  0.00  0.00    +0.000 N 
ATOM      2  H   UNL     1       1.239   8.673  20.789  0.00  0.00    +0.000 HD
ENDROOT
BRANCH   1  13
ATOM      3  C   UNL     1       5.073   4.721  16.769  0.00  0.00    +0.000 A 
ATOM      4  C   UNL     1       4.816   6.069  16.540  0.00  0.00    +0.000 A 
ATOM      5  C   UNL     1       3.982   6.783  17.400  0.00  0.00    +0.000 A 
ATOM      6  C   UNL     1       3.396   6.161  18.505  0.00  0.00    +0.000 A 
ATOM      7  C   UNL     1       3.665   4.802  18.759  0.00  0.00    +0.000 A 
ATOM      8  C   UNL     1       4.518   4.098  17.891  0.00  0.00    +0.000 A 
ATOM      9  C   UNL     1       3.073   4.101  19.950  0.00  0.00    +0.000 C 
ATOM     10  C   UNL     1       1.697   4.663  20.267  0.00  0.00    +0.000 C 
ATOM     11  C   UNL     1       1.762   6.165  20.505  0.00  0.00    +0.000 C 
ATOM     12  C   UNL     1       2.419   6.922  19.356  0.00  0.00    +0.000 C 
ATOM     13  N   UNL     1       2.179   8.176  19.076  0.00  0.00    +0.000 NA
BRANCH   3  15
ATOM     14  C   UNL     1       6.960   4.529  15.353  0.00  0.00    +0.000 C 
ATOM     15  O   UNL     1       5.827   3.915  15.962  0.00  0.00    +0.000 OA
ENDBRANCH   3  15
ENDBRANCH   1  13
BRANCH   1  16
ATOM     16  C   UNL     1       1.031  10.249  19.470  0.00  0.00    +0.000 C 
BRANCH  16  17
ATOM     17  C   UNL     1      -0.315  10.498  18.844  0.00  0.00    +0.000 A 
ATOM     18  N   UNL     1      -1.348  11.103  19.389  0.00  0.00    +0.000 NA
ATOM     19  C   UNL     1      -2.334  11.111  18.429  0.00  0.00    +0.000 A 
ATOM     20  C   UNL     1      -3.638  11.623  18.493  0.00  0.00    +0.000 A 
ATOM     21  C   UNL     1      -4.457  11.459  17.364  0.00  0.00    +0.000 A 
ATOM     22  C   UNL     1      -3.991  10.833  16.194  0.00  0.00    +0.000 A 
ATOM     23  C   UNL     1      -2.682  10.333  16.131  0.00  0.00    +0.000 A 
ATOM     24  C   UNL     1      -1.891  10.492  17.271  0.00  0.00    +0.000 A 
ATOM     25  N   UNL     1      -0.601  10.117  17.546  0.00  0.00    +0.000 N 
ATOM     26  H   UNL     1       0.032   9.653  16.922  0.00  0.00    +0.000 HD
BRANCH  21  27
ATOM     27  N   UNL     1      -5.839  11.963  17.409  0.00  0.00    +0.000 N 
ATOM     28  O   UNL     1      -6.073  13.057  16.901  0.00  0.00    +0.000 OA
ATOM     29  O   UNL     1      -6.692  11.244  17.966  0.00  0.00    +0.000 OA
ENDBRANCH  21  27
ENDBRANCH  16  17
ENDBRANCH   1  16
TORSDOF 5
ENDMDL
MODEL 2
REMARK VINA RESULT:      -8.4      3.793      5.539
REMARK  Name = 
REMARK  6 active torsions:
REMARK  status: ('A' for Active; 'I' for Inactive)
REMARK    1  A    between atoms: C_1  and  O_2
REMARK    2  A    between atoms: O_2  and  C_3
REMARK    3  A    between atoms: N_13  and  N_14
REMARK    4  A    between atoms: N_14  and  C_15
REMARK    5  A    between atoms: C_15  and  C_16
REMARK    6  A    between atoms: C_20  and  N_21
REMARK                            x       y       z     vdW  Elec       q    Type
REMARK                         _______ _______ _______ _____ _____    ______ ____
ROOT
ATOM      1  N   UNL     1       4.126   3.309  19.769  0.00  0.00    +0.000 N 
ATOM      2  H   UNL     1       4.772   3.650  20.480  0.00  0.00    +0.000 HD
ENDROOT
BRANCH   1  13
ATOM      3  C   UNL     1       6.888   4.750  14.198  0.00  0.00    +0.000 A 
ATOM      4  C   UNL     1       5.861   3.865  14.509  0.00  0.00    +0.000 A 
ATOM      5  C   UNL     1       5.371   3.783  15.812  0.00  0.00    +0.000 A 
ATOM      6  C   UNL     1       5.898   4.590  16.824  0.00  0.00    +0.000 A 
ATOM      7  C   UNL     1       6.923   5.505  16.518  0.00  0.00    +0.000 A 
ATOM      8  C   UNL     1       7.399   5.585  15.197  0.00  0.00    +0.000 A 
ATOM      9  C   UNL     1       7.501   6.407  17.572  0.00  0.00    +0.000 C 
ATOM     10  C   UNL     1       7.496   5.714  18.925  0.00  0.00    +0.000 C 
ATOM     11  C   UNL     1       6.090   5.274  19.307  0.00  0.00    +0.000 C 
ATOM     12  C   UNL     1       5.426   4.410  18.240  0.00  0.00    +0.000 C 
ATOM     13  N   UNL     1       4.487   3.536  18.487  0.00  0.00    +0.000 NA
BRANCH   3  15
ATOM     14  C   UNL     1       7.034   3.957  11.973  0.00  0.00    +0.000 C 
ATOM     15  O   UNL     1       7.480   4.870  12.971  0.00  0.00    +0.000 OA
ENDBRANCH   3  15
ENDBRANCH   1  13
BRANCH   1  16
ATOM     16  C   UNL     1       2.737   3.584  20.131  0.00  0.00    +0.000 C 
BRANCH  16  17
ATOM     17  C   UNL     1       2.388   5.037  19.955  0.00  0.00    +0.000 A 
ATOM     18  N   UNL     1       1.935   5.866  20.870  0.00  0.00    +0.000 NA
ATOM     19  C   UNL     1       1.790   7.083  20.244  0.00  0.00    +0.000 A 
ATOM     20  C   UNL     1       1.330   8.303  20.759  0.00  0.00    +0.000 A 
ATOM     21  C   UNL     1       1.245   9.392  19.876  0.00  0.00    +0.000 A 
ATOM     22  C   UNL     1       1.630   9.285  18.528  0.00  0.00    +0.000 A 
ATOM     23  C   UNL     1       2.100   8.064  18.019  0.00  0.00    +0.000 A 
ATOM     24  C   UNL     1       2.160   6.992  18.911  0.00  0.00    +0.000 A 
ATOM     25  N   UNL     1       2.550   5.688  18.745  0.00  0.00    +0.000 N 
ATOM     26  H   UNL     1       2.896   5.271  17.901  0.00  0.00    +0.000 HD
BRANCH  21  27
ATOM     27  N   UNL     1       0.742  10.680  20.381  0.00  0.00    +0.000 N 
ATOM     28  O   UNL     1       0.162  11.422  19.592  0.00  0.00    +0.000 OA
ATOM     29  O   UNL     1       0.941  10.939  21.584  0.00  0.00    +0.000 OA
ENDBRANCH  21  27
ENDBRANCH  16  17
ENDBRANCH   1  16
TORSDOF 5
ENDMDL
MODEL 3
REMARK VINA RESULT:      -8.4      6.593      9.991
REMARK  Name = 
REMARK  6 active torsions:
REMARK  status: ('A' for Active; 'I' for Inactive)
REMARK    1  A    between atoms: C_1  and  O_2
REMARK    2  A    between atoms: O_2  and  C_3
REMARK    3  A    between atoms: N_13  and  N_14
REMARK    4  A    between atoms: N_14  and  C_15
REMARK    5  A    between atoms: C_15  and  C_16
REMARK    6  A    between atoms: C_20  and  N_21
REMARK                            x       y       z     vdW  Elec       q    Type
REMARK                         _______ _______ _______ _____ _____    ______ ____
ROOT
ATOM      1  N   UNL     1       7.443   8.113  17.255  0.00  0.00    +0.000 N 
ATOM      2  H   UNL     1       7.471   8.979  16.719  0.00  0.00    +0.000 HD
ENDROOT
BRANCH   1  13
ATOM      3  C   UNL     1       2.312   4.344  17.709  0.00  0.00    +0.000 A 
ATOM      4  C   UNL     1       2.549   5.628  18.187  0.00  0.00    +0.000 A 
ATOM      5  C   UNL     1       3.743   6.283  17.886  0.00  0.00    +0.000 A 
ATOM      6  C   UNL     1       4.717   5.663  17.097  0.00  0.00    +0.000 A 
ATOM      7  C   UNL     1       4.480   4.371  16.591  0.00  0.00    +0.000 A 
ATOM      8  C   UNL     1       3.266   3.728  16.893  0.00  0.00    +0.000 A 
ATOM      9  C   UNL     1       5.491   3.679  15.721  0.00  0.00    +0.000 C 
ATOM     10  C   UNL     1       6.901   4.077  16.126  0.00  0.00    +0.000 C 
ATOM     11  C   UNL     1       7.082   5.587  16.063  0.00  0.00    +0.000 C 
ATOM     12  C   UNL     1       6.037   6.345  16.874  0.00  0.00    +0.000 C 
ATOM     13  N   UNL     1       6.227   7.536  17.378  0.00  0.00    +0.000 NA
BRANCH   3  15
ATOM     14  C   UNL     1       1.211   2.921  19.247  0.00  0.00    +0.000 C 
ATOM     15  O   UNL     1       1.205   3.591  17.990  0.00  0.00    +0.000 OA
ENDBRANCH   3  15
ENDBRANCH   1  13
BRANCH   1  16
ATOM     16  C   UNL     1       8.266   8.201  18.459  0.00  0.00    +0.000 C 
BRANCH  16  17
ATOM     17  C   UNL     1       8.838   9.580  18.650  0.00  0.00    +0.000 A 
ATOM     18  N   UNL     1       8.787  10.588  17.806  0.00  0.00    +0.000 NA
ATOM     19  C   UNL     1       9.421  11.638  18.430  0.00  0.00    +0.000 A 
ATOM     20  C   UNL     1       9.655  12.941  17.967  0.00  0.00    +0.000 A 
ATOM     21  C   UNL     1      10.372  13.810  18.807  0.00  0.00    +0.000 A 
ATOM     22  C   UNL     1      10.819  13.412  20.078  0.00  0.00    +0.000 A 
ATOM     23  C   UNL     1      10.573  12.111  20.541  0.00  0.00    +0.000 A 
ATOM     24  C   UNL     1       9.874  11.259  19.684  0.00  0.00    +0.000 A 
ATOM     25  N   UNL     1       9.485   9.951  19.814  0.00  0.00    +0.000 N 
ATOM     26  H   UNL     1       9.635   9.360  20.611  0.00  0.00    +0.000 HD
BRANCH  21  27
ATOM     27  N   UNL     1      10.656  15.177  18.339  0.00  0.00    +0.000 N 
ATOM     28  O   UNL     1      10.045  16.106  18.863  0.00  0.00    +0.000 OA
ATOM     29  O   UNL     1      11.502  15.307  17.433  0.00  0.00    +0.000 OA
ENDBRANCH  21  27
ENDBRANCH  16  17
ENDBRANCH   1  16
TORSDOF 5
ENDMDL
MODEL 4
REMARK VINA RESULT:      -8.4      3.886      9.922
REMARK  Name = 
REMARK  6 active torsions:
REMARK  status: ('A' for Active; 'I' for Inactive)
REMARK    1  A    between atoms: C_1  and  O_2
REMARK    2  A    between atoms: O_2  and  C_3
REMARK    3  A    between atoms: N_13  and  N_14
REMARK    4  A    between atoms: N_14  and  C_15
REMARK    5  A    between atoms: C_15  and  C_16
REMARK    6  A    between atoms: C_20  and  N_21
REMARK                            x       y       z     vdW  Elec       q    Type
REMARK                         _______ _______ _______ _____ _____    ______ ____
ROOT
ATOM      1  N   UNL     1       1.854   6.252  19.797  0.00  0.00    +0.000 N 
ATOM      2  H   UNL     1       1.925   6.520  18.816  0.00  0.00    +0.000 HD
ENDROOT
BRANCH   1  13
ATOM      3  C   UNL     1      -0.729  11.303  22.724  0.00  0.00    +0.000 A 
ATOM      4  C   UNL     1      -0.504  10.004  23.167  0.00  0.00    +0.000 A 
ATOM      5  C   UNL     1       0.159   9.086  22.354  0.00  0.00    +0.000 A 
ATOM      6  C   UNL     1       0.612   9.455  21.084  0.00  0.00    +0.000 A 
ATOM      7  C   UNL     1       0.408  10.773  20.632  0.00  0.00    +0.000 A 
ATOM      8  C   UNL     1      -0.250  11.691  21.469  0.00  0.00    +0.000 A 
ATOM      9  C   UNL     1       0.901  11.217  19.283  0.00  0.00    +0.000 C 
ATOM     10  C   UNL     1       0.838  10.068  18.290  0.00  0.00    +0.000 C 
ATOM     11  C   UNL     1       1.640   8.873  18.788  0.00  0.00    +0.000 C 
ATOM     12  C   UNL     1       1.230   8.422  20.185  0.00  0.00    +0.000 C 
ATOM     13  N   UNL     1       1.382   7.204  20.633  0.00  0.00    +0.000 NA
BRANCH   3  15
ATOM     14  C   UNL     1      -2.836  12.214  23.302  0.00  0.00    +0.000 C 
ATOM     15  O   UNL     1      -1.416  12.263  23.415  0.00  0.00    +0.000 OA
ENDBRANCH   3  15
ENDBRANCH   1  13
BRANCH   1  16
ATOM     16  C   UNL     1       3.028   5.500  20.235  0.00  0.00    +0.000 C 
BRANCH  16  17
ATOM     17  C   UNL     1       4.023   5.313  19.121  0.00  0.00    +0.000 A 
ATOM     18  N   UNL     1       3.807   5.437  17.829  0.00  0.00    +0.000 NA
ATOM     19  C   UNL     1       5.015   5.196  17.217  0.00  0.00    +0.000 A 
ATOM     20  C   UNL     1       5.339   5.190  15.853  0.00  0.00    +0.000 A 
ATOM     21  C   UNL     1       6.660   4.870  15.499  0.00  0.00    +0.000 A 
ATOM     22  C   UNL     1       7.641   4.592  16.468  0.00  0.00    +0.000 A 
ATOM     23  C   UNL     1       7.315   4.612  17.832  0.00  0.00    +0.000 A 
ATOM     24  C   UNL     1       5.992   4.916  18.159  0.00  0.00    +0.000 A 
ATOM     25  N   UNL     1       5.348   5.005  19.367  0.00  0.00    +0.000 N 
ATOM     26  H   UNL     1       5.758   4.876  20.273  0.00  0.00    +0.000 HD
BRANCH  21  27
ATOM     27  N   UNL     1       7.025   4.829  14.073  0.00  0.00    +0.000 N 
ATOM     28  O   UNL     1       6.457   4.010  13.355  0.00  0.00    +0.000 OA
ATOM     29  O   UNL     1       7.895   5.632  13.682  0.00  0.00    +0.000 OA
ENDBRANCH  21  27
ENDBRANCH  16  17
ENDBRANCH   1  16
TORSDOF 5
ENDMDL
MODEL 5
REMARK VINA RESULT:      -8.3      2.078      9.785
REMARK  Name = 
REMARK  6 active torsions:
REMARK  status: ('A' for Active; 'I' for Inactive)
REMARK    1  A    between atoms: C_1  and  O_2
REMARK    2  A    between atoms: O_2  and  C_3
REMARK    3  A    between atoms: N_13  and  N_14
REMARK    4  A    between atoms: N_14  and  C_15
REMARK    5  A    between atoms: C_15  and  C_16
REMARK    6  A    between atoms: C_20  and  N_21
REMARK                            x       y       z     vdW  Elec       q    Type
REMARK                         _______ _______ _______ _____ _____    ______ ____
ROOT
ATOM      1  N   UNL     1       1.886   9.110  18.652  0.00  0.00    +0.000 N 
ATOM      2  H   UNL     1       2.299   9.855  19.210  0.00  0.00    +0.000 HD
ENDROOT
BRANCH   1  13
ATOM      3  C   UNL     1      -3.927  11.251  17.110  0.00  0.00    +0.000 A 
ATOM      4  C   UNL     1      -3.110  10.303  16.504  0.00  0.00    +0.000 A 
ATOM      5  C   UNL     1      -1.894   9.944  17.085  0.00  0.00    +0.000 A 
ATOM      6  C   UNL     1      -1.478  10.527  18.285  0.00  0.00    +0.000 A 
ATOM      7  C   UNL     1      -2.305  11.474  18.919  0.00  0.00    +0.000 A 
ATOM      8  C   UNL     1      -3.534  11.816  18.328  0.00  0.00    +0.000 A 
ATOM      9  C   UNL     1      -1.906  12.107  20.223  0.00  0.00    +0.000 C 
ATOM     10  C   UNL     1      -0.396  12.265  20.295  0.00  0.00    +0.000 C 
ATOM     11  C   UNL     1       0.303  10.925  20.113  0.00  0.00    +0.000 C 
ATOM     12  C   UNL     1      -0.118  10.203  18.837  0.00  0.00    +0.000 C 
ATOM     13  N   UNL     1       0.629   9.335  18.208  0.00  0.00    +0.000 NA
BRANCH   3  15
ATOM     14  C   UNL     1      -5.932  12.445  17.505  0.00  0.00    +0.000 C 
ATOM     15  O   UNL     1      -5.107  11.716  16.600  0.00  0.00    +0.000 OA
ENDBRANCH   3  15
ENDBRANCH   1  13
BRANCH   1  16
ATOM     16  C   UNL     1       2.168   7.794  19.221  0.00  0.00    +0.000 C 
BRANCH  16  17
ATOM     17  C   UNL     1       3.043   6.967  18.317  0.00  0.00    +0.000 A 
ATOM     18  N   UNL     1       3.872   7.401  17.393  0.00  0.00    +0.000 NA
ATOM     19  C   UNL     1       4.462   6.281  16.854  0.00  0.00    +0.000 A 
ATOM     20  C   UNL     1       5.412   6.179  15.828  0.00  0.00    +0.000 A 
ATOM     21  C   UNL     1       5.818   4.891  15.443  0.00  0.00    +0.000 A 
ATOM     22  C   UNL     1       5.321   3.737  16.074  0.00  0.00    +0.000 A 
ATOM     23  C   UNL     1       4.379   3.845  17.109  0.00  0.00    +0.000 A 
ATOM     24  C   UNL     1       3.977   5.134  17.463  0.00  0.00    +0.000 A 
ATOM     25  N   UNL     1       3.084   5.587  18.400  0.00  0.00    +0.000 N 
ATOM     26  H   UNL     1       2.554   5.025  19.039  0.00  0.00    +0.000 HD
BRANCH  21  27
ATOM     27  N   UNL     1       6.795   4.750  14.352  0.00  0.00    +0.000 N 
ATOM     28  O   UNL     1       7.813   5.437  14.394  0.00  0.00    +0.000 OA
ATOM     29  O   UNL     1       6.526   3.938  13.444  0.00  0.00    +0.000 OA
ENDBRANCH  21  27
ENDBRANCH  16  17
ENDBRANCH   1  16
TORSDOF 5
ENDMDL
MODEL 6
REMARK VINA RESULT:      -8.2      1.010      1.231
REMARK  Name = 
REMARK  6 active torsions:
REMARK  status: ('A' for Active; 'I' for Inactive)
REMARK    1  A    between atoms: C_1  and  O_2
REMARK    2  A    between atoms: O_2  and  C_3
REMARK    3  A    between atoms: N_13  and  N_14
REMARK    4  A    between atoms: N_14  and  C_15
REMARK    5  A    between atoms: C_15  and  C_16
REMARK    6  A    between atoms: C_20  and  N_21
REMARK                            x       y       z     vdW  Elec       q    Type
REMARK                         _______ _______ _______ _____ _____    ______ ____
ROOT
ATOM      1  N   UNL     1       1.714   8.338  19.019  0.00  0.00    +0.000 N 
ATOM      2  H   UNL     1       1.629   8.043  19.991  0.00  0.00    +0.000 HD
ENDROOT
BRANCH   1  13
ATOM      3  C   UNL     1       5.721   4.638  15.702  0.00  0.00    +0.000 A 
ATOM      4  C   UNL     1       5.578   6.021  15.749  0.00  0.00    +0.000 A 
ATOM      5  C   UNL     1       4.666   6.606  16.627  0.00  0.00    +0.000 A 
ATOM      6  C   UNL     1       3.886   5.816  17.475  0.00  0.00    +0.000 A 
ATOM      7  C   UNL     1       4.035   4.416  17.451  0.00  0.00    +0.000 A 
ATOM      8  C   UNL     1       4.968   3.841  16.570  0.00  0.00    +0.000 A 
ATOM      9  C   UNL     1       3.232   3.533  18.364  0.00  0.00    +0.000 C 
ATOM     10  C   UNL     1       1.858   4.134  18.611  0.00  0.00    +0.000 C 
ATOM     11  C   UNL     1       1.972   5.538  19.188  0.00  0.00    +0.000 C 
ATOM     12  C   UNL     1       2.837   6.462  18.337  0.00  0.00    +0.000 C 
ATOM     13  N   UNL     1       2.714   7.763  18.315  0.00  0.00    +0.000 NA
BRANCH   3  15
ATOM     14  C   UNL     1       6.070   3.835  13.503  0.00  0.00    +0.000 C 
ATOM     15  O   UNL     1       6.540   3.960  14.843  0.00  0.00    +0.000 OA
ENDBRANCH   3  15
ENDBRANCH   1  13
BRANCH   1  16
ATOM     16  C   UNL     1       1.543   9.783  18.880  0.00  0.00    +0.000 C 
BRANCH  16  17
ATOM     17  C   UNL     1       0.133  10.148  18.501  0.00  0.00    +0.000 A 
ATOM     18  N   UNL     1      -0.698  10.919  19.168  0.00  0.00    +0.000 NA
ATOM     19  C   UNL     1      -1.850  10.975  18.418  0.00  0.00    +0.000 A 
ATOM     20  C   UNL     1      -3.052  11.649  18.678  0.00  0.00    +0.000 A 
ATOM     21  C   UNL     1      -4.095  11.501  17.748  0.00  0.00    +0.000 A 
ATOM     22  C   UNL     1      -3.944  10.731  16.581  0.00  0.00    +0.000 A 
ATOM     23  C   UNL     1      -2.736  10.068  16.320  0.00  0.00    +0.000 A 
ATOM     24  C   UNL     1      -1.719  10.216  17.266  0.00  0.00    +0.000 A 
ATOM     25  N   UNL     1      -0.448   9.706  17.327  0.00  0.00    +0.000 N 
ATOM     26  H   UNL     1      -0.007   9.118  16.643  0.00  0.00    +0.000 HD
BRANCH  21  27
ATOM     27  N   UNL     1      -5.378  12.175  18.005  0.00  0.00    +0.000 N 
ATOM     28  O   UNL     1      -5.832  12.138  19.146  0.00  0.00    +0.000 OA
ATOM     29  O   UNL     1      -5.929  12.743  17.041  0.00  0.00    +0.000 OA
ENDBRANCH  21  27
ENDBRANCH  16  17
ENDBRANCH   1  16
TORSDOF 5
ENDMDL
MODEL 7
REMARK VINA RESULT:      -8.2      3.840      9.257
REMARK  Name = 
REMARK  6 active torsions:
REMARK  status: ('A' for Active; 'I' for Inactive)
REMARK    1  A    between atoms: C_1  and  O_2
REMARK    2  A    between atoms: O_2  and  C_3
REMARK    3  A    between atoms: N_13  and  N_14
REMARK    4  A    between atoms: N_14  and  C_15
REMARK    5  A    between atoms: C_15  and  C_16
REMARK    6  A    between atoms: C_20  and  N_21
REMARK                            x       y       z     vdW  Elec       q    Type
REMARK                         _______ _______ _______ _____ _____    ______ ____
ROOT
ATOM      1  N   UNL     1       1.789   6.502  21.040  0.00  0.00    +0.000 N 
ATOM      2  H   UNL     1       1.176   6.410  21.849  0.00  0.00    +0.000 HD
ENDROOT
BRANCH   1  13
ATOM      3  C   UNL     1       0.982  12.438  18.835  0.00  0.00    +0.000 A 
ATOM      4  C   UNL     1       1.724  11.371  18.341  0.00  0.00    +0.000 A 
ATOM      5  C   UNL     1       1.678  10.127  18.971  0.00  0.00    +0.000 A 
ATOM      6  C   UNL     1       0.883   9.931  20.104  0.00  0.00    +0.000 A 
ATOM      7  C   UNL     1       0.111  10.998  20.602  0.00  0.00    +0.000 A 
ATOM      8  C   UNL     1       0.158  12.242  19.949  0.00  0.00    +0.000 A 
ATOM      9  C   UNL     1      -0.775  10.822  21.804  0.00  0.00    +0.000 C 
ATOM     10  C   UNL     1      -0.162   9.826  22.774  0.00  0.00    +0.000 C 
ATOM     11  C   UNL     1       0.092   8.488  22.094  0.00  0.00    +0.000 C 
ATOM     12  C   UNL     1       0.930   8.614  20.826  0.00  0.00    +0.000 C 
ATOM     13  N   UNL     1       1.675   7.655  20.344  0.00  0.00    +0.000 NA
BRANCH   3  15
ATOM     14  C   UNL     1       0.769  14.754  19.273  0.00  0.00    +0.000 C 
ATOM     15  O   UNL     1       0.997  13.709  18.332  0.00  0.00    +0.000 OA
ENDBRANCH   3  15
ENDBRANCH   1  13
BRANCH   1  16
ATOM     16  C   UNL     1       1.853   5.261  20.272  0.00  0.00    +0.000 C 
BRANCH  16  17
ATOM     17  C   UNL     1       3.026   5.243  19.329  0.00  0.00    +0.000 A 
ATOM     18  N   UNL     1       3.038   4.835  18.078  0.00  0.00    +0.000 NA
ATOM     19  C   UNL     1       4.322   5.034  17.626  0.00  0.00    +0.000 A 
ATOM     20  C   UNL     1       4.878   4.760  16.368  0.00  0.00    +0.000 A 
ATOM     21  C   UNL     1       6.245   5.029  16.188  0.00  0.00    +0.000 A 
ATOM     22  C   UNL     1       7.033   5.581  17.213  0.00  0.00    +0.000 A 
ATOM     23  C   UNL     1       6.470   5.865  18.466  0.00  0.00    +0.000 A 
ATOM     24  C   UNL     1       5.114   5.574  18.628  0.00  0.00    +0.000 A 
ATOM     25  N   UNL     1       4.272   5.712  19.701  0.00  0.00    +0.000 N 
ATOM     26  H   UNL     1       4.509   6.089  20.600  0.00  0.00    +0.000 HD
BRANCH  21  27
ATOM     27  N   UNL     1       6.864   4.728  14.887  0.00  0.00    +0.000 N 
ATOM     28  O   UNL     1       6.404   3.796  14.230  0.00  0.00    +0.000 OA
ATOM     29  O   UNL     1       7.825   5.438  14.532  0.00  0.00    +0.000 OA
ENDBRANCH  21  27
ENDBRANCH  16  17
ENDBRANCH   1  16
TORSDOF 5
ENDMDL
MODEL 8
REMARK VINA RESULT:      -8.1      2.252      9.652
REMARK  Name = 
REMARK  6 active torsions:
REMARK  status: ('A' for Active; 'I' for Inactive)
REMARK    1  A    between atoms: C_1  and  O_2
REMARK    2  A    between atoms: O_2  and  C_3
REMARK    3  A    between atoms: N_13  and  N_14
REMARK    4  A    between atoms: N_14  and  C_15
REMARK    5  A    between atoms: C_15  and  C_16
REMARK    6  A    between atoms: C_20  and  N_21
REMARK                            x       y       z     vdW  Elec       q    Type
REMARK                         _______ _______ _______ _____ _____    ______ ____
ROOT
ATOM      1  N   UNL     1       1.697   9.908  18.515  0.00  0.00    +0.000 N 
ATOM      2  H   UNL     1       1.987   9.846  19.490  0.00  0.00    +0.000 HD
ENDROOT
BRANCH   1  13
ATOM      3  C   UNL     1      -4.542  11.034  17.774  0.00  0.00    +0.000 A 
ATOM      4  C   UNL     1      -3.715  10.063  17.219  0.00  0.00    +0.000 A 
ATOM      5  C   UNL     1      -2.377   9.972  17.604  0.00  0.00    +0.000 A 
ATOM      6  C   UNL     1      -1.848  10.850  18.554  0.00  0.00    +0.000 A 
ATOM      7  C   UNL     1      -2.681  11.823  19.138  0.00  0.00    +0.000 A 
ATOM      8  C   UNL     1      -4.030  11.895  18.750  0.00  0.00    +0.000 A 
ATOM      9  C   UNL     1      -2.156  12.771  20.181  0.00  0.00    +0.000 C 
ATOM     10  C   UNL     1      -0.696  13.097  19.915  0.00  0.00    +0.000 C 
ATOM     11  C   UNL     1       0.147  11.830  19.869  0.00  0.00    +0.000 C 
ATOM     12  C   UNL     1      -0.381  10.801  18.876  0.00  0.00    +0.000 C 
ATOM     13  N   UNL     1       0.363   9.896  18.297  0.00  0.00    +0.000 NA
BRANCH   3  15
ATOM     14  C   UNL     1      -6.804  11.066  18.469  0.00  0.00    +0.000 C 
ATOM     15  O   UNL     1      -5.848  11.247  17.428  0.00  0.00    +0.000 OA
ENDBRANCH   3  15
ENDBRANCH   1  13
BRANCH   1  16
ATOM     16  C   UNL     1       2.523   9.062  17.655  0.00  0.00    +0.000 C 
BRANCH  16  17
ATOM     17  C   UNL     1       2.701   7.682  18.228  0.00  0.00    +0.000 A 
ATOM     18  N   UNL     1       3.456   6.714  17.757  0.00  0.00    +0.000 NA
ATOM     19  C   UNL     1       3.312   5.660  18.629  0.00  0.00    +0.000 A 
ATOM     20  C   UNL     1       3.888   4.382  18.588  0.00  0.00    +0.000 A 
ATOM     21  C   UNL     1       3.533   3.475  19.601  0.00  0.00    +0.000 A 
ATOM     22  C   UNL     1       2.654   3.830  20.639  0.00  0.00    +0.000 A 
ATOM     23  C   UNL     1       2.089   5.114  20.682  0.00  0.00    +0.000 A 
ATOM     24  C   UNL     1       2.444   5.993  19.657  0.00  0.00    +0.000 A 
ATOM     25  N   UNL     1       2.073   7.287  19.395  0.00  0.00    +0.000 N 
ATOM     26  H   UNL     1       1.458   7.855  19.948  0.00  0.00    +0.000 HD
BRANCH  21  27
ATOM     27  N   UNL     1       4.101   2.118  19.571  0.00  0.00    +0.000 N 
ATOM     28  O   UNL     1       3.663   1.326  18.740  0.00  0.00    +0.000 OA
ATOM     29  O   UNL     1       4.996   1.854  20.398  0.00  0.00    +0.000 OA
ENDBRANCH  21  27
ENDBRANCH  16  17
ENDBRANCH   1  16
TORSDOF 5
ENDMDL
MODEL 9
REMARK VINA RESULT:      -8.1      1.445      2.667
REMARK  Name = 
REMARK  6 active torsions:
REMARK  status: ('A' for Active; 'I' for Inactive)
REMARK    1  A    between atoms: C_1  and  O_2
REMARK    2  A    between atoms: O_2  and  C_3
REMARK    3  A    between atoms: N_13  and  N_14
REMARK    4  A    between atoms: N_14  and  C_15
REMARK    5  A    between atoms: C_15  and  C_16
REMARK    6  A    between atoms: C_20  and  N_21
REMARK                            x       y       z     vdW  Elec       q    Type
REMARK                         _______ _______ _______ _____ _____    ______ ____
ROOT
ATOM      1  N   UNL     1       1.741   9.631  18.703  0.00  0.00    +0.000 N 
ATOM      2  H   UNL     1       1.606   9.725  17.697  0.00  0.00    +0.000 HD
ENDROOT
BRANCH   1  13
ATOM      3  C   UNL     1       2.983   3.603  20.395  0.00  0.00    +0.000 A 
ATOM      4  C   UNL     1       2.162   4.566  20.973  0.00  0.00    +0.000 A 
ATOM      5  C   UNL     1       1.993   5.808  20.362  0.00  0.00    +0.000 A 
ATOM      6  C   UNL     1       2.639   6.104  19.158  0.00  0.00    +0.000 A 
ATOM      7  C   UNL     1       3.456   5.130  18.553  0.00  0.00    +0.000 A 
ATOM      8  C   UNL     1       3.608   3.878  19.174  0.00  0.00    +0.000 A 
ATOM      9  C   UNL     1       4.150   5.401  17.247  0.00  0.00    +0.000 C 
ATOM     10  C   UNL     1       4.532   6.868  17.143  0.00  0.00    +0.000 C 
ATOM     11  C   UNL     1       3.310   7.762  17.296  0.00  0.00    +0.000 C 
ATOM     12  C   UNL     1       2.525   7.483  18.573  0.00  0.00    +0.000 C 
ATOM     13  N   UNL     1       1.774   8.366  19.177  0.00  0.00    +0.000 NA
BRANCH   3  15
ATOM     14  C   UNL     1       4.569   1.869  20.678  0.00  0.00    +0.000 C 
ATOM     15  O   UNL     1       3.263   2.379  20.936  0.00  0.00    +0.000 OA
ENDBRANCH   3  15
ENDBRANCH   1  13
BRANCH   1  16
ATOM     16  C   UNL     1       0.940  10.603  19.444  0.00  0.00    +0.000 C 
BRANCH  16  17
ATOM     17  C   UNL     1      -0.428  10.780  18.841  0.00  0.00    +0.000 A 
ATOM     18  N   UNL     1      -1.469  11.371  19.385  0.00  0.00    +0.000 NA
ATOM     19  C   UNL     1      -2.475  11.308  18.449  0.00  0.00    +0.000 A 
ATOM     20  C   UNL     1      -3.794  11.777  18.523  0.00  0.00    +0.000 A 
ATOM     21  C   UNL     1      -4.632  11.541  17.420  0.00  0.00    +0.000 A 
ATOM     22  C   UNL     1      -4.170  10.885  16.265  0.00  0.00    +0.000 A 
ATOM     23  C   UNL     1      -2.845  10.428  16.191  0.00  0.00    +0.000 A 
ATOM     24  C   UNL     1      -2.036  10.659  17.305  0.00  0.00    +0.000 A 
ATOM     25  N   UNL     1      -0.728  10.340  17.566  0.00  0.00    +0.000 N 
ATOM     26  H   UNL     1      -0.093   9.873  16.945  0.00  0.00    +0.000 HD
BRANCH  21  27
ATOM     27  N   UNL     1      -6.029  11.999  17.477  0.00  0.00    +0.000 N 
ATOM     28  O   UNL     1      -6.289  13.120  17.046  0.00  0.00    +0.000 OA
ATOM     29  O   UNL     1      -6.868  11.217  17.967  0.00  0.00    +0.000 OA
ENDBRANCH  21  27
ENDBRANCH  16  17
ENDBRANCH   1  16
TORSDOF 5
ENDMDL
