MODEL 1
REMARK VINA RESULT:      -7.5      0.000      0.000
REMARK  Name = 
REMARK  6 active torsions:
REMARK  status: ('A' for Active; 'I' for Inactive)
REMARK    1  A    between atoms: C_1  and  N_2
REMARK    2  A    between atoms: C_3  and  C_4
REMARK    3  A    between atoms: N_12  and  C_13
REMARK    4  A    between atoms: C_13  and  C_14
REMARK    5  A    between atoms: C_14  and  O_15
REMARK    6  A    between atoms: O_15  and  C_16
REMARK                            x       y       z     vdW  Elec       q    Type
REMARK                         _______ _______ _______ _____ _____    ______ ____
ROOT
ATOM      1  C   UNL     1       8.031   5.639  13.193  0.00  0.00    +0.000 C 
ATOM      2  N   UNL     1       7.070   4.861  13.932  0.00  0.00    +0.000 N 
ATOM      3  C   UNL     1       6.217   3.888  13.454  0.00  0.00    +0.000 A 
ATOM      4  N   UNL     1       5.449   3.415  14.423  0.00  0.00    +0.000 NA
ATOM      5  C   UNL     1       5.791   4.126  15.543  0.00  0.00    +0.000 A 
ATOM      6  C   UNL     1       6.804   5.010  15.261  0.00  0.00    +0.000 A 
ATOM      7  C   UNL     1       7.371   5.975  16.236  0.00  0.00    +0.000 C 
ATOM      8  C   UNL     1       6.824   5.630  17.653  0.00  0.00    +0.000 C 
ATOM      9  N   UNL     1       5.389   5.231  17.712  0.00  0.00    +0.000 NA
ATOM     10  C   UNL     1       5.166   3.995  16.894  0.00  0.00    +0.000 C 
ENDROOT
BRANCH   3  11
ATOM     11  C   UNL     1       6.103   3.435  11.998  0.00  0.00    +0.000 C 
ATOM     12  C   UNL     1       5.580   2.055  11.668  0.00  0.00    +0.000 C 
ATOM     13  C   UNL     1       4.704   3.238  11.447  0.00  0.00    +0.000 C 
ENDBRANCH   3  11
BRANCH   9  14
ATOM     14  C   UNL     1       4.514   6.360  17.327  0.00  0.00    +0.000 C 
BRANCH  14  15
ATOM     15  C   UNL     1       3.120   6.334  17.973  0.00  0.00    +0.000 C 
BRANCH  15  16
ATOM     16  O   UNL     1       3.252   6.057  19.372  0.00  0.00    +0.000 OA
BRANCH  16  17
ATOM     17  C   UNL     1       2.554   4.973  19.837  0.00  0.00    +0.000 A 
ATOM     18  C   UNL     1       2.493   4.551  21.171  0.00  0.00    +0.000 A 
ATOM     19  C   UNL     1       1.738   3.429  21.527  0.00  0.00    +0.000 A 
ATOM     20  C   UNL     1       1.037   2.724  20.551  0.00  0.00    +0.000 A 
ATOM     21  C   UNL     1       1.103   3.144  19.228  0.00  0.00    +0.000 A 
ATOM     22  F   UNL     1       0.432   2.465  18.289  0.00  0.00    +0.000 F 
ATOM     23  C   UNL     1       1.854   4.258  18.864  0.00  0.00    +0.000 A 
ENDBRANCH  16  17
ENDBRANCH  15  16
ENDBRANCH  14  15
ENDBRANCH   9  14
TORSDOF 5
ENDMDL
MODEL 2
REMARK VINA RESULT:      -7.4      4.756      8.001
REMARK  Name = 
REMARK  6 active torsions:
REMARK  status: ('A' for Active; 'I' for Inactive)
REMARK    1  A    between atoms: C_1  and  N_2
REMARK    2  A    between atoms: C_3  and  C_4
REMARK    3  A    between atoms: N_12  and  C_13
REMARK    4  A    between atoms: C_13  and  C_14
REMARK    5  A    between atoms: C_14  and  O_15
REMARK    6  A    between atoms: O_15  and  C_16
REMARK                            x       y       z     vdW  Elec       q    Type
REMARK                         _______ _______ _______ _____ _____    ______ ____
ROOT
ATOM      1  C   UNL     1       2.950   3.419  17.078  0.00  0.00    +0.000 C 
ATOM      2  N   UNL     1       3.762   4.007  18.112  0.00  0.00    +0.000 N 
ATOM      3  C   UNL     1       3.390   4.339  19.398  0.00  0.00    +0.000 A 
ATOM      4  N   UNL     1       4.397   4.896  20.053  0.00  0.00    +0.000 NA
ATOM      5  C   UNL     1       5.430   4.955  19.156  0.00  0.00    +0.000 A 
ATOM      6  C   UNL     1       5.061   4.394  17.958  0.00  0.00    +0.000 A 
ATOM      7  C   UNL     1       5.923   4.348  16.752  0.00  0.00    +0.000 C 
ATOM      8  C   UNL     1       7.363   4.786  17.152  0.00  0.00    +0.000 C 
ATOM      9  N   UNL     1       7.449   5.920  18.115  0.00  0.00    +0.000 NA
ATOM     10  C   UNL     1       6.778   5.550  19.404  0.00  0.00    +0.000 C 
ENDROOT
BRANCH   3  11
ATOM     11  C   UNL     1       1.995   4.161  20.000  0.00  0.00    +0.000 C 
ATOM     12  C   UNL     1       1.466   2.776  20.301  0.00  0.00    +0.000 C 
ATOM     13  C   UNL     1       1.921   3.642  21.422  0.00  0.00    +0.000 C 
ENDBRANCH   3  11
BRANCH   9  14
ATOM     14  C   UNL     1       6.921   7.163  17.511  0.00  0.00    +0.000 C 
BRANCH  14  15
ATOM     15  C   UNL     1       7.971   8.266  17.306  0.00  0.00    +0.000 C 
BRANCH  15  16
ATOM     16  O   UNL     1       8.511   8.647  18.577  0.00  0.00    +0.000 OA
BRANCH  16  17
ATOM     17  C   UNL     1       8.879   9.961  18.703  0.00  0.00    +0.000 A 
ATOM     18  C   UNL     1       8.680  10.961  17.743  0.00  0.00    +0.000 A 
ATOM     19  C   UNL     1       9.092  12.274  17.989  0.00  0.00    +0.000 A 
ATOM     20  C   UNL     1       9.703  12.596  19.198  0.00  0.00    +0.000 A 
ATOM     21  C   UNL     1       9.902  11.600  20.147  0.00  0.00    +0.000 A 
ATOM     22  F   UNL     1      10.493  11.908  21.309  0.00  0.00    +0.000 F 
ATOM     23  C   UNL     1       9.497  10.290  19.910  0.00  0.00    +0.000 A 
ENDBRANCH  16  17
ENDBRANCH  15  16
ENDBRANCH  14  15
ENDBRANCH   9  14
TORSDOF 5
ENDMDL
MODEL 3
REMARK VINA RESULT:      -7.2      1.109      1.484
REMARK  Name = 
REMARK  6 active torsions:
REMARK  status: ('A' for Active; 'I' for Inactive)
REMARK    1  A    between atoms: C_1  and  N_2
REMARK    2  A    between atoms: C_3  and  C_4
REMARK    3  A    between atoms: N_12  and  C_13
REMARK    4  A    between atoms: C_13  and  C_14
REMARK    5  A    between atoms: C_14  and  O_15
REMARK    6  A    between atoms: O_15  and  C_16
REMARK                            x       y       z     vdW  Elec       q    Type
REMARK                         _______ _______ _______ _____ _____    ______ ____
ROOT
ATOM      1  C   UNL     1       8.061   5.395  13.611  0.00  0.00    +0.000 C 
ATOM      2  N   UNL     1       6.985   4.703  14.273  0.00  0.00    +0.000 N 
ATOM      3  C   UNL     1       5.982   3.949  13.702  0.00  0.00    +0.000 A 
ATOM      4  N   UNL     1       5.147   3.496  14.624  0.00  0.00    +0.000 NA
ATOM      5  C   UNL     1       5.605   4.000  15.813  0.00  0.00    +0.000 A 
ATOM      6  C   UNL     1       6.750   4.733  15.617  0.00  0.00    +0.000 A 
ATOM      7  C   UNL     1       7.471   5.465  16.686  0.00  0.00    +0.000 C 
ATOM      8  C   UNL     1       6.877   5.047  18.064  0.00  0.00    +0.000 C 
ATOM      9  N   UNL     1       5.395   4.886  18.106  0.00  0.00    +0.000 NA
ATOM     10  C   UNL     1       4.969   3.812  17.152  0.00  0.00    +0.000 C 
ENDROOT
BRANCH   3  11
ATOM     11  C   UNL     1       5.791   3.701  12.205  0.00  0.00    +0.000 C 
ATOM     12  C   UNL     1       5.491   2.309  11.696  0.00  0.00    +0.000 C 
ATOM     13  C   UNL     1       4.399   3.319  11.743  0.00  0.00    +0.000 C 
ENDBRANCH   3  11
BRANCH   9  14
ATOM     14  C   UNL     1       4.720   6.181  17.877  0.00  0.00    +0.000 C 
BRANCH  14  15
ATOM     15  C   UNL     1       3.242   6.067  17.473  0.00  0.00    +0.000 C 
BRANCH  15  16
ATOM     16  O   UNL     1       2.423   6.142  18.646  0.00  0.00    +0.000 OA
BRANCH  16  17
ATOM     17  C   UNL     1       2.015   4.943  19.170  0.00  0.00    +0.000 A 
ATOM     18  C   UNL     1       1.383   3.914  18.462  0.00  0.00    +0.000 A 
ATOM     19  C   UNL     1       1.018   2.728  19.106  0.00  0.00    +0.000 A 
ATOM     20  C   UNL     1       1.287   2.562  20.462  0.00  0.00    +0.000 A 
ATOM     21  C   UNL     1       1.912   3.587  21.163  0.00  0.00    +0.000 A 
ATOM     22  F   UNL     1       2.167   3.430  22.468  0.00  0.00    +0.000 F 
ATOM     23  C   UNL     1       2.276   4.772  20.531  0.00  0.00    +0.000 A 
ENDBRANCH  16  17
ENDBRANCH  15  16
ENDBRANCH  14  15
ENDBRANCH   9  14
TORSDOF 5
ENDMDL
MODEL 4
REMARK VINA RESULT:      -7.1      4.521      7.714
REMARK  Name = 
REMARK  6 active torsions:
REMARK  status: ('A' for Active; 'I' for Inactive)
REMARK    1  A    between atoms: C_1  and  N_2
REMARK    2  A    between atoms: C_3  and  C_4
REMARK    3  A    between atoms: N_12  and  C_13
REMARK    4  A    between atoms: C_13  and  C_14
REMARK    5  A    between atoms: C_14  and  O_15
REMARK    6  A    between atoms: O_15  and  C_16
REMARK                            x       y       z     vdW  Elec       q    Type
REMARK                         _______ _______ _______ _____ _____    ______ ____
ROOT
ATOM      1  C   UNL     1       2.892   3.597  17.061  0.00  0.00    +0.000 C 
ATOM      2  N   UNL     1       3.771   4.238  18.006  0.00  0.00    +0.000 N 
ATOM      3  C   UNL     1       3.448   4.793  19.226  0.00  0.00    +0.000 A 
ATOM      4  N   UNL     1       4.514   5.326  19.801  0.00  0.00    +0.000 NA
ATOM      5  C   UNL     1       5.541   5.141  18.913  0.00  0.00    +0.000 A 
ATOM      6  C   UNL     1       5.103   4.454  17.807  0.00  0.00    +0.000 A 
ATOM      7  C   UNL     1       5.947   4.138  16.628  0.00  0.00    +0.000 C 
ATOM      8  C   UNL     1       7.429   4.470  16.973  0.00  0.00    +0.000 C 
ATOM      9  N   UNL     1       7.645   5.716  17.761  0.00  0.00    +0.000 NA
ATOM     10  C   UNL     1       6.948   5.614  19.084  0.00  0.00    +0.000 C 
ENDROOT
BRANCH   3  11
ATOM     11  C   UNL     1       2.046   4.859  19.835  0.00  0.00    +0.000 C 
ATOM     12  C   UNL     1       1.149   3.641  19.814  0.00  0.00    +0.000 C 
ATOM     13  C   UNL     1       1.803   4.044  21.089  0.00  0.00    +0.000 C 
ENDBRANCH   3  11
BRANCH   9  14
ATOM     14  C   UNL     1       7.253   6.907  16.977  0.00  0.00    +0.000 C 
BRANCH  14  15
ATOM     15  C   UNL     1       7.222   8.217  17.780  0.00  0.00    +0.000 C 
BRANCH  15  16
ATOM     16  O   UNL     1       8.531   8.488  18.293  0.00  0.00    +0.000 OA
BRANCH  16  17
ATOM     17  C   UNL     1       8.801   9.800  18.587  0.00  0.00    +0.000 A 
ATOM     18  C   UNL     1       9.503  10.258  19.708  0.00  0.00    +0.000 A 
ATOM     19  C   UNL     1       9.724  11.626  19.897  0.00  0.00    +0.000 A 
ATOM     20  C   UNL     1       9.245  12.543  18.965  0.00  0.00    +0.000 A 
ATOM     21  C   UNL     1       8.545  12.084  17.855  0.00  0.00    +0.000 A 
ATOM     22  F   UNL     1       8.082  12.966  16.959  0.00  0.00    +0.000 F 
ATOM     23  C   UNL     1       8.319  10.725  17.660  0.00  0.00    +0.000 A 
ENDBRANCH  16  17
ENDBRANCH  15  16
ENDBRANCH  14  15
ENDBRANCH   9  14
TORSDOF 5
ENDMDL
MODEL 5
REMARK VINA RESULT:      -7.0      4.030      4.998
REMARK  Name = 
REMARK  6 active torsions:
REMARK  status: ('A' for Active; 'I' for Inactive)
REMARK    1  A    between atoms: C_1  and  N_2
REMARK    2  A    between atoms: C_3  and  C_4
REMARK    3  A    between atoms: N_12  and  C_13
REMARK    4  A    between atoms: C_13  and  C_14
REMARK    5  A    between atoms: C_14  and  O_15
REMARK    6  A    between atoms: O_15  and  C_16
REMARK                            x       y       z     vdW  Elec       q    Type
REMARK                         _______ _______ _______ _____ _____    ______ ____
ROOT
ATOM      1  C   UNL     1       7.276   4.735  17.957  0.00  0.00    +0.000 C 
ATOM      2  N   UNL     1       5.938   4.476  17.492  0.00  0.00    +0.000 N 
ATOM      3  C   UNL     1       5.539   4.066  16.238  0.00  0.00    +0.000 A 
ATOM      4  N   UNL     1       4.221   3.966  16.169  0.00  0.00    +0.000 NA
ATOM      5  C   UNL     1       3.759   4.354  17.398  0.00  0.00    +0.000 A 
ATOM      6  C   UNL     1       4.807   4.655  18.234  0.00  0.00    +0.000 A 
ATOM      7  C   UNL     1       4.656   5.165  19.618  0.00  0.00    +0.000 C 
ATOM      8  C   UNL     1       3.160   5.044  20.034  0.00  0.00    +0.000 C 
ATOM      9  N   UNL     1       2.166   5.384  18.976  0.00  0.00    +0.000 NA
ATOM     10  C   UNL     1       2.325   4.461  17.807  0.00  0.00    +0.000 C 
ENDROOT
BRANCH   3  11
ATOM     11  C   UNL     1       6.462   3.813  15.044  0.00  0.00    +0.000 C 
ATOM     12  C   UNL     1       5.947   3.990  13.633  0.00  0.00    +0.000 C 
ATOM     13  C   UNL     1       6.856   5.017  14.212  0.00  0.00    +0.000 C 
ENDBRANCH   3  11
BRANCH   9  14
ATOM     14  C   UNL     1       2.254   6.815  18.615  0.00  0.00    +0.000 C 
BRANCH  14  15
ATOM     15  C   UNL     1       2.176   7.780  19.808  0.00  0.00    +0.000 C 
BRANCH  15  16
ATOM     16  O   UNL     1       1.218   8.807  19.525  0.00  0.00    +0.000 OA
BRANCH  16  17
ATOM     17  C   UNL     1       0.598   9.365  20.613  0.00  0.00    +0.000 A 
ATOM     18  C   UNL     1       0.696   8.908  21.933  0.00  0.00    +0.000 A 
ATOM     19  C   UNL     1       0.022   9.567  22.965  0.00  0.00    +0.000 A 
ATOM     20  C   UNL     1      -0.754  10.689  22.683  0.00  0.00    +0.000 A 
ATOM     21  C   UNL     1      -0.851  11.137  21.371  0.00  0.00    +0.000 A 
ATOM     22  F   UNL     1      -1.599  12.215  21.098  0.00  0.00    +0.000 F 
ATOM     23  C   UNL     1      -0.185  10.486  20.337  0.00  0.00    +0.000 A 
ENDBRANCH  16  17
ENDBRANCH  15  16
ENDBRANCH  14  15
ENDBRANCH   9  14
TORSDOF 5
ENDMDL
MODEL 6
REMARK VINA RESULT:      -7.0      4.936      7.990
REMARK  Name = 
REMARK  6 active torsions:
REMARK  status: ('A' for Active; 'I' for Inactive)
REMARK    1  A    between atoms: C_1  and  N_2
REMARK    2  A    between atoms: C_3  and  C_4
REMARK    3  A    between atoms: N_12  and  C_13
REMARK    4  A    between atoms: C_13  and  C_14
REMARK    5  A    between atoms: C_14  and  O_15
REMARK    6  A    between atoms: O_15  and  C_16
REMARK                            x       y       z     vdW  Elec       q    Type
REMARK                         _______ _______ _______ _____ _____    ______ ____
ROOT
ATOM      1  C   UNL     1       2.463   5.847  18.507  0.00  0.00    +0.000 C 
ATOM      2  N   UNL     1       3.704   5.120  18.585  0.00  0.00    +0.000 N 
ATOM      3  C   UNL     1       3.987   4.001  19.340  0.00  0.00    +0.000 A 
ATOM      4  N   UNL     1       5.249   3.632  19.184  0.00  0.00    +0.000 NA
ATOM      5  C   UNL     1       5.800   4.556  18.337  0.00  0.00    +0.000 A 
ATOM      6  C   UNL     1       4.855   5.472  17.942  0.00  0.00    +0.000 A 
ATOM      7  C   UNL     1       5.132   6.641  17.072  0.00  0.00    +0.000 C 
ATOM      8  C   UNL     1       6.567   6.497  16.486  0.00  0.00    +0.000 C 
ATOM      9  N   UNL     1       7.600   5.977  17.427  0.00  0.00    +0.000 NA
ATOM     10  C   UNL     1       7.225   4.602  17.891  0.00  0.00    +0.000 C 
ENDROOT
BRANCH   3  11
ATOM     11  C   UNL     1       3.018   3.293  20.288  0.00  0.00    +0.000 C 
ATOM     12  C   UNL     1       1.532   3.558  20.195  0.00  0.00    +0.000 C 
ATOM     13  C   UNL     1       2.078   2.275  19.676  0.00  0.00    +0.000 C 
ENDBRANCH   3  11
BRANCH   9  14
ATOM     14  C   UNL     1       7.830   6.932  18.533  0.00  0.00    +0.000 C 
BRANCH  14  15
ATOM     15  C   UNL     1       8.102   8.375  18.082  0.00  0.00    +0.000 C 
BRANCH  15  16
ATOM     16  O   UNL     1       9.134   8.939  18.899  0.00  0.00    +0.000 OA
BRANCH  16  17
ATOM     17  C   UNL     1       9.143  10.306  18.997  0.00  0.00    +0.000 A 
ATOM     18  C   UNL     1       8.926  11.202  17.942  0.00  0.00    +0.000 A 
ATOM     19  C   UNL     1       8.951  12.582  18.166  0.00  0.00    +0.000 A 
ATOM     20  C   UNL     1       9.190  13.074  19.447  0.00  0.00    +0.000 A 
ATOM     21  C   UNL     1       9.408  12.182  20.490  0.00  0.00    +0.000 A 
ATOM     22  F   UNL     1       9.641  12.655  21.721  0.00  0.00    +0.000 F 
ATOM     23  C   UNL     1       9.387  10.807  20.276  0.00  0.00    +0.000 A 
ENDBRANCH  16  17
ENDBRANCH  15  16
ENDBRANCH  14  15
ENDBRANCH   9  14
TORSDOF 5
ENDMDL
MODEL 7
REMARK VINA RESULT:      -7.0      3.301      6.092
REMARK  Name = 
REMARK  6 active torsions:
REMARK  status: ('A' for Active; 'I' for Inactive)
REMARK    1  A    between atoms: C_1  and  N_2
REMARK    2  A    between atoms: C_3  and  C_4
REMARK    3  A    between atoms: N_12  and  C_13
REMARK    4  A    between atoms: C_13  and  C_14
REMARK    5  A    between atoms: C_14  and  O_15
REMARK    6  A    between atoms: O_15  and  C_16
REMARK                            x       y       z     vdW  Elec       q    Type
REMARK                         _______ _______ _______ _____ _____    ______ ____
ROOT
ATOM      1  C   UNL     1       1.369   7.573  20.622  0.00  0.00    +0.000 C 
ATOM      2  N   UNL     1       2.117   7.759  19.405  0.00  0.00    +0.000 N 
ATOM      3  C   UNL     1       1.908   8.695  18.414  0.00  0.00    +0.000 A 
ATOM      4  N   UNL     1       2.774   8.538  17.425  0.00  0.00    +0.000 NA
ATOM      5  C   UNL     1       3.536   7.454  17.772  0.00  0.00    +0.000 A 
ATOM      6  C   UNL     1       3.155   6.971  19.001  0.00  0.00    +0.000 A 
ATOM      7  C   UNL     1       3.736   5.768  19.646  0.00  0.00    +0.000 C 
ATOM      8  C   UNL     1       4.992   5.327  18.838  0.00  0.00    +0.000 C 
ATOM      9  N   UNL     1       4.874   5.423  17.355  0.00  0.00    +0.000 NA
ATOM     10  C   UNL     1       4.626   6.845  16.951  0.00  0.00    +0.000 C 
ENDROOT
BRANCH   3  11
ATOM     11  C   UNL     1       0.797   9.745  18.396  0.00  0.00    +0.000 C 
ATOM     12  C   UNL     1       0.329  10.381  19.687  0.00  0.00    +0.000 C 
ATOM     13  C   UNL     1       1.187  11.165  18.757  0.00  0.00    +0.000 C 
ENDBRANCH   3  11
BRANCH   9  14
ATOM     14  C   UNL     1       3.854   4.479  16.849  0.00  0.00    +0.000 C 
BRANCH  14  15
ATOM     15  C   UNL     1       4.163   2.999  17.123  0.00  0.00    +0.000 C 
BRANCH  15  16
ATOM     16  O   UNL     1       2.945   2.310  17.428  0.00  0.00    +0.000 OA
BRANCH  16  17
ATOM     17  C   UNL     1       2.336   2.661  18.605  0.00  0.00    +0.000 A 
ATOM     18  C   UNL     1       1.121   3.347  18.723  0.00  0.00    +0.000 A 
ATOM     19  C   UNL     1       0.593   3.644  19.983  0.00  0.00    +0.000 A 
ATOM     20  C   UNL     1       1.275   3.254  21.132  0.00  0.00    +0.000 A 
ATOM     21  C   UNL     1       2.482   2.576  21.011  0.00  0.00    +0.000 A 
ATOM     22  F   UNL     1       3.141   2.202  22.116  0.00  0.00    +0.000 F 
ATOM     23  C   UNL     1       3.017   2.278  19.761  0.00  0.00    +0.000 A 
ENDBRANCH  16  17
ENDBRANCH  15  16
ENDBRANCH  14  15
ENDBRANCH   9  14
TORSDOF 5
ENDMDL
MODEL 8
REMARK VINA RESULT:      -6.9      2.966      5.565
REMARK  Name = 
REMARK  6 active torsions:
REMARK  status: ('A' for Active; 'I' for Inactive)
REMARK    1  A    between atoms: C_1  and  N_2
REMARK    2  A    between atoms: C_3  and  C_4
REMARK    3  A    between atoms: N_12  and  C_13
REMARK    4  A    between atoms: C_13  and  C_14
REMARK    5  A    between atoms: C_14  and  O_15
REMARK    6  A    between atoms: O_15  and  C_16
REMARK                            x       y       z     vdW  Elec       q    Type
REMARK                         _______ _______ _______ _____ _____    ______ ____
ROOT
ATOM      1  C   UNL     1       2.810   2.005  17.527  0.00  0.00    +0.000 C 
ATOM      2  N   UNL     1       3.676   2.929  18.212  0.00  0.00    +0.000 N 
ATOM      3  C   UNL     1       3.595   3.358  19.520  0.00  0.00    +0.000 A 
ATOM      4  N   UNL     1       4.545   4.241  19.788  0.00  0.00    +0.000 NA
ATOM      5  C   UNL     1       5.231   4.410  18.615  0.00  0.00    +0.000 A 
ATOM      6  C   UNL     1       4.719   3.593  17.636  0.00  0.00    +0.000 A 
ATOM      7  C   UNL     1       5.193   3.570  16.231  0.00  0.00    +0.000 C 
ATOM      8  C   UNL     1       6.504   4.406  16.133  0.00  0.00    +0.000 C 
ATOM      9  N   UNL     1       6.530   5.663  16.933  0.00  0.00    +0.000 NA
ATOM     10  C   UNL     1       6.372   5.348  18.390  0.00  0.00    +0.000 C 
ENDROOT
BRANCH   3  11
ATOM     11  C   UNL     1       2.529   2.941  20.534  0.00  0.00    +0.000 C 
ATOM     12  C   UNL     1       1.983   3.948  21.523  0.00  0.00    +0.000 C 
ATOM     13  C   UNL     1       1.146   3.539  20.362  0.00  0.00    +0.000 C 
ENDBRANCH   3  11
BRANCH   9  14
ATOM     14  C   UNL     1       5.530   6.628  16.426  0.00  0.00    +0.000 C 
BRANCH  14  15
ATOM     15  C   UNL     1       4.879   7.499  17.511  0.00  0.00    +0.000 C 
BRANCH  15  16
ATOM     16  O   UNL     1       3.480   7.635  17.232  0.00  0.00    +0.000 OA
BRANCH  16  17
ATOM     17  C   UNL     1       2.670   7.853  18.316  0.00  0.00    +0.000 A 
ATOM     18  C   UNL     1       2.571   7.026  19.441  0.00  0.00    +0.000 A 
ATOM     19  C   UNL     1       1.713   7.358  20.494  0.00  0.00    +0.000 A 
ATOM     20  C   UNL     1       0.950   8.521  20.428  0.00  0.00    +0.000 A 
ATOM     21  C   UNL     1       1.048   9.337  19.308  0.00  0.00    +0.000 A 
ATOM     22  F   UNL     1       0.312  10.455  19.242  0.00  0.00    +0.000 F 
ATOM     23  C   UNL     1       1.898   9.014  18.254  0.00  0.00    +0.000 A 
ENDBRANCH  16  17
ENDBRANCH  15  16
ENDBRANCH  14  15
ENDBRANCH   9  14
TORSDOF 5
ENDMDL
MODEL 9
REMARK VINA RESULT:      -6.9      4.536      7.813
REMARK  Name = 
REMARK  6 active torsions:
REMARK  status: ('A' for Active; 'I' for Inactive)
REMARK    1  A    between atoms: C_1  and  N_2
REMARK    2  A    between atoms: C_3  and  C_4
REMARK    3  A    between atoms: N_12  and  C_13
REMARK    4  A    between atoms: C_13  and  C_14
REMARK    5  A    between atoms: C_14  and  O_15
REMARK    6  A    between atoms: O_15  and  C_16
REMARK                            x       y       z     vdW  Elec       q    Type
REMARK                         _______ _______ _______ _____ _____    ______ ____
ROOT
ATOM      1  C   UNL     1       2.200   6.542  18.263  0.00  0.00    +0.000 C 
ATOM      2  N   UNL     1       3.286   5.599  18.345  0.00  0.00    +0.000 N 
ATOM      3  C   UNL     1       3.350   4.441  19.092  0.00  0.00    +0.000 A 
ATOM      4  N   UNL     1       4.524   3.847  18.944  0.00  0.00    +0.000 NA
ATOM      5  C   UNL     1       5.244   4.660  18.110  0.00  0.00    +0.000 A 
ATOM      6  C   UNL     1       4.488   5.738  17.716  0.00  0.00    +0.000 A 
ATOM      7  C   UNL     1       4.984   6.842  16.859  0.00  0.00    +0.000 C 
ATOM      8  C   UNL     1       6.375   6.441  16.284  0.00  0.00    +0.000 C 
ATOM      9  N   UNL     1       7.285   5.733  17.229  0.00  0.00    +0.000 NA
ATOM     10  C   UNL     1       6.658   4.447  17.677  0.00  0.00    +0.000 C 
ENDROOT
BRANCH   3  11
ATOM     11  C   UNL     1       2.258   3.916  20.025  0.00  0.00    +0.000 C 
ATOM     12  C   UNL     1       2.549   2.774  20.972  0.00  0.00    +0.000 C 
ATOM     13  C   UNL     1       2.447   4.158  21.509  0.00  0.00    +0.000 C 
ENDBRANCH   3  11
BRANCH   9  14
ATOM     14  C   UNL     1       7.675   6.620  18.346  0.00  0.00    +0.000 C 
BRANCH  14  15
ATOM     15  C   UNL     1       8.062   8.045  17.922  0.00  0.00    +0.000 C 
BRANCH  15  16
ATOM     16  O   UNL     1       8.943   8.607  18.903  0.00  0.00    +0.000 OA
BRANCH  16  17
ATOM     17  C   UNL     1       9.037   9.974  18.910  0.00  0.00    +0.000 A 
ATOM     18  C   UNL     1       9.717  10.741  19.864  0.00  0.00    +0.000 A 
ATOM     19  C   UNL     1       9.751  12.135  19.762  0.00  0.00    +0.000 A 
ATOM     20  C   UNL     1       9.107  12.770  18.703  0.00  0.00    +0.000 A 
ATOM     21  C   UNL     1       8.431  12.006  17.760  0.00  0.00    +0.000 A 
ATOM     22  F   UNL     1       7.808  12.616  16.743  0.00  0.00    +0.000 F 
ATOM     23  C   UNL     1       8.389  10.618  17.855  0.00  0.00    +0.000 A 
ENDBRANCH  16  17
ENDBRANCH  15  16
ENDBRANCH  14  15
ENDBRANCH   9  14
TORSDOF 5
ENDMDL
