MODEL 1
REMARK VINA RESULT:      -7.3      0.000      0.000
REMARK  Name = 
REMARK  5 active torsions:
REMARK  status: ('A' for Active; 'I' for Inactive)
REMARK    1  A    between atoms: C_2  and  C_3
REMARK    2  A    between atoms: C_4  and  N_5
REMARK    3  A    between atoms: C_6  and  C_8
REMARK    4  A    between atoms: C_10  and  C_11
REMARK    5  A    between atoms: N_13  and  C_14
REMARK                            x       y       z     vdW  Elec       q    Type
REMARK                         _______ _______ _______ _____ _____    ______ ____
ROOT
ATOM      1  C   UNL     1       4.221   2.863  19.772  0.00  0.00    +0.000 A 
ATOM      2  C   UNL     1       4.588   4.226  19.426  0.00  0.00    +0.000 A 
ATOM      3  C   UNL     1       3.430   4.873  18.956  0.00  0.00    +0.000 A 
ATOM      4  N   UNL     1       2.452   3.926  18.990  0.00  0.00    +0.000 N 
ATOM      5  C   UNL     1       2.888   2.740  19.482  0.00  0.00    +0.000 A 
ATOM      6  C   UNL     1       1.781   1.766  19.582  0.00  0.00    +0.000 C 
ATOM      7  C   UNL     1       0.704   2.418  18.684  0.00  0.00    +0.000 C 
ATOM      8  C   UNL     1       1.032   3.921  18.666  0.00  0.00    +0.000 C 
ENDROOT
BRANCH   2   9
ATOM      9  N   UNL     1       5.807   4.885  19.574  0.00  0.00    +0.000 N 
ATOM     10  C   UNL     1       6.715   5.140  18.560  0.00  0.00    +0.000 C 
ATOM     11  O   UNL     1       6.562   4.838  17.381  0.00  0.00    +0.000 OA
ATOM     12  H   UNL     1       6.004   5.304  20.479  0.00  0.00    +0.000 HD
BRANCH  10  13
ATOM     13  C   UNL     1       7.992   5.835  18.996  0.00  0.00    +0.000 C 
ATOM     14 CL   UNL     1       8.107   7.466  18.294  0.00  0.00    +0.000 Cl
ENDBRANCH  10  13
ENDBRANCH   2   9
BRANCH   3  15
ATOM     15  C   UNL     1       3.109   6.232  18.545  0.00  0.00    +0.000 C 
ATOM     16  O   UNL     1       3.632   6.695  17.535  0.00  0.00    +0.000 OA
ATOM     17  N   UNL     1       2.276   6.959  19.388  0.00  0.00    +0.000 N 
ATOM     18  H   UNL     1       2.113   6.581  20.310  0.00  0.00    +0.000 HD
BRANCH  17  19
ATOM     19  C   UNL     1       1.884   8.309  19.168  0.00  0.00    +0.000 A 
ATOM     20  C   UNL     1       2.207   9.024  18.008  0.00  0.00    +0.000 A 
ATOM     21  C   UNL     1       1.847  10.367  17.857  0.00  0.00    +0.000 A 
ATOM     22  C   UNL     1       1.140  11.014  18.862  0.00  0.00    +0.000 A 
ATOM     23  C   UNL     1       0.783  10.311  20.011  0.00  0.00    +0.000 A 
ATOM     24  C   UNL     1       1.146   8.964  20.162  0.00  0.00    +0.000 A 
ENDBRANCH  17  19
ENDBRANCH   3  15
BRANCH   1  26
ATOM     25  N   UNL     1       5.543   1.006  21.009  0.00  0.00    +0.000 NA
ATOM     26  C   UNL     1       4.945   1.796  20.402  0.00  0.00    +0.000 C 
ENDBRANCH   1  26
TORSDOF 5
ENDMDL
MODEL 2
REMARK VINA RESULT:      -7.3      2.904      6.425
REMARK  Name = 
REMARK  5 active torsions:
REMARK  status: ('A' for Active; 'I' for Inactive)
REMARK    1  A    between atoms: C_2  and  C_3
REMARK    2  A    between atoms: C_4  and  N_5
REMARK    3  A    between atoms: C_6  and  C_8
REMARK    4  A    between atoms: C_10  and  C_11
REMARK    5  A    between atoms: N_13  and  C_14
REMARK                            x       y       z     vdW  Elec       q    Type
REMARK                         _______ _______ _______ _____ _____    ______ ____
ROOT
ATOM      1  C   UNL     1       1.364   8.165  20.833  0.00  0.00    +0.000 A 
ATOM      2  C   UNL     1       1.975   6.916  20.411  0.00  0.00    +0.000 A 
ATOM      3  C   UNL     1       2.385   7.073  19.073  0.00  0.00    +0.000 A 
ATOM      4  N   UNL     1       1.997   8.331  18.724  0.00  0.00    +0.000 N 
ATOM      5  C   UNL     1       1.409   9.000  19.747  0.00  0.00    +0.000 A 
ATOM      6  C   UNL     1       1.080  10.387  19.357  0.00  0.00    +0.000 C 
ATOM      7  C   UNL     1       1.179  10.313  17.816  0.00  0.00    +0.000 C 
ATOM      8  C   UNL     1       2.121   9.133  17.516  0.00  0.00    +0.000 C 
ENDROOT
BRANCH   2   9
ATOM      9  N   UNL     1       2.230   5.758  21.142  0.00  0.00    +0.000 N 
ATOM     10  C   UNL     1       1.635   4.526  20.934  0.00  0.00    +0.000 C 
ATOM     11  O   UNL     1       0.810   4.276  20.060  0.00  0.00    +0.000 OA
ATOM     12  H   UNL     1       2.989   5.790  21.817  0.00  0.00    +0.000 HD
BRANCH  10  13
ATOM     13  C   UNL     1       2.055   3.434  21.902  0.00  0.00    +0.000 C 
ATOM     14 CL   UNL     1       3.310   2.393  21.189  0.00  0.00    +0.000 Cl
ENDBRANCH  10  13
ENDBRANCH   2   9
BRANCH   3  15
ATOM     15  C   UNL     1       3.119   6.251  18.121  0.00  0.00    +0.000 C 
ATOM     16  O   UNL     1       2.565   5.282  17.612  0.00  0.00    +0.000 OA
ATOM     17  N   UNL     1       4.453   6.580  17.911  0.00  0.00    +0.000 N 
ATOM     18  H   UNL     1       4.876   7.223  18.565  0.00  0.00    +0.000 HD
BRANCH  17  19
ATOM     19  C   UNL     1       5.333   5.869  17.047  0.00  0.00    +0.000 A 
ATOM     20  C   UNL     1       6.365   5.045  17.510  0.00  0.00    +0.000 A 
ATOM     21  C   UNL     1       7.240   4.408  16.624  0.00  0.00    +0.000 A 
ATOM     22  C   UNL     1       7.084   4.573  15.254  0.00  0.00    +0.000 A 
ATOM     23  C   UNL     1       6.044   5.366  14.773  0.00  0.00    +0.000 A 
ATOM     24  C   UNL     1       5.168   6.006  15.663  0.00  0.00    +0.000 A 
ENDBRANCH  17  19
ENDBRANCH   3  15
BRANCH   1  26
ATOM     25  N   UNL     1       0.427   9.082  23.070  0.00  0.00    +0.000 NA
ATOM     26  C   UNL     1       0.882   8.626  22.104  0.00  0.00    +0.000 C 
ENDBRANCH   1  26
TORSDOF 5
ENDMDL
MODEL 3
REMARK VINA RESULT:      -7.1      2.374      2.952
REMARK  Name = 
REMARK  5 active torsions:
REMARK  status: ('A' for Active; 'I' for Inactive)
REMARK    1  A    between atoms: C_2  and  C_3
REMARK    2  A    between atoms: C_4  and  N_5
REMARK    3  A    between atoms: C_6  and  C_8
REMARK    4  A    between atoms: C_10  and  C_11
REMARK    5  A    between atoms: N_13  and  C_14
REMARK                            x       y       z     vdW  Elec       q    Type
REMARK                         _______ _______ _______ _____ _____    ______ ____
ROOT
ATOM      1  C   UNL     1       5.622   5.171  16.990  0.00  0.00    +0.000 A 
ATOM      2  C   UNL     1       5.258   6.561  17.208  0.00  0.00    +0.000 A 
ATOM      3  C   UNL     1       3.905   6.591  17.591  0.00  0.00    +0.000 A 
ATOM      4  N   UNL     1       3.493   5.293  17.559  0.00  0.00    +0.000 N 
ATOM      5  C   UNL     1       4.490   4.437  17.224  0.00  0.00    +0.000 A 
ATOM      6  C   UNL     1       4.029   3.034  17.282  0.00  0.00    +0.000 C 
ATOM      7  C   UNL     1       2.492   3.207  17.296  0.00  0.00    +0.000 C 
ATOM      8  C   UNL     1       2.238   4.618  17.855  0.00  0.00    +0.000 C 
ENDROOT
BRANCH   2   9
ATOM      9  N   UNL     1       6.048   7.708  17.156  0.00  0.00    +0.000 N 
ATOM     10  C   UNL     1       7.283   7.864  17.761  0.00  0.00    +0.000 C 
ATOM     11  O   UNL     1       7.866   7.003  18.414  0.00  0.00    +0.000 OA
ATOM     12  H   UNL     1       5.744   8.457  16.541  0.00  0.00    +0.000 HD
BRANCH  10  13
ATOM     13  C   UNL     1       7.918   9.232  17.590  0.00  0.00    +0.000 C 
ATOM     14 CL   UNL     1       9.003   9.611  18.949  0.00  0.00    +0.000 Cl
ENDBRANCH  10  13
ENDBRANCH   2   9
BRANCH   3  15
ATOM     15  C   UNL     1       2.983   7.632  18.027  0.00  0.00    +0.000 C 
ATOM     16  O   UNL     1       2.785   8.601  17.300  0.00  0.00    +0.000 OA
ATOM     17  N   UNL     1       2.442   7.494  19.300  0.00  0.00    +0.000 N 
ATOM     18  H   UNL     1       2.865   6.807  19.907  0.00  0.00    +0.000 HD
BRANCH  17  19
ATOM     19  C   UNL     1       1.555   8.428  19.905  0.00  0.00    +0.000 A 
ATOM     20  C   UNL     1       1.062   9.560  19.244  0.00  0.00    +0.000 A 
ATOM     21  C   UNL     1       0.235  10.480  19.895  0.00  0.00    +0.000 A 
ATOM     22  C   UNL     1      -0.128  10.272  21.219  0.00  0.00    +0.000 A 
ATOM     23  C   UNL     1       0.329   9.136  21.885  0.00  0.00    +0.000 A 
ATOM     24  C   UNL     1       1.160   8.214  21.231  0.00  0.00    +0.000 A 
ENDBRANCH  17  19
ENDBRANCH   3  15
BRANCH   1  26
ATOM     25  N   UNL     1       7.922   4.118  16.417  0.00  0.00    +0.000 NA
ATOM     26  C   UNL     1       6.876   4.533  16.707  0.00  0.00    +0.000 C 
ENDBRANCH   1  26
TORSDOF 5
ENDMDL
MODEL 4
REMARK VINA RESULT:      -7.0      2.431      2.944
REMARK  Name = 
REMARK  5 active torsions:
REMARK  status: ('A' for Active; 'I' for Inactive)
REMARK    1  A    between atoms: C_2  and  C_3
REMARK    2  A    between atoms: C_4  and  N_5
REMARK    3  A    between atoms: C_6  and  C_8
REMARK    4  A    between atoms: C_10  and  C_11
REMARK    5  A    between atoms: N_13  and  C_14
REMARK                            x       y       z     vdW  Elec       q    Type
REMARK                         _______ _______ _______ _____ _____    ______ ____
ROOT
ATOM      1  C   UNL     1       5.479   5.128  16.913  0.00  0.00    +0.000 A 
ATOM      2  C   UNL     1       5.161   6.504  17.255  0.00  0.00    +0.000 A 
ATOM      3  C   UNL     1       3.854   6.523  17.774  0.00  0.00    +0.000 A 
ATOM      4  N   UNL     1       3.419   5.234  17.700  0.00  0.00    +0.000 N 
ATOM      5  C   UNL     1       4.363   4.391  17.213  0.00  0.00    +0.000 A 
ATOM      6  C   UNL     1       3.886   2.993  17.227  0.00  0.00    +0.000 C 
ATOM      7  C   UNL     1       2.362   3.180  17.406  0.00  0.00    +0.000 C 
ATOM      8  C   UNL     1       2.189   4.554  18.078  0.00  0.00    +0.000 C 
ENDROOT
BRANCH   2   9
ATOM      9  N   UNL     1       5.962   7.644  17.198  0.00  0.00    +0.000 N 
ATOM     10  C   UNL     1       7.218   7.776  17.764  0.00  0.00    +0.000 C 
ATOM     11  O   UNL     1       7.813   6.898  18.382  0.00  0.00    +0.000 OA
ATOM     12  H   UNL     1       5.645   8.407  16.606  0.00  0.00    +0.000 HD
BRANCH  10  13
ATOM     13  C   UNL     1       7.861   9.141  17.596  0.00  0.00    +0.000 C 
ATOM     14 CL   UNL     1       8.993   9.485  18.926  0.00  0.00    +0.000 Cl
ENDBRANCH  10  13
ENDBRANCH   2   9
BRANCH   3  15
ATOM     15  C   UNL     1       2.998   7.542  18.366  0.00  0.00    +0.000 C 
ATOM     16  O   UNL     1       2.641   7.423  19.534  0.00  0.00    +0.000 OA
ATOM     17  N   UNL     1       2.567   8.562  17.525  0.00  0.00    +0.000 N 
ATOM     18  H   UNL     1       2.704   8.427  16.533  0.00  0.00    +0.000 HD
BRANCH  17  19
ATOM     19  C   UNL     1       1.701   9.620  17.917  0.00  0.00    +0.000 A 
ATOM     20  C   UNL     1       2.157  10.891  18.285  0.00  0.00    +0.000 A 
ATOM     21  C   UNL     1       1.274  11.886  18.715  0.00  0.00    +0.000 A 
ATOM     22  C   UNL     1      -0.090  11.627  18.769  0.00  0.00    +0.000 A 
ATOM     23  C   UNL     1      -0.567  10.377  18.379  0.00  0.00    +0.000 A 
ATOM     24  C   UNL     1       0.321   9.380  17.948  0.00  0.00    +0.000 A 
ENDBRANCH  17  19
ENDBRANCH   3  15
BRANCH   1  26
ATOM     25  N   UNL     1       7.723   4.090  16.130  0.00  0.00    +0.000 NA
ATOM     26  C   UNL     1       6.687   4.496  16.464  0.00  0.00    +0.000 C 
ENDBRANCH   1  26
TORSDOF 5
ENDMDL
MODEL 5
REMARK VINA RESULT:      -7.0      3.582      5.875
REMARK  Name = 
REMARK  5 active torsions:
REMARK  status: ('A' for Active; 'I' for Inactive)
REMARK    1  A    between atoms: C_2  and  C_3
REMARK    2  A    between atoms: C_4  and  N_5
REMARK    3  A    between atoms: C_6  and  C_8
REMARK    4  A    between atoms: C_10  and  C_11
REMARK    5  A    between atoms: N_13  and  C_14
REMARK                            x       y       z     vdW  Elec       q    Type
REMARK                         _______ _______ _______ _____ _____    ______ ____
ROOT
ATOM      1  C   UNL     1       3.014   5.898  18.821  0.00  0.00    +0.000 A 
ATOM      2  C   UNL     1       4.143   5.879  17.906  0.00  0.00    +0.000 A 
ATOM      3  C   UNL     1       4.140   4.633  17.252  0.00  0.00    +0.000 A 
ATOM      4  N   UNL     1       3.090   3.950  17.787  0.00  0.00    +0.000 N 
ATOM      5  C   UNL     1       2.401   4.679  18.699  0.00  0.00    +0.000 A 
ATOM      6  C   UNL     1       1.222   3.937  19.193  0.00  0.00    +0.000 C 
ATOM      7  C   UNL     1       1.548   2.493  18.747  0.00  0.00    +0.000 C 
ATOM      8  C   UNL     1       2.512   2.633  17.556  0.00  0.00    +0.000 C 
ENDROOT
BRANCH   2   9
ATOM      9  N   UNL     1       5.060   6.884  17.602  0.00  0.00    +0.000 N 
ATOM     10  C   UNL     1       6.426   6.820  17.815  0.00  0.00    +0.000 C 
ATOM     11  O   UNL     1       7.025   5.858  18.286  0.00  0.00    +0.000 OA
ATOM     12  H   UNL     1       4.715   7.689  17.087  0.00  0.00    +0.000 HD
BRANCH  10  13
ATOM     13  C   UNL     1       7.197   8.071  17.437  0.00  0.00    +0.000 C 
ATOM     14 CL   UNL     1       8.537   8.366  18.571  0.00  0.00    +0.000 Cl
ENDBRANCH  10  13
ENDBRANCH   2   9
BRANCH   3  15
ATOM     15  C   UNL     1       4.928   4.031  16.186  0.00  0.00    +0.000 C 
ATOM     16  O   UNL     1       5.580   3.018  16.419  0.00  0.00    +0.000 OA
ATOM     17  N   UNL     1       4.954   4.707  14.971  0.00  0.00    +0.000 N 
ATOM     18  H   UNL     1       4.599   5.652  14.964  0.00  0.00    +0.000 HD
BRANCH  17  19
ATOM     19  C   UNL     1       5.695   4.289  13.831  0.00  0.00    +0.000 A 
ATOM     20  C   UNL     1       6.967   4.784  13.518  0.00  0.00    +0.000 A 
ATOM     21  C   UNL     1       7.638   4.385  12.357  0.00  0.00    +0.000 A 
ATOM     22  C   UNL     1       7.051   3.467  11.496  0.00  0.00    +0.000 A 
ATOM     23  C   UNL     1       5.798   2.941  11.806  0.00  0.00    +0.000 A 
ATOM     24  C   UNL     1       5.125   3.343  12.970  0.00  0.00    +0.000 A 
ENDBRANCH  17  19
ENDBRANCH   3  15
BRANCH   1  26
ATOM     25  N   UNL     1       1.895   7.711  20.301  0.00  0.00    +0.000 NA
ATOM     26  C   UNL     1       2.456   6.930  19.648  0.00  0.00    +0.000 C 
ENDBRANCH   1  26
TORSDOF 5
ENDMDL
MODEL 6
REMARK VINA RESULT:      -6.9      1.458      1.486
REMARK  Name = 
REMARK  5 active torsions:
REMARK  status: ('A' for Active; 'I' for Inactive)
REMARK    1  A    between atoms: C_2  and  C_3
REMARK    2  A    between atoms: C_4  and  N_5
REMARK    3  A    between atoms: C_6  and  C_8
REMARK    4  A    between atoms: C_10  and  C_11
REMARK    5  A    between atoms: N_13  and  C_14
REMARK                            x       y       z     vdW  Elec       q    Type
REMARK                         _______ _______ _______ _____ _____    ______ ____
ROOT
ATOM      1  C   UNL     1       4.309   2.429  20.223  0.00  0.00    +0.000 A 
ATOM      2  C   UNL     1       4.519   3.516  19.282  0.00  0.00    +0.000 A 
ATOM      3  C   UNL     1       3.404   4.371  19.362  0.00  0.00    +0.000 A 
ATOM      4  N   UNL     1       2.572   3.791  20.272  0.00  0.00    +0.000 N 
ATOM      5  C   UNL     1       3.089   2.657  20.805  0.00  0.00    +0.000 A 
ATOM      6  C   UNL     1       2.199   2.104  21.847  0.00  0.00    +0.000 C 
ATOM      7  C   UNL     1       0.876   2.850  21.560  0.00  0.00    +0.000 C 
ATOM      8  C   UNL     1       1.279   4.147  20.837  0.00  0.00    +0.000 C 
ENDROOT
BRANCH   2   9
ATOM      9  N   UNL     1       5.619   3.793  18.472  0.00  0.00    +0.000 N 
ATOM     10  C   UNL     1       6.628   4.695  18.763  0.00  0.00    +0.000 C 
ATOM     11  O   UNL     1       6.705   5.365  19.789  0.00  0.00    +0.000 OA
ATOM     12  H   UNL     1       5.748   3.214  17.647  0.00  0.00    +0.000 HD
BRANCH  10  13
ATOM     13  C   UNL     1       7.689   4.845  17.689  0.00  0.00    +0.000 C 
ATOM     14 CL   UNL     1       6.986   4.672  16.063  0.00  0.00    +0.000 Cl
ENDBRANCH  10  13
ENDBRANCH   2   9
BRANCH   3  15
ATOM     15  C   UNL     1       3.045   5.649  18.765  0.00  0.00    +0.000 C 
ATOM     16  O   UNL     1       3.330   5.865  17.590  0.00  0.00    +0.000 OA
ATOM     17  N   UNL     1       2.463   6.590  19.606  0.00  0.00    +0.000 N 
ATOM     18  H   UNL     1       2.509   6.410  20.598  0.00  0.00    +0.000 HD
BRANCH  17  19
ATOM     19  C   UNL     1       2.080   7.902  19.207  0.00  0.00    +0.000 A 
ATOM     20  C   UNL     1       2.487   8.489  18.003  0.00  0.00    +0.000 A 
ATOM     21  C   UNL     1       2.130   9.801  17.676  0.00  0.00    +0.000 A 
ATOM     22  C   UNL     1       1.343  10.544  18.546  0.00  0.00    +0.000 A 
ATOM     23  C   UNL     1       0.904   9.967  19.736  0.00  0.00    +0.000 A 
ATOM     24  C   UNL     1       1.263   8.651  20.064  0.00  0.00    +0.000 A 
ENDBRANCH  17  19
ENDBRANCH   3  15
BRANCH   1  26
ATOM     25  N   UNL     1       5.816   0.426  20.889  0.00  0.00    +0.000 NA
ATOM     26  C   UNL     1       5.147   1.347  20.654  0.00  0.00    +0.000 C 
ENDBRANCH   1  26
TORSDOF 5
ENDMDL
MODEL 7
REMARK VINA RESULT:      -6.8      1.371      1.695
REMARK  Name = 
REMARK  5 active torsions:
REMARK  status: ('A' for Active; 'I' for Inactive)
REMARK    1  A    between atoms: C_2  and  C_3
REMARK    2  A    between atoms: C_4  and  N_5
REMARK    3  A    between atoms: C_6  and  C_8
REMARK    4  A    between atoms: C_10  and  C_11
REMARK    5  A    between atoms: N_13  and  C_14
REMARK                            x       y       z     vdW  Elec       q    Type
REMARK                         _______ _______ _______ _____ _____    ______ ____
ROOT
ATOM      1  C   UNL     1       4.326   2.482  20.128  0.00  0.00    +0.000 A 
ATOM      2  C   UNL     1       4.542   3.614  19.243  0.00  0.00    +0.000 A 
ATOM      3  C   UNL     1       3.436   4.475  19.374  0.00  0.00    +0.000 A 
ATOM      4  N   UNL     1       2.604   3.857  20.258  0.00  0.00    +0.000 N 
ATOM      5  C   UNL     1       3.112   2.692  20.729  0.00  0.00    +0.000 A 
ATOM      6  C   UNL     1       2.222   2.095  21.746  0.00  0.00    +0.000 C 
ATOM      7  C   UNL     1       0.905   2.868  21.506  0.00  0.00    +0.000 C 
ATOM      8  C   UNL     1       1.317   4.196  20.848  0.00  0.00    +0.000 C 
ENDROOT
BRANCH   2   9
ATOM      9  N   UNL     1       5.640   3.921  18.442  0.00  0.00    +0.000 N 
ATOM     10  C   UNL     1       6.673   4.777  18.783  0.00  0.00    +0.000 C 
ATOM     11  O   UNL     1       6.776   5.372  19.852  0.00  0.00    +0.000 OA
ATOM     12  H   UNL     1       5.748   3.398  17.577  0.00  0.00    +0.000 HD
BRANCH  10  13
ATOM     13  C   UNL     1       7.727   4.977  17.710  0.00  0.00    +0.000 C 
ATOM     14 CL   UNL     1       6.992   5.510  16.179  0.00  0.00    +0.000 Cl
ENDBRANCH  10  13
ENDBRANCH   2   9
BRANCH   3  15
ATOM     15  C   UNL     1       3.087   5.785  18.845  0.00  0.00    +0.000 C 
ATOM     16  O   UNL     1       3.484   6.108  17.729  0.00  0.00    +0.000 OA
ATOM     17  N   UNL     1       2.380   6.632  19.690  0.00  0.00    +0.000 N 
ATOM     18  H   UNL     1       2.330   6.371  20.665  0.00  0.00    +0.000 HD
BRANCH  17  19
ATOM     19  C   UNL     1       1.985   7.958  19.359  0.00  0.00    +0.000 A 
ATOM     20  C   UNL     1       1.270   8.788  20.230  0.00  0.00    +0.000 A 
ATOM     21  C   UNL     1       0.856  10.066  19.843  0.00  0.00    +0.000 A 
ATOM     22  C   UNL     1       1.167  10.543  18.576  0.00  0.00    +0.000 A 
ATOM     23  C   UNL     1       1.904   9.743  17.704  0.00  0.00    +0.000 A 
ATOM     24  C   UNL     1       2.318   8.460  18.094  0.00  0.00    +0.000 A 
ENDBRANCH  17  19
ENDBRANCH   3  15
BRANCH   1  26
ATOM     25  N   UNL     1       5.735   0.435  20.871  0.00  0.00    +0.000 NA
ATOM     26  C   UNL     1       5.155   1.371  20.499  0.00  0.00    +0.000 C 
ENDBRANCH   1  26
TORSDOF 5
ENDMDL
MODEL 8
REMARK VINA RESULT:      -6.8      1.463      1.465
REMARK  Name = 
REMARK  5 active torsions:
REMARK  status: ('A' for Active; 'I' for Inactive)
REMARK    1  A    between atoms: C_2  and  C_3
REMARK    2  A    between atoms: C_4  and  N_5
REMARK    3  A    between atoms: C_6  and  C_8
REMARK    4  A    between atoms: C_10  and  C_11
REMARK    5  A    between atoms: N_13  and  C_14
REMARK                            x       y       z     vdW  Elec       q    Type
REMARK                         _______ _______ _______ _____ _____    ______ ____
ROOT
ATOM      1  C   UNL     1       4.274   2.703  20.092  0.00  0.00    +0.000 A 
ATOM      2  C   UNL     1       4.572   3.871  19.281  0.00  0.00    +0.000 A 
ATOM      3  C   UNL     1       3.454   4.725  19.336  0.00  0.00    +0.000 A 
ATOM      4  N   UNL     1       2.540   4.070  20.105  0.00  0.00    +0.000 N 
ATOM      5  C   UNL     1       3.005   2.886  20.576  0.00  0.00    +0.000 A 
ATOM      6  C   UNL     1       2.020   2.246  21.472  0.00  0.00    +0.000 C 
ATOM      7  C   UNL     1       0.729   3.027  21.133  0.00  0.00    +0.000 C 
ATOM      8  C   UNL     1       1.199   4.383  20.576  0.00  0.00    +0.000 C 
ENDROOT
BRANCH   2   9
ATOM      9  N   UNL     1       5.743   4.213  18.608  0.00  0.00    +0.000 N 
ATOM     10  C   UNL     1       5.952   4.100  17.244  0.00  0.00    +0.000 C 
ATOM     11  O   UNL     1       5.123   3.700  16.432  0.00  0.00    +0.000 OA
ATOM     12  H   UNL     1       6.470   4.679  19.144  0.00  0.00    +0.000 HD
BRANCH  10  13
ATOM     13  C   UNL     1       7.337   4.497  16.768  0.00  0.00    +0.000 C 
ATOM     14 CL   UNL     1       7.319   4.949  15.046  0.00  0.00    +0.000 Cl
ENDBRANCH  10  13
ENDBRANCH   2   9
BRANCH   3  15
ATOM     15  C   UNL     1       3.153   6.056  18.830  0.00  0.00    +0.000 C 
ATOM     16  O   UNL     1       3.717   6.455  17.815  0.00  0.00    +0.000 OA
ATOM     17  N   UNL     1       2.289   6.834  19.592  0.00  0.00    +0.000 N 
ATOM     18  H   UNL     1       2.088   6.513  20.529  0.00  0.00    +0.000 HD
BRANCH  17  19
ATOM     19  C   UNL     1       1.910   8.168  19.274  0.00  0.00    +0.000 A 
ATOM     20  C   UNL     1       2.243   8.795  18.068  0.00  0.00    +0.000 A 
ATOM     21  C   UNL     1       1.895  10.126  17.819  0.00  0.00    +0.000 A 
ATOM     22  C   UNL     1       1.190  10.849  18.772  0.00  0.00    +0.000 A 
ATOM     23  C   UNL     1       0.823  10.234  19.967  0.00  0.00    +0.000 A 
ATOM     24  C   UNL     1       1.173   8.898  20.216  0.00  0.00    +0.000 A 
ENDBRANCH  17  19
ENDBRANCH   3  15
BRANCH   1  26
ATOM     25  N   UNL     1       5.738   0.731  20.925  0.00  0.00    +0.000 NA
ATOM     26  C   UNL     1       5.067   1.578  20.497  0.00  0.00    +0.000 C 
ENDBRANCH   1  26
TORSDOF 5
ENDMDL
MODEL 9
REMARK VINA RESULT:      -6.6      2.211      2.664
REMARK  Name = 
REMARK  5 active torsions:
REMARK  status: ('A' for Active; 'I' for Inactive)
REMARK    1  A    between atoms: C_2  and  C_3
REMARK    2  A    between atoms: C_4  and  N_5
REMARK    3  A    between atoms: C_6  and  C_8
REMARK    4  A    between atoms: C_10  and  C_11
REMARK    5  A    between atoms: N_13  and  C_14
REMARK                            x       y       z     vdW  Elec       q    Type
REMARK                         _______ _______ _______ _____ _____    ______ ____
ROOT
ATOM      1  C   UNL     1       4.485   4.663  16.905  0.00  0.00    +0.000 A 
ATOM      2  C   UNL     1       4.413   6.048  17.339  0.00  0.00    +0.000 A 
ATOM      3  C   UNL     1       3.253   6.188  18.123  0.00  0.00    +0.000 A 
ATOM      4  N   UNL     1       2.661   4.961  18.111  0.00  0.00    +0.000 N 
ATOM      5  C   UNL     1       3.376   4.043  17.416  0.00  0.00    +0.000 A 
ATOM      6  C   UNL     1       2.749   2.707  17.496  0.00  0.00    +0.000 C 
ATOM      7  C   UNL     1       1.328   3.055  17.998  0.00  0.00    +0.000 C 
ATOM      8  C   UNL     1       1.463   4.406  18.723  0.00  0.00    +0.000 C 
ENDROOT
BRANCH   2   9
ATOM      9  N   UNL     1       5.315   7.092  17.142  0.00  0.00    +0.000 N 
ATOM     10  C   UNL     1       6.624   7.123  17.589  0.00  0.00    +0.000 C 
ATOM     11  O   UNL     1       7.182   6.222  18.209  0.00  0.00    +0.000 OA
ATOM     12  H   UNL     1       5.023   7.851  16.532  0.00  0.00    +0.000 HD
BRANCH  10  13
ATOM     13  C   UNL     1       7.382   8.401  17.281  0.00  0.00    +0.000 C 
ATOM     14 CL   UNL     1       8.553   8.778  18.567  0.00  0.00    +0.000 Cl
ENDBRANCH  10  13
ENDBRANCH   2   9
BRANCH   3  15
ATOM     15  C   UNL     1       2.666   7.267  18.906  0.00  0.00    +0.000 C 
ATOM     16  O   UNL     1       2.641   7.176  20.130  0.00  0.00    +0.000 OA
ATOM     17  N   UNL     1       2.087   8.312  18.195  0.00  0.00    +0.000 N 
ATOM     18  H   UNL     1       1.933   8.165  17.208  0.00  0.00    +0.000 HD
BRANCH  17  19
ATOM     19  C   UNL     1       1.437   9.429  18.788  0.00  0.00    +0.000 A 
ATOM     20  C   UNL     1       0.459   9.311  19.783  0.00  0.00    +0.000 A 
ATOM     21  C   UNL     1      -0.192  10.435  20.301  0.00  0.00    +0.000 A 
ATOM     22  C   UNL     1       0.139  11.703  19.841  0.00  0.00    +0.000 A 
ATOM     23  C   UNL     1       1.131  11.844  18.872  0.00  0.00    +0.000 A 
ATOM     24  C   UNL     1       1.783  10.715  18.353  0.00  0.00    +0.000 A 
ENDBRANCH  17  19
ENDBRANCH   3  15
BRANCH   1  26
ATOM     25  N   UNL     1       6.226   3.319  15.530  0.00  0.00    +0.000 NA
ATOM     26  C   UNL     1       5.491   3.923  16.197  0.00  0.00    +0.000 C 
ENDBRANCH   1  26
TORSDOF 5
ENDMDL
