MODEL 1
REMARK VINA RESULT:      -9.4      0.000      0.000
REMARK  Name = 
REMARK  6 active torsions:
REMARK  status: ('A' for Active; 'I' for Inactive)
REMARK    1  A    between atoms: C_1  and  N_2
REMARK    2  A    between atoms: C_7  and  C_8
REMARK    3  A    between atoms: C_11  and  C_12
REMARK    4  A    between atoms: N_21  and  C_22
REMARK    5  A    between atoms: C_22  and  C_23
REMARK    6  A    between atoms: C_26  and  N_27
REMARK                            x       y       z     vdW  Elec       q    Type
REMARK                         _______ _______ _______ _____ _____    ______ ____
ROOT
ATOM      1  C   UNL     1       4.843   2.808  11.777  0.00  0.00    +0.000 C 
ATOM      2  N   UNL     1       6.177   3.017  12.288  0.00  0.00    +0.000 N 
ATOM      3  C   UNL     1       6.235   3.785  13.444  0.00  0.00    +0.000 A 
ATOM      4  N   UNL     1       7.296   4.611  13.494  0.00  0.00    +0.000 NA
ATOM      5  C   UNL     1       7.464   5.405  14.575  0.00  0.00    +0.000 A 
ATOM      6  C   UNL     1       6.533   5.367  15.602  0.00  0.00    +0.000 A 
ATOM      7  C   UNL     1       6.300   6.007  16.851  0.00  0.00    +0.000 A 
ATOM      8  N   UNL     1       5.213   5.493  17.454  0.00  0.00    +0.000 NA
ATOM      9  N   UNL     1       4.769   4.544  16.602  0.00  0.00    +0.000 N 
ATOM     10  C   UNL     1       5.495   4.466  15.448  0.00  0.00    +0.000 A 
ATOM     11  N   UNL     1       5.287   3.663  14.390  0.00  0.00    +0.000 NA
ATOM     12  H   UNL     1       6.824   3.458  11.642  0.00  0.00    +0.000 HD
ENDROOT
BRANCH   7  13
ATOM     13  C   UNL     1       7.053   7.094  17.471  0.00  0.00    +0.000 A 
ATOM     14  C   UNL     1       7.957   6.846  18.506  0.00  0.00    +0.000 A 
ATOM     15  C   UNL     1       8.698   7.889  19.069  0.00  0.00    +0.000 A 
ATOM     16  C   UNL     1       8.594   9.207  18.593  0.00  0.00    +0.000 A 
ATOM     17  C   UNL     1       7.676   9.442  17.555  0.00  0.00    +0.000 A 
ATOM     18  C   UNL     1       6.911   8.405  17.007  0.00  0.00    +0.000 A 
BRANCH  16  19
ATOM     19  C   UNL     1       9.446  10.288  19.138  0.00  0.00    +0.000 A 
ATOM     20  C   UNL     1      10.379  10.958  18.326  0.00  0.00    +0.000 A 
ATOM     21  C   UNL     1      11.178  11.990  18.827  0.00  0.00    +0.000 A 
ATOM     22  C   UNL     1      11.047  12.387  20.152  0.00  0.00    +0.000 A 
ATOM     23  C   UNL     1      10.129  11.747  20.977  0.00  0.00    +0.000 A 
ATOM     24  C   UNL     1       9.344  10.704  20.477  0.00  0.00    +0.000 A 
ENDBRANCH  16  19
ENDBRANCH   7  13
BRANCH   9  25
ATOM     25  C   UNL     1       3.615   3.748  16.978  0.00  0.00    +0.000 C 
BRANCH  25  26
ATOM     26  C   UNL     1       3.250   3.771  18.481  0.00  0.00    +0.000 C 
ATOM     27  C   UNL     1       3.748   2.525  19.237  0.00  0.00    +0.000 C 
ATOM     28  C   UNL     1       3.299   2.497  20.698  0.00  0.00    +0.000 C 
ATOM     29  C   UNL     1       1.779   2.651  20.806  0.00  0.00    +0.000 C 
ATOM     30  C   UNL     1       1.335   3.965  20.160  0.00  0.00    +0.000 C 
ATOM     31  C   UNL     1       1.747   4.014  18.691  0.00  0.00    +0.000 C 
BRANCH  29  32
ATOM     32  N   UNL     1       1.349   2.614  22.203  0.00  0.00    +0.000 NA
ATOM     33  H   UNL     1       0.435   2.168  22.275  0.00  0.00    +0.000 HD
ATOM     34  H   UNL     1       1.231   3.565  22.548  0.00  0.00    +0.000 HD
ENDBRANCH  29  32
ENDBRANCH  25  26
ENDBRANCH   9  25
TORSDOF 5
ENDMDL
MODEL 2
REMARK VINA RESULT:      -8.6      4.610      6.161
REMARK  Name = 
REMARK  6 active torsions:
REMARK  status: ('A' for Active; 'I' for Inactive)
REMARK    1  A    between atoms: C_1  and  N_2
REMARK    2  A    between atoms: C_7  and  C_8
REMARK    3  A    between atoms: C_11  and  C_12
REMARK    4  A    between atoms: N_21  and  C_22
REMARK    5  A    between atoms: C_22  and  C_23
REMARK    6  A    between atoms: C_26  and  N_27
REMARK                            x       y       z     vdW  Elec       q    Type
REMARK                         _______ _______ _______ _____ _____    ______ ____
ROOT
ATOM      1  C   UNL     1       7.299   4.510  14.203  0.00  0.00    +0.000 C 
ATOM      2  N   UNL     1       7.523   5.443  15.282  0.00  0.00    +0.000 N 
ATOM      3  C   UNL     1       6.377   5.794  15.984  0.00  0.00    +0.000 A 
ATOM      4  N   UNL     1       6.351   7.083  16.370  0.00  0.00    +0.000 NA
ATOM      5  C   UNL     1       5.289   7.541  17.068  0.00  0.00    +0.000 A 
ATOM      6  C   UNL     1       4.239   6.682  17.357  0.00  0.00    +0.000 A 
ATOM      7  C   UNL     1       2.974   6.728  18.007  0.00  0.00    +0.000 A 
ATOM      8  N   UNL     1       2.401   5.512  18.021  0.00  0.00    +0.000 NA
ATOM      9  N   UNL     1       3.289   4.712  17.393  0.00  0.00    +0.000 N 
ATOM     10  C   UNL     1       4.386   5.376  16.926  0.00  0.00    +0.000 A 
ATOM     11  N   UNL     1       5.421   4.880  16.225  0.00  0.00    +0.000 NA
ATOM     12  H   UNL     1       7.951   6.324  15.010  0.00  0.00    +0.000 HD
ENDROOT
BRANCH   7  13
ATOM     13  C   UNL     1       2.291   7.881  18.587  0.00  0.00    +0.000 A 
ATOM     14  C   UNL     1       2.001   9.010  17.818  0.00  0.00    +0.000 A 
ATOM     15  C   UNL     1       1.315  10.094  18.375  0.00  0.00    +0.000 A 
ATOM     16  C   UNL     1       0.859  10.073  19.703  0.00  0.00    +0.000 A 
ATOM     17  C   UNL     1       1.164   8.932  20.467  0.00  0.00    +0.000 A 
ATOM     18  C   UNL     1       1.874   7.857  19.922  0.00  0.00    +0.000 A 
BRANCH  16  19
ATOM     19  C   UNL     1       0.060  11.189  20.257  0.00  0.00    +0.000 A 
ATOM     20  C   UNL     1       0.097  11.500  21.630  0.00  0.00    +0.000 A 
ATOM     21  C   UNL     1      -0.642  12.561  22.160  0.00  0.00    +0.000 A 
ATOM     22  C   UNL     1      -1.424  13.347  21.323  0.00  0.00    +0.000 A 
ATOM     23  C   UNL     1      -1.476  13.068  19.962  0.00  0.00    +0.000 A 
ATOM     24  C   UNL     1      -0.748  11.996  19.438  0.00  0.00    +0.000 A 
ENDBRANCH  16  19
ENDBRANCH   7  13
BRANCH   9  25
ATOM     25  C   UNL     1       2.996   3.294  17.276  0.00  0.00    +0.000 C 
BRANCH  25  26
ATOM     26  C   UNL     1       2.467   2.614  18.561  0.00  0.00    +0.000 C 
ATOM     27  C   UNL     1       0.983   2.924  18.834  0.00  0.00    +0.000 C 
ATOM     28  C   UNL     1       0.487   2.339  20.156  0.00  0.00    +0.000 C 
ATOM     29  C   UNL     1       1.378   2.782  21.320  0.00  0.00    +0.000 C 
ATOM     30  C   UNL     1       2.823   2.341  21.075  0.00  0.00    +0.000 C 
ATOM     31  C   UNL     1       3.358   2.931  19.772  0.00  0.00    +0.000 C 
BRANCH  29  32
ATOM     32  N   UNL     1       0.898   2.230  22.585  0.00  0.00    +0.000 NA
ATOM     33  H   UNL     1       1.218   1.267  22.689  0.00  0.00    +0.000 HD
ATOM     34  H   UNL     1      -0.120   2.193  22.576  0.00  0.00    +0.000 HD
ENDBRANCH  29  32
ENDBRANCH  25  26
ENDBRANCH   9  25
TORSDOF 5
ENDMDL
MODEL 3
REMARK VINA RESULT:      -8.4      8.364     10.693
REMARK  Name = 
REMARK  6 active torsions:
REMARK  status: ('A' for Active; 'I' for Inactive)
REMARK    1  A    between atoms: C_1  and  N_2
REMARK    2  A    between atoms: C_7  and  C_8
REMARK    3  A    between atoms: C_11  and  C_12
REMARK    4  A    between atoms: N_21  and  C_22
REMARK    5  A    between atoms: C_22  and  C_23
REMARK    6  A    between atoms: C_26  and  N_27
REMARK                            x       y       z     vdW  Elec       q    Type
REMARK                         _______ _______ _______ _____ _____    ______ ____
ROOT
ATOM      1  C   UNL     1      -6.052  12.838  17.133  0.00  0.00    +0.000 C 
ATOM      2  N   UNL     1      -5.789  11.480  17.545  0.00  0.00    +0.000 N 
ATOM      3  C   UNL     1      -4.480  11.245  17.943  0.00  0.00    +0.000 A 
ATOM      4  N   UNL     1      -4.010  10.038  17.578  0.00  0.00    +0.000 NA
ATOM      5  C   UNL     1      -2.748   9.691  17.917  0.00  0.00    +0.000 A 
ATOM      6  C   UNL     1      -1.957  10.590  18.615  0.00  0.00    +0.000 A 
ATOM      7  C   UNL     1      -0.634  10.664  19.133  0.00  0.00    +0.000 A 
ATOM      8  N   UNL     1      -0.444  11.820  19.794  0.00  0.00    +0.000 NA
ATOM      9  N   UNL     1      -1.628  12.463  19.697  0.00  0.00    +0.000 N 
ATOM     10  C   UNL     1      -2.553  11.792  18.952  0.00  0.00    +0.000 A 
ATOM     11  N   UNL     1      -3.801  12.179  18.632  0.00  0.00    +0.000 NA
ATOM     12  H   UNL     1      -5.987  10.770  16.846  0.00  0.00    +0.000 HD
ENDROOT
BRANCH   7  13
ATOM     13  C   UNL     1       0.451   9.695  19.002  0.00  0.00    +0.000 A 
ATOM     14  C   UNL     1       0.850   8.907  20.084  0.00  0.00    +0.000 A 
ATOM     15  C   UNL     1       1.866   7.958  19.938  0.00  0.00    +0.000 A 
ATOM     16  C   UNL     1       2.489   7.732  18.699  0.00  0.00    +0.000 A 
ATOM     17  C   UNL     1       2.081   8.536  17.621  0.00  0.00    +0.000 A 
ATOM     18  C   UNL     1       1.084   9.507  17.769  0.00  0.00    +0.000 A 
BRANCH  16  19
ATOM     19  C   UNL     1       3.503   6.666  18.535  0.00  0.00    +0.000 A 
ATOM     20  C   UNL     1       3.615   5.618  19.469  0.00  0.00    +0.000 A 
ATOM     21  C   UNL     1       4.559   4.599  19.316  0.00  0.00    +0.000 A 
ATOM     22  C   UNL     1       5.402   4.596  18.212  0.00  0.00    +0.000 A 
ATOM     23  C   UNL     1       5.311   5.614  17.269  0.00  0.00    +0.000 A 
ATOM     24  C   UNL     1       4.377   6.641  17.435  0.00  0.00    +0.000 A 
ENDBRANCH  16  19
ENDBRANCH   7  13
BRANCH   9  25
ATOM     25  C   UNL     1      -1.783  13.747  20.357  0.00  0.00    +0.000 C 
BRANCH  25  26
ATOM     26  C   UNL     1      -2.497  13.711  21.728  0.00  0.00    +0.000 C 
ATOM     27  C   UNL     1      -2.415  12.331  22.408  0.00  0.00    +0.000 C 
ATOM     28  C   UNL     1      -3.208  12.264  23.714  0.00  0.00    +0.000 C 
ATOM     29  C   UNL     1      -4.661  12.699  23.496  0.00  0.00    +0.000 C 
ATOM     30  C   UNL     1      -4.705  14.125  22.942  0.00  0.00    +0.000 C 
ATOM     31  C   UNL     1      -3.943  14.221  21.623  0.00  0.00    +0.000 C 
BRANCH  29  32
ATOM     32  N   UNL     1      -5.420  12.626  24.742  0.00  0.00    +0.000 NA
ATOM     33  H   UNL     1      -5.303  13.489  25.273  0.00  0.00    +0.000 HD
ATOM     34  H   UNL     1      -5.046  11.879  25.325  0.00  0.00    +0.000 HD
ENDBRANCH  29  32
ENDBRANCH  25  26
ENDBRANCH   9  25
TORSDOF 5
ENDMDL
MODEL 4
REMARK VINA RESULT:      -8.4      7.782     10.541
REMARK  Name = 
REMARK  6 active torsions:
REMARK  status: ('A' for Active; 'I' for Inactive)
REMARK    1  A    between atoms: C_1  and  N_2
REMARK    2  A    between atoms: C_7  and  C_8
REMARK    3  A    between atoms: C_11  and  C_12
REMARK    4  A    between atoms: N_21  and  C_22
REMARK    5  A    between atoms: C_22  and  C_23
REMARK    6  A    between atoms: C_26  and  N_27
REMARK                            x       y       z     vdW  Elec       q    Type
REMARK                         _______ _______ _______ _____ _____    ______ ____
ROOT
ATOM      1  C   UNL     1       1.210  17.144  19.515  0.00  0.00    +0.000 C 
ATOM      2  N   UNL     1       1.864  16.315  18.532  0.00  0.00    +0.000 N 
ATOM      3  C   UNL     1       1.583  14.959  18.645  0.00  0.00    +0.000 A 
ATOM      4  N   UNL     1       2.633  14.162  18.376  0.00  0.00    +0.000 NA
ATOM      5  C   UNL     1       2.480  12.822  18.446  0.00  0.00    +0.000 A 
ATOM      6  C   UNL     1       1.250  12.293  18.811  0.00  0.00    +0.000 A 
ATOM      7  C   UNL     1       0.664  11.016  19.029  0.00  0.00    +0.000 A 
ATOM      8  N   UNL     1      -0.642  11.135  19.329  0.00  0.00    +0.000 NA
ATOM      9  N   UNL     1      -0.876  12.465  19.297  0.00  0.00    +0.000 N 
ATOM     10  C   UNL     1       0.240  13.209  19.045  0.00  0.00    +0.000 A 
ATOM     11  N   UNL     1       0.350  14.548  18.992  0.00  0.00    +0.000 NA
ATOM     12  H   UNL     1       2.878  16.377  18.519  0.00  0.00    +0.000 HD
ENDROOT
BRANCH   7  13
ATOM     13  C   UNL     1       1.301   9.702  18.987  0.00  0.00    +0.000 A 
ATOM     14  C   UNL     1       1.251   8.840  20.085  0.00  0.00    +0.000 A 
ATOM     15  C   UNL     1       1.835   7.572  20.022  0.00  0.00    +0.000 A 
ATOM     16  C   UNL     1       2.453   7.103  18.850  0.00  0.00    +0.000 A 
ATOM     17  C   UNL     1       2.501   7.984  17.756  0.00  0.00    +0.000 A 
ATOM     18  C   UNL     1       1.942   9.265  17.824  0.00  0.00    +0.000 A 
BRANCH  16  19
ATOM     19  C   UNL     1       2.992   5.728  18.766  0.00  0.00    +0.000 A 
ATOM     20  C   UNL     1       2.283   4.707  18.104  0.00  0.00    +0.000 A 
ATOM     21  C   UNL     1       2.790   3.408  18.006  0.00  0.00    +0.000 A 
ATOM     22  C   UNL     1       4.029   3.105  18.555  0.00  0.00    +0.000 A 
ATOM     23  C   UNL     1       4.756   4.094  19.210  0.00  0.00    +0.000 A 
ATOM     24  C   UNL     1       4.238   5.387  19.321  0.00  0.00    +0.000 A 
ENDBRANCH  16  19
ENDBRANCH   7  13
BRANCH   9  25
ATOM     25  C   UNL     1      -2.226  12.944  19.533  0.00  0.00    +0.000 C 
BRANCH  25  26
ATOM     26  C   UNL     1      -2.881  12.476  20.853  0.00  0.00    +0.000 C 
ATOM     27  C   UNL     1      -4.325  12.984  21.018  0.00  0.00    +0.000 C 
ATOM     28  C   UNL     1      -4.937  12.609  22.368  0.00  0.00    +0.000 C 
ATOM     29  C   UNL     1      -4.043  13.071  23.522  0.00  0.00    +0.000 C 
ATOM     30  C   UNL     1      -2.654  12.441  23.397  0.00  0.00    +0.000 C 
ATOM     31  C   UNL     1      -2.004  12.818  22.068  0.00  0.00    +0.000 C 
BRANCH  29  32
ATOM     32  N   UNL     1      -4.633  12.720  24.812  0.00  0.00    +0.000 NA
ATOM     33  H   UNL     1      -5.179  11.863  24.724  0.00  0.00    +0.000 HD
ATOM     34  H   UNL     1      -5.286  13.448  25.097  0.00  0.00    +0.000 HD
ENDBRANCH  29  32
ENDBRANCH  25  26
ENDBRANCH   9  25
TORSDOF 5
ENDMDL
MODEL 5
REMARK VINA RESULT:      -8.3      7.816     10.563
REMARK  Name = 
REMARK  6 active torsions:
REMARK  status: ('A' for Active; 'I' for Inactive)
REMARK    1  A    between atoms: C_1  and  N_2
REMARK    2  A    between atoms: C_7  and  C_8
REMARK    3  A    between atoms: C_11  and  C_12
REMARK    4  A    between atoms: N_21  and  C_22
REMARK    5  A    between atoms: C_22  and  C_23
REMARK    6  A    between atoms: C_26  and  N_27
REMARK                            x       y       z     vdW  Elec       q    Type
REMARK                         _______ _______ _______ _____ _____    ______ ____
ROOT
ATOM      1  C   UNL     1       1.032  17.045  19.606  0.00  0.00    +0.000 C 
ATOM      2  N   UNL     1       1.694  16.190  18.650  0.00  0.00    +0.000 N 
ATOM      3  C   UNL     1       1.403  14.839  18.791  0.00  0.00    +0.000 A 
ATOM      4  N   UNL     1       2.452  14.030  18.554  0.00  0.00    +0.000 NA
ATOM      5  C   UNL     1       2.290  12.692  18.653  0.00  0.00    +0.000 A 
ATOM      6  C   UNL     1       1.053  12.179  19.015  0.00  0.00    +0.000 A 
ATOM      7  C   UNL     1       0.456  10.910  19.255  0.00  0.00    +0.000 A 
ATOM      8  N   UNL     1      -0.852  11.044  19.535  0.00  0.00    +0.000 NA
ATOM      9  N   UNL     1      -1.078  12.374  19.470  0.00  0.00    +0.000 N 
ATOM     10  C   UNL     1       0.045  13.105  19.215  0.00  0.00    +0.000 A 
ATOM     11  N   UNL     1       0.164  14.442  19.132  0.00  0.00    +0.000 NA
ATOM     12  H   UNL     1       2.708  16.246  18.648  0.00  0.00    +0.000 HD
ENDROOT
BRANCH   7  13
ATOM     13  C   UNL     1       1.087   9.593  19.252  0.00  0.00    +0.000 A 
ATOM     14  C   UNL     1       1.716   9.097  18.108  0.00  0.00    +0.000 A 
ATOM     15  C   UNL     1       2.347   7.850  18.125  0.00  0.00    +0.000 A 
ATOM     16  C   UNL     1       2.407   7.072  19.294  0.00  0.00    +0.000 A 
ATOM     17  C   UNL     1       1.765   7.581  20.436  0.00  0.00    +0.000 A 
ATOM     18  C   UNL     1       1.108   8.817  20.415  0.00  0.00    +0.000 A 
BRANCH  16  19
ATOM     19  C   UNL     1       3.151   5.793  19.325  0.00  0.00    +0.000 A 
ATOM     20  C   UNL     1       2.608   4.651  19.944  0.00  0.00    +0.000 A 
ATOM     21  C   UNL     1       3.295   3.434  19.966  0.00  0.00    +0.000 A 
ATOM     22  C   UNL     1       4.537   3.328  19.353  0.00  0.00    +0.000 A 
ATOM     23  C   UNL     1       5.097   4.438  18.728  0.00  0.00    +0.000 A 
ATOM     24  C   UNL     1       4.413   5.657  18.722  0.00  0.00    +0.000 A 
ENDBRANCH  16  19
ENDBRANCH   7  13
BRANCH   9  25
ATOM     25  C   UNL     1      -2.429  12.866  19.677  0.00  0.00    +0.000 C 
BRANCH  25  26
ATOM     26  C   UNL     1      -3.111  12.411  20.988  0.00  0.00    +0.000 C 
ATOM     27  C   UNL     1      -4.438  13.146  21.258  0.00  0.00    +0.000 C 
ATOM     28  C   UNL     1      -5.061  12.774  22.603  0.00  0.00    +0.000 C 
ATOM     29  C   UNL     1      -4.062  12.978  23.746  0.00  0.00    +0.000 C 
ATOM     30  C   UNL     1      -2.810  12.129  23.508  0.00  0.00    +0.000 C 
ATOM     31  C   UNL     1      -2.148  12.496  22.183  0.00  0.00    +0.000 C 
BRANCH  29  32
ATOM     32  N   UNL     1      -4.662  12.630  25.032  0.00  0.00    +0.000 NA
ATOM     33  H   UNL     1      -4.994  13.472  25.501  0.00  0.00    +0.000 HD
ATOM     34  H   UNL     1      -3.953  12.225  25.640  0.00  0.00    +0.000 HD
ENDBRANCH  29  32
ENDBRANCH  25  26
ENDBRANCH   9  25
TORSDOF 5
ENDMDL
MODEL 6
REMARK VINA RESULT:      -8.3      7.795     10.567
REMARK  Name = 
REMARK  6 active torsions:
REMARK  status: ('A' for Active; 'I' for Inactive)
REMARK    1  A    between atoms: C_1  and  N_2
REMARK    2  A    between atoms: C_7  and  C_8
REMARK    3  A    between atoms: C_11  and  C_12
REMARK    4  A    between atoms: N_21  and  C_22
REMARK    5  A    between atoms: C_22  and  C_23
REMARK    6  A    between atoms: C_26  and  N_27
REMARK                            x       y       z     vdW  Elec       q    Type
REMARK                         _______ _______ _______ _____ _____    ______ ____
ROOT
ATOM      1  C   UNL     1       2.226  17.396  19.545  0.00  0.00    +0.000 C 
ATOM      2  N   UNL     1       2.640  16.496  18.496  0.00  0.00    +0.000 N 
ATOM      3  C   UNL     1       2.203  15.187  18.657  0.00  0.00    +0.000 A 
ATOM      4  N   UNL     1       3.100  14.263  18.268  0.00  0.00    +0.000 NA
ATOM      5  C   UNL     1       2.784  12.953  18.370  0.00  0.00    +0.000 A 
ATOM      6  C   UNL     1       1.552  12.586  18.890  0.00  0.00    +0.000 A 
ATOM      7  C   UNL     1       0.838  11.393  19.192  0.00  0.00    +0.000 A 
ATOM      8  N   UNL     1      -0.394  11.679  19.650  0.00  0.00    +0.000 NA
ATOM      9  N   UNL     1      -0.457  13.027  19.635  0.00  0.00    +0.000 N 
ATOM     10  C   UNL     1       0.706  13.622  19.239  0.00  0.00    +0.000 A 
ATOM     11  N   UNL     1       0.981  14.937  19.159  0.00  0.00    +0.000 NA
ATOM     12  H   UNL     1       3.645  16.426  18.357  0.00  0.00    +0.000 HD
ENDROOT
BRANCH   7  13
ATOM     13  C   UNL     1       1.290  10.009  19.085  0.00  0.00    +0.000 A 
ATOM     14  C   UNL     1       1.784   9.503  17.880  0.00  0.00    +0.000 A 
ATOM     15  C   UNL     1       2.247   8.186  17.797  0.00  0.00    +0.000 A 
ATOM     16  C   UNL     1       2.272   7.343  18.920  0.00  0.00    +0.000 A 
ATOM     17  C   UNL     1       1.767   7.864  20.124  0.00  0.00    +0.000 A 
ATOM     18  C   UNL     1       1.276   9.172  20.205  0.00  0.00    +0.000 A 
BRANCH  16  19
ATOM     19  C   UNL     1       2.844   5.980  18.841  0.00  0.00    +0.000 A 
ATOM     20  C   UNL     1       3.322   5.460  17.623  0.00  0.00    +0.000 A 
ATOM     21  C   UNL     1       3.877   4.180  17.540  0.00  0.00    +0.000 A 
ATOM     22  C   UNL     1       3.981   3.395  18.682  0.00  0.00    +0.000 A 
ATOM     23  C   UNL     1       3.523   3.884  19.901  0.00  0.00    +0.000 A 
ATOM     24  C   UNL     1       2.954   5.158  19.976  0.00  0.00    +0.000 A 
ENDBRANCH  16  19
ENDBRANCH   7  13
BRANCH   9  25
ATOM     25  C   UNL     1      -1.694  13.676  20.032  0.00  0.00    +0.000 C 
BRANCH  25  26
ATOM     26  C   UNL     1      -2.560  12.897  21.049  0.00  0.00    +0.000 C 
ATOM     27  C   UNL     1      -3.972  13.491  21.211  0.00  0.00    +0.000 C 
ATOM     28  C   UNL     1      -4.793  12.786  22.290  0.00  0.00    +0.000 C 
ATOM     29  C   UNL     1      -4.038  12.757  23.622  0.00  0.00    +0.000 C 
ATOM     30  C   UNL     1      -2.696  12.042  23.451  0.00  0.00    +0.000 C 
ATOM     31  C   UNL     1      -1.839  12.738  22.397  0.00  0.00    +0.000 C 
BRANCH  29  32
ATOM     32  N   UNL     1      -4.828  12.091  24.656  0.00  0.00    +0.000 NA
ATOM     33  H   UNL     1      -5.573  11.543  24.226  0.00  0.00    +0.000 HD
ATOM     34  H   UNL     1      -5.286  12.790  25.238  0.00  0.00    +0.000 HD
ENDBRANCH  29  32
ENDBRANCH  25  26
ENDBRANCH   9  25
TORSDOF 5
ENDMDL
MODEL 7
REMARK VINA RESULT:      -8.2      8.329     10.589
REMARK  Name = 
REMARK  6 active torsions:
REMARK  status: ('A' for Active; 'I' for Inactive)
REMARK    1  A    between atoms: C_1  and  N_2
REMARK    2  A    between atoms: C_7  and  C_8
REMARK    3  A    between atoms: C_11  and  C_12
REMARK    4  A    between atoms: N_21  and  C_22
REMARK    5  A    between atoms: C_22  and  C_23
REMARK    6  A    between atoms: C_26  and  N_27
REMARK                            x       y       z     vdW  Elec       q    Type
REMARK                         _______ _______ _______ _____ _____    ______ ____
ROOT
ATOM      1  C   UNL     1      -5.803  12.749  17.067  0.00  0.00    +0.000 C 
ATOM      2  N   UNL     1      -5.551  11.376  17.432  0.00  0.00    +0.000 N 
ATOM      3  C   UNL     1      -4.251  11.122  17.851  0.00  0.00    +0.000 A 
ATOM      4  N   UNL     1      -3.774   9.929  17.450  0.00  0.00    +0.000 NA
ATOM      5  C   UNL     1      -2.521   9.567  17.804  0.00  0.00    +0.000 A 
ATOM      6  C   UNL     1      -1.745  10.437  18.554  0.00  0.00    +0.000 A 
ATOM      7  C   UNL     1      -0.434  10.488  19.105  0.00  0.00    +0.000 A 
ATOM      8  N   UNL     1      -0.258  11.617  19.813  0.00  0.00    +0.000 NA
ATOM      9  N   UNL     1      -1.438  12.266  19.714  0.00  0.00    +0.000 N 
ATOM     10  C   UNL     1      -2.347  11.626  18.923  0.00  0.00    +0.000 A 
ATOM     11  N   UNL     1      -3.587  12.028  18.590  0.00  0.00    +0.000 NA
ATOM     12  H   UNL     1      -5.734  10.693  16.702  0.00  0.00    +0.000 HD
ENDROOT
BRANCH   7  13
ATOM     13  C   UNL     1       0.652   9.522  18.960  0.00  0.00    +0.000 A 
ATOM     14  C   UNL     1       0.975   8.640  19.994  0.00  0.00    +0.000 A 
ATOM     15  C   UNL     1       1.993   7.696  19.832  0.00  0.00    +0.000 A 
ATOM     16  C   UNL     1       2.696   7.571  18.622  0.00  0.00    +0.000 A 
ATOM     17  C   UNL     1       2.365   8.470  17.594  0.00  0.00    +0.000 A 
ATOM     18  C   UNL     1       1.365   9.435  17.760  0.00  0.00    +0.000 A 
BRANCH  16  19
ATOM     19  C   UNL     1       3.713   6.513  18.433  0.00  0.00    +0.000 A 
ATOM     20  C   UNL     1       4.460   6.426  17.242  0.00  0.00    +0.000 A 
ATOM     21  C   UNL     1       5.433   5.439  17.059  0.00  0.00    +0.000 A 
ATOM     22  C   UNL     1       5.693   4.525  18.072  0.00  0.00    +0.000 A 
ATOM     23  C   UNL     1       4.975   4.589  19.262  0.00  0.00    +0.000 A 
ATOM     24  C   UNL     1       3.991   5.567  19.435  0.00  0.00    +0.000 A 
ENDBRANCH  16  19
ENDBRANCH   7  13
BRANCH   9  25
ATOM     25  C   UNL     1      -1.607  13.524  20.420  0.00  0.00    +0.000 C 
BRANCH  25  26
ATOM     26  C   UNL     1      -1.799  13.411  21.950  0.00  0.00    +0.000 C 
ATOM     27  C   UNL     1      -3.186  12.866  22.341  0.00  0.00    +0.000 C 
ATOM     28  C   UNL     1      -3.415  12.851  23.852  0.00  0.00    +0.000 C 
ATOM     29  C   UNL     1      -3.162  14.235  24.458  0.00  0.00    +0.000 C 
ATOM     30  C   UNL     1      -1.731  14.687  24.161  0.00  0.00    +0.000 C 
ATOM     31  C   UNL     1      -1.477  14.737  22.657  0.00  0.00    +0.000 C 
BRANCH  29  32
ATOM     32  N   UNL     1      -3.390  14.222  25.901  0.00  0.00    +0.000 NA
ATOM     33  H   UNL     1      -2.635  14.714  26.378  0.00  0.00    +0.000 HD
ATOM     34  H   UNL     1      -3.366  13.262  26.242  0.00  0.00    +0.000 HD
ENDBRANCH  29  32
ENDBRANCH  25  26
ENDBRANCH   9  25
TORSDOF 5
ENDMDL
MODEL 8
REMARK VINA RESULT:      -8.2      7.294     11.455
REMARK  Name = 
REMARK  6 active torsions:
REMARK  status: ('A' for Active; 'I' for Inactive)
REMARK    1  A    between atoms: C_1  and  N_2
REMARK    2  A    between atoms: C_7  and  C_8
REMARK    3  A    between atoms: C_11  and  C_12
REMARK    4  A    between atoms: N_21  and  C_22
REMARK    5  A    between atoms: C_22  and  C_23
REMARK    6  A    between atoms: C_26  and  N_27
REMARK                            x       y       z     vdW  Elec       q    Type
REMARK                         _______ _______ _______ _____ _____    ______ ____
ROOT
ATOM      1  C   UNL     1      -2.933  14.208  23.288  0.00  0.00    +0.000 C 
ATOM      2  N   UNL     1      -1.967  13.258  23.783  0.00  0.00    +0.000 N 
ATOM      3  C   UNL     1      -1.225  12.624  22.795  0.00  0.00    +0.000 A 
ATOM      4  N   UNL     1      -0.963  11.331  23.057  0.00  0.00    +0.000 NA
ATOM      5  C   UNL     1      -0.241  10.610  22.171  0.00  0.00    +0.000 A 
ATOM      6  C   UNL     1       0.199  11.211  21.001  0.00  0.00    +0.000 A 
ATOM      7  C   UNL     1       0.927  10.855  19.831  0.00  0.00    +0.000 A 
ATOM      8  N   UNL     1       1.097  11.924  19.032  0.00  0.00    +0.000 NA
ATOM      9  N   UNL     1       0.489  12.936  19.687  0.00  0.00    +0.000 N 
ATOM     10  C   UNL     1      -0.114  12.549  20.849  0.00  0.00    +0.000 A 
ATOM     11  N   UNL     1      -0.832  13.301  21.701  0.00  0.00    +0.000 NA
ATOM     12  H   UNL     1      -2.350  12.508  24.352  0.00  0.00    +0.000 HD
ENDROOT
BRANCH   7  13
ATOM     13  C   UNL     1       1.440   9.544  19.441  0.00  0.00    +0.000 A 
ATOM     14  C   UNL     1       1.537   8.503  20.367  0.00  0.00    +0.000 A 
ATOM     15  C   UNL     1       1.996   7.242  19.975  0.00  0.00    +0.000 A 
ATOM     16  C   UNL     1       2.334   6.964  18.640  0.00  0.00    +0.000 A 
ATOM     17  C   UNL     1       2.237   8.023  17.721  0.00  0.00    +0.000 A 
ATOM     18  C   UNL     1       1.805   9.295  18.114  0.00  0.00    +0.000 A 
BRANCH  16  19
ATOM     19  C   UNL     1       2.737   5.603  18.220  0.00  0.00    +0.000 A 
ATOM     20  C   UNL     1       1.790   4.568  18.100  0.00  0.00    +0.000 A 
ATOM     21  C   UNL     1       2.157   3.284  17.690  0.00  0.00    +0.000 A 
ATOM     22  C   UNL     1       3.482   3.010  17.373  0.00  0.00    +0.000 A 
ATOM     23  C   UNL     1       4.440   4.014  17.475  0.00  0.00    +0.000 A 
ATOM     24  C   UNL     1       4.071   5.293  17.902  0.00  0.00    +0.000 A 
ENDBRANCH  16  19
ENDBRANCH   7  13
BRANCH   9  25
ATOM     25  C   UNL     1       0.530  14.268  19.110  0.00  0.00    +0.000 C 
BRANCH  25  26
ATOM     26  C   UNL     1       1.937  14.796  18.747  0.00  0.00    +0.000 C 
ATOM     27  C   UNL     1       2.943  14.662  19.906  0.00  0.00    +0.000 C 
ATOM     28  C   UNL     1       4.305  15.278  19.585  0.00  0.00    +0.000 C 
ATOM     29  C   UNL     1       4.156  16.734  19.133  0.00  0.00    +0.000 C 
ATOM     30  C   UNL     1       3.254  16.812  17.899  0.00  0.00    +0.000 C 
ATOM     31  C   UNL     1       1.875  16.229  18.194  0.00  0.00    +0.000 C 
BRANCH  29  32
ATOM     32  N   UNL     1       5.459  17.324  18.835  0.00  0.00    +0.000 NA
ATOM     33  H   UNL     1       6.121  16.593  18.572  0.00  0.00    +0.000 HD
ATOM     34  H   UNL     1       5.835  17.761  19.674  0.00  0.00    +0.000 HD
ENDBRANCH  29  32
ENDBRANCH  25  26
ENDBRANCH   9  25
TORSDOF 5
ENDMDL
MODEL 9
REMARK VINA RESULT:      -8.1      6.870     11.242
REMARK  Name = 
REMARK  6 active torsions:
REMARK  status: ('A' for Active; 'I' for Inactive)
REMARK    1  A    between atoms: C_1  and  N_2
REMARK    2  A    between atoms: C_7  and  C_8
REMARK    3  A    between atoms: C_11  and  C_12
REMARK    4  A    between atoms: N_21  and  C_22
REMARK    5  A    between atoms: C_22  and  C_23
REMARK    6  A    between atoms: C_26  and  N_27
REMARK                            x       y       z     vdW  Elec       q    Type
REMARK                         _______ _______ _______ _____ _____    ______ ____
ROOT
ATOM      1  C   UNL     1      -3.047  13.573  23.015  0.00  0.00    +0.000 C 
ATOM      2  N   UNL     1      -2.048  12.724  23.618  0.00  0.00    +0.000 N 
ATOM      3  C   UNL     1      -1.298  11.988  22.711  0.00  0.00    +0.000 A 
ATOM      4  N   UNL     1      -0.995  10.748  23.137  0.00  0.00    +0.000 NA
ATOM      5  C   UNL     1      -0.260   9.938  22.343  0.00  0.00    +0.000 A 
ATOM      6  C   UNL     1       0.150  10.391  21.099  0.00  0.00    +0.000 A 
ATOM      7  C   UNL     1       0.877   9.905  19.976  0.00  0.00    +0.000 A 
ATOM      8  N   UNL     1       1.006  10.863  19.041  0.00  0.00    +0.000 NA
ATOM      9  N   UNL     1       0.375  11.935  19.565  0.00  0.00    +0.000 N 
ATOM     10  C   UNL     1      -0.204  11.688  20.776  0.00  0.00    +0.000 A 
ATOM     11  N   UNL     1      -0.937  12.525  21.532  0.00  0.00    +0.000 NA
ATOM     12  H   UNL     1      -2.403  12.045  24.285  0.00  0.00    +0.000 HD
ENDROOT
BRANCH   7  13
ATOM     13  C   UNL     1       1.424   8.569  19.755  0.00  0.00    +0.000 A 
ATOM     14  C   UNL     1       1.358   7.589  20.748  0.00  0.00    +0.000 A 
ATOM     15  C   UNL     1       1.854   6.303  20.513  0.00  0.00    +0.000 A 
ATOM     16  C   UNL     1       2.395   5.938  19.269  0.00  0.00    +0.000 A 
ATOM     17  C   UNL     1       2.460   6.937  18.282  0.00  0.00    +0.000 A 
ATOM     18  C   UNL     1       1.990   8.233  18.521  0.00  0.00    +0.000 A 
BRANCH  16  19
ATOM     19  C   UNL     1       2.838   4.551  19.003  0.00  0.00    +0.000 A 
ATOM     20  C   UNL     1       2.777   4.003  17.708  0.00  0.00    +0.000 A 
ATOM     21  C   UNL     1       3.207   2.700  17.443  0.00  0.00    +0.000 A 
ATOM     22  C   UNL     1       3.725   1.919  18.470  0.00  0.00    +0.000 A 
ATOM     23  C   UNL     1       3.803   2.436  19.759  0.00  0.00    +0.000 A 
ATOM     24  C   UNL     1       3.356   3.734  20.022  0.00  0.00    +0.000 A 
ENDBRANCH  16  19
ENDBRANCH   7  13
BRANCH   9  25
ATOM     25  C   UNL     1       0.370  13.180  18.818  0.00  0.00    +0.000 C 
BRANCH  25  26
ATOM     26  C   UNL     1       1.442  14.213  19.234  0.00  0.00    +0.000 C 
ATOM     27  C   UNL     1       1.099  15.646  18.784  0.00  0.00    +0.000 C 
ATOM     28  C   UNL     1       2.207  16.651  19.103  0.00  0.00    +0.000 C 
ATOM     29  C   UNL     1       3.549  16.186  18.531  0.00  0.00    +0.000 C 
ATOM     30  C   UNL     1       3.920  14.816  19.103  0.00  0.00    +0.000 C 
ATOM     31  C   UNL     1       2.845  13.782  18.779  0.00  0.00    +0.000 C 
BRANCH  29  32
ATOM     32  N   UNL     1       4.605  17.152  18.829  0.00  0.00    +0.000 NA
ATOM     33  H   UNL     1       4.759  17.759  18.024  0.00  0.00    +0.000 HD
ATOM     34  H   UNL     1       5.483  16.659  18.986  0.00  0.00    +0.000 HD
ENDBRANCH  29  32
ENDBRANCH  25  26
ENDBRANCH   9  25
TORSDOF 5
ENDMDL
