MODEL 1
REMARK VINA RESULT:      -8.3      0.000      0.000
REMARK  Name = 
REMARK  15 active torsions:
REMARK  status: ('A' for Active; 'I' for Inactive)
REMARK    1  A    between atoms: C_1  and  C_2
REMARK    2  A    between atoms: C_2  and  O_4
REMARK    3  A    between atoms: O_4  and  C_5
REMARK    4  A    between atoms: C_5  and  C_6
REMARK    5  A    between atoms: C_6  and  O_7
REMARK    6  A    between atoms: C_6  and  C_11
REMARK    7  A    between atoms: O_7  and  C_8
REMARK    8  A    between atoms: C_8  and  C_9
REMARK    9  A    between atoms: C_13  and  N_14
REMARK   10  A    between atoms: C_25  and  O_26
REMARK   11  A    between atoms: O_26  and  C_27
REMARK   12  A    between atoms: C_27  and  C_28
REMARK   13  A    between atoms: C_30  and  O_31
REMARK   14  A    between atoms: O_31  and  C_32
REMARK   15  A    between atoms: C_32  and  C_33
REMARK                            x       y       z     vdW  Elec       q    Type
REMARK                         _______ _______ _______ _____ _____    ______ ____
ROOT
ATOM      1  C   UNL     1       5.123   5.349  18.457  0.00  0.00    +0.000 C 
ATOM      2  O   UNL     1       4.705   6.483  19.242  0.00  0.00    +0.000 OA
ATOM      3  C   UNL     1       3.309   6.372  19.537  0.00  0.00    +0.000 C 
ATOM      4  C   UNL     1       2.831   4.997  19.055  0.00  0.00    +0.000 C 
ATOM      5  C   UNL     1       3.859   4.622  17.984  0.00  0.00    +0.000 C 
ENDROOT
BRANCH   3   6
ATOM      6  N   UNL     1       2.637   7.532  18.987  0.00  0.00    +0.000 N 
ATOM      7  C   UNL     1       2.820   8.006  17.711  0.00  0.00    +0.000 A 
ATOM      8  N   UNL     1       2.048   9.039  17.449  0.00  0.00    +0.000 NA
ATOM      9  C   UNL     1       1.338   9.253  18.611  0.00  0.00    +0.000 A 
ATOM     10  C   UNL     1       0.377  10.214  18.974  0.00  0.00    +0.000 A 
ATOM     11  N   UNL     1      -0.025  11.236  18.126  0.00  0.00    +0.000 N 
ATOM     12  N   UNL     1      -0.180  10.146  20.202  0.00  0.00    +0.000 NA
ATOM     13  C   UNL     1       0.244   9.169  21.024  0.00  0.00    +0.000 A 
ATOM     14 CL   UNL     1      -0.469   9.145  22.580  0.00  0.00    +0.000 Cl
ATOM     15  N   UNL     1       1.173   8.216  20.809  0.00  0.00    +0.000 NA
ATOM     16  C   UNL     1       1.679   8.314  19.573  0.00  0.00    +0.000 A 
ATOM     17  H   UNL     1       0.166  11.065  17.146  0.00  0.00    +0.000 HD
ATOM     18  H   UNL     1      -0.922  11.631  18.378  0.00  0.00    +0.000 HD
ENDBRANCH   3   6
BRANCH   1  19
ATOM     19  C   UNL     1       6.046   5.853  17.324  0.00  0.00    +0.000 C 
BRANCH  19  20
ATOM     20  C   UNL     1       5.472   5.540  15.921  0.00  0.00    +0.000 C 
BRANCH  20  21
ATOM     21  O   UNL     1       6.097   4.398  15.295  0.00  0.00    +0.000 OA
BRANCH  21  23
ATOM     22  C   UNL     1       6.265   3.777  13.030  0.00  0.00    +0.000 C 
ATOM     23  C   UNL     1       6.779   4.643  14.144  0.00  0.00    +0.000 C 
ATOM     24  O   UNL     1       7.718   5.420  14.034  0.00  0.00    +0.000 OA
ENDBRANCH  21  23
ENDBRANCH  20  21
ENDBRANCH  19  20
BRANCH  19  25
ATOM     25  O   UNL     1       6.462   7.231  17.471  0.00  0.00    +0.000 OA
BRANCH  25  26
ATOM     26  C   UNL     1       7.655   7.515  18.048  0.00  0.00    +0.000 C 
ATOM     27  C   UNL     1       8.085   8.913  17.720  0.00  0.00    +0.000 C 
ATOM     28  O   UNL     1       8.306   6.736  18.733  0.00  0.00    +0.000 OA
ENDBRANCH  25  26
ENDBRANCH  19  25
ENDBRANCH   1  19
BRANCH   4  29
ATOM     29  O   UNL     1       2.911   4.020  20.134  0.00  0.00    +0.000 OA
BRANCH  29  30
ATOM     30  C   UNL     1       1.730   3.716  20.737  0.00  0.00    +0.000 C 
ATOM     31  C   UNL     1       1.927   2.729  21.845  0.00  0.00    +0.000 C 
ATOM     32  O   UNL     1       0.657   4.224  20.446  0.00  0.00    +0.000 OA
ENDBRANCH  29  30
ENDBRANCH   4  29
BRANCH   5  33
ATOM     33  O   UNL     1       4.110   3.206  17.906  0.00  0.00    +0.000 OA
BRANCH  33  34
ATOM     34  C   UNL     1       3.031   2.415  17.677  0.00  0.00    +0.000 C 
ATOM     35  C   UNL     1       3.129   1.148  18.473  0.00  0.00    +0.000 C 
ATOM     36  O   UNL     1       2.092   2.703  16.949  0.00  0.00    +0.000 OA
ENDBRANCH  33  34
ENDBRANCH   5  33
TORSDOF 11
ENDMDL
MODEL 2
REMARK VINA RESULT:      -8.2      1.039      1.152
REMARK  Name = 
REMARK  15 active torsions:
REMARK  status: ('A' for Active; 'I' for Inactive)
REMARK    1  A    between atoms: C_1  and  C_2
REMARK    2  A    between atoms: C_2  and  O_4
REMARK    3  A    between atoms: O_4  and  C_5
REMARK    4  A    between atoms: C_5  and  C_6
REMARK    5  A    between atoms: C_6  and  O_7
REMARK    6  A    between atoms: C_6  and  C_11
REMARK    7  A    between atoms: O_7  and  C_8
REMARK    8  A    between atoms: C_8  and  C_9
REMARK    9  A    between atoms: C_13  and  N_14
REMARK   10  A    between atoms: C_25  and  O_26
REMARK   11  A    between atoms: O_26  and  C_27
REMARK   12  A    between atoms: C_27  and  C_28
REMARK   13  A    between atoms: C_30  and  O_31
REMARK   14  A    between atoms: O_31  and  C_32
REMARK   15  A    between atoms: C_32  and  C_33
REMARK                            x       y       z     vdW  Elec       q    Type
REMARK                         _______ _______ _______ _____ _____    ______ ____
ROOT
ATOM      1  C   UNL     1       5.166   4.693  19.280  0.00  0.00    +0.000 C 
ATOM      2  O   UNL     1       4.754   5.933  19.887  0.00  0.00    +0.000 OA
ATOM      3  C   UNL     1       3.343   5.904  20.123  0.00  0.00    +0.000 C 
ATOM      4  C   UNL     1       2.838   4.492  19.803  0.00  0.00    +0.000 C 
ATOM      5  C   UNL     1       3.900   3.947  18.843  0.00  0.00    +0.000 C 
ENDROOT
BRANCH   3   6
ATOM      6  N   UNL     1       2.739   7.000  19.392  0.00  0.00    +0.000 N 
ATOM      7  C   UNL     1       2.950   7.257  18.060  0.00  0.00    +0.000 A 
ATOM      8  N   UNL     1       2.239   8.279  17.632  0.00  0.00    +0.000 NA
ATOM      9  C   UNL     1       1.542   8.711  18.740  0.00  0.00    +0.000 A 
ATOM     10  C   UNL     1       0.637   9.770  18.939  0.00  0.00    +0.000 A 
ATOM     11  N   UNL     1       0.296  10.669  17.938  0.00  0.00    +0.000 N 
ATOM     12  N   UNL     1       0.077   9.927  20.157  0.00  0.00    +0.000 NA
ATOM     13  C   UNL     1       0.443   9.068  21.126  0.00  0.00    +0.000 A 
ATOM     14 CL   UNL     1      -0.272   9.328  22.659  0.00  0.00    +0.000 Cl
ATOM     15  N   UNL     1       1.316   8.042  21.071  0.00  0.00    +0.000 NA
ATOM     16  C   UNL     1       1.828   7.917  19.839  0.00  0.00    +0.000 A 
ATOM     17  H   UNL     1       0.478  10.336  16.999  0.00  0.00    +0.000 HD
ATOM     18  H   UNL     1      -0.577  11.149  18.116  0.00  0.00    +0.000 HD
ENDBRANCH   3   6
BRANCH   1  19
ATOM     19  C   UNL     1       6.158   5.013  18.138  0.00  0.00    +0.000 C 
BRANCH  19  20
ATOM     20  C   UNL     1       5.799   4.273  16.828  0.00  0.00    +0.000 C 
BRANCH  20  21
ATOM     21  O   UNL     1       6.932   4.092  15.950  0.00  0.00    +0.000 OA
BRANCH  21  23
ATOM     22  C   UNL     1       5.599   4.278  14.019  0.00  0.00    +0.000 C 
ATOM     23  C   UNL     1       6.852   4.695  14.734  0.00  0.00    +0.000 C 
ATOM     24  O   UNL     1       7.703   5.432  14.257  0.00  0.00    +0.000 OA
ENDBRANCH  21  23
ENDBRANCH  20  21
ENDBRANCH  19  20
BRANCH  19  25
ATOM     25  O   UNL     1       6.395   6.428  17.943  0.00  0.00    +0.000 OA
BRANCH  25  26
ATOM     26  C   UNL     1       7.595   6.961  18.279  0.00  0.00    +0.000 C 
ATOM     27  C   UNL     1       7.826   8.252  17.553  0.00  0.00    +0.000 C 
ATOM     28  O   UNL     1       8.394   6.455  19.058  0.00  0.00    +0.000 OA
ENDBRANCH  25  26
ENDBRANCH  19  25
ENDBRANCH   1  19
BRANCH   4  29
ATOM     29  O   UNL     1       2.833   3.665  21.003  0.00  0.00    +0.000 OA
BRANCH  29  30
ATOM     30  C   UNL     1       1.635   3.105  21.323  0.00  0.00    +0.000 C 
ATOM     31  C   UNL     1       0.627   3.331  20.239  0.00  0.00    +0.000 C 
ATOM     32  O   UNL     1       1.427   2.458  22.338  0.00  0.00    +0.000 OA
ENDBRANCH  29  30
ENDBRANCH   4  29
BRANCH   5  33
ATOM     33  O   UNL     1       4.103   2.527  18.965  0.00  0.00    +0.000 OA
BRANCH  33  34
ATOM     34  C   UNL     1       3.585   1.757  17.974  0.00  0.00    +0.000 C 
ATOM     35  C   UNL     1       2.504   2.497  17.244  0.00  0.00    +0.000 C 
ATOM     36  O   UNL     1       3.965   0.630  17.690  0.00  0.00    +0.000 OA
ENDBRANCH  33  34
ENDBRANCH   5  33
TORSDOF 11
ENDMDL
MODEL 3
REMARK VINA RESULT:      -8.1      0.966      2.756
REMARK  Name = 
REMARK  15 active torsions:
REMARK  status: ('A' for Active; 'I' for Inactive)
REMARK    1  A    between atoms: C_1  and  C_2
REMARK    2  A    between atoms: C_2  and  O_4
REMARK    3  A    between atoms: O_4  and  C_5
REMARK    4  A    between atoms: C_5  and  C_6
REMARK    5  A    between atoms: C_6  and  O_7
REMARK    6  A    between atoms: C_6  and  C_11
REMARK    7  A    between atoms: O_7  and  C_8
REMARK    8  A    between atoms: C_8  and  C_9
REMARK    9  A    between atoms: C_13  and  N_14
REMARK   10  A    between atoms: C_25  and  O_26
REMARK   11  A    between atoms: O_26  and  C_27
REMARK   12  A    between atoms: C_27  and  C_28
REMARK   13  A    between atoms: C_30  and  O_31
REMARK   14  A    between atoms: O_31  and  C_32
REMARK   15  A    between atoms: C_32  and  C_33
REMARK                            x       y       z     vdW  Elec       q    Type
REMARK                         _______ _______ _______ _____ _____    ______ ____
ROOT
ATOM      1  C   UNL     1       4.875   5.807  18.169  0.00  0.00    +0.000 C 
ATOM      2  O   UNL     1       4.517   6.917  19.014  0.00  0.00    +0.000 OA
ATOM      3  C   UNL     1       3.218   6.694  19.574  0.00  0.00    +0.000 C 
ATOM      4  C   UNL     1       2.781   5.273  19.201  0.00  0.00    +0.000 C 
ATOM      5  C   UNL     1       3.613   4.964  17.953  0.00  0.00    +0.000 C 
ENDROOT
BRANCH   3   6
ATOM      6  N   UNL     1       2.353   7.780  19.158  0.00  0.00    +0.000 N 
ATOM      7  C   UNL     1       2.195   8.195  17.859  0.00  0.00    +0.000 A 
ATOM      8  N   UNL     1       1.310   9.164  17.751  0.00  0.00    +0.000 NA
ATOM      9  C   UNL     1       0.882   9.395  19.040  0.00  0.00    +0.000 A 
ATOM     10  C   UNL     1      -0.034  10.312  19.587  0.00  0.00    +0.000 A 
ATOM     11  N   UNL     1      -0.698  11.262  18.823  0.00  0.00    +0.000 N 
ATOM     12  N   UNL     1      -0.279  10.276  20.914  0.00  0.00    +0.000 NA
ATOM     13  C   UNL     1       0.397   9.372  21.647  0.00  0.00    +0.000 A 
ATOM     14 CL   UNL     1       0.075   9.387  23.327  0.00  0.00    +0.000 Cl
ATOM     15  N   UNL     1       1.316   8.468  21.251  0.00  0.00    +0.000 NA
ATOM     16  C   UNL     1       1.507   8.531  19.927  0.00  0.00    +0.000 A 
ATOM     17  H   UNL     1      -0.731  11.051  17.833  0.00  0.00    +0.000 HD
ATOM     18  H   UNL     1      -1.536  11.614  19.267  0.00  0.00    +0.000 HD
ENDBRANCH   3   6
BRANCH   1  19
ATOM     19  C   UNL     1       5.515   6.363  16.877  0.00  0.00    +0.000 C 
BRANCH  19  20
ATOM     20  C   UNL     1       7.050   6.509  17.002  0.00  0.00    +0.000 C 
BRANCH  20  21
ATOM     21  O   UNL     1       7.489   7.885  17.032  0.00  0.00    +0.000 OA
BRANCH  21  23
ATOM     22  C   UNL     1       8.498   9.735  18.080  0.00  0.00    +0.000 C 
ATOM     23  C   UNL     1       8.200   8.264  18.127  0.00  0.00    +0.000 C 
ATOM     24  O   UNL     1       8.595   7.510  19.006  0.00  0.00    +0.000 OA
ENDBRANCH  21  23
ENDBRANCH  20  21
ENDBRANCH  19  20
BRANCH  19  25
ATOM     25  O   UNL     1       5.108   5.671  15.672  0.00  0.00    +0.000 OA
BRANCH  25  26
ATOM     26  C   UNL     1       6.032   5.008  14.934  0.00  0.00    +0.000 C 
ATOM     27  C   UNL     1       6.000   3.540  15.235  0.00  0.00    +0.000 C 
ATOM     28  O   UNL     1       6.801   5.532  14.138  0.00  0.00    +0.000 OA
ENDBRANCH  25  26
ENDBRANCH  19  25
ENDBRANCH   1  19
BRANCH   4  29
ATOM     29  O   UNL     1       3.152   4.330  20.248  0.00  0.00    +0.000 OA
BRANCH  29  30
ATOM     30  C   UNL     1       2.126   3.874  21.016  0.00  0.00    +0.000 C 
ATOM     31  C   UNL     1       0.831   3.911  20.265  0.00  0.00    +0.000 C 
ATOM     32  O   UNL     1       2.255   3.442  22.152  0.00  0.00    +0.000 OA
ENDBRANCH  29  30
ENDBRANCH   4  29
BRANCH   5  33
ATOM     33  O   UNL     1       3.968   3.573  17.835  0.00  0.00    +0.000 OA
BRANCH  33  34
ATOM     34  C   UNL     1       2.957   2.715  17.548  0.00  0.00    +0.000 C 
ATOM     35  C   UNL     1       3.101   1.449  18.339  0.00  0.00    +0.000 C 
ATOM     36  O   UNL     1       2.037   2.948  16.778  0.00  0.00    +0.000 OA
ENDBRANCH  33  34
ENDBRANCH   5  33
TORSDOF 11
ENDMDL
MODEL 4
REMARK VINA RESULT:      -7.9      1.076      2.664
REMARK  Name = 
REMARK  15 active torsions:
REMARK  status: ('A' for Active; 'I' for Inactive)
REMARK    1  A    between atoms: C_1  and  C_2
REMARK    2  A    between atoms: C_2  and  O_4
REMARK    3  A    between atoms: O_4  and  C_5
REMARK    4  A    between atoms: C_5  and  C_6
REMARK    5  A    between atoms: C_6  and  O_7
REMARK    6  A    between atoms: C_6  and  C_11
REMARK    7  A    between atoms: O_7  and  C_8
REMARK    8  A    between atoms: C_8  and  C_9
REMARK    9  A    between atoms: C_13  and  N_14
REMARK   10  A    between atoms: C_25  and  O_26
REMARK   11  A    between atoms: O_26  and  C_27
REMARK   12  A    between atoms: C_27  and  C_28
REMARK   13  A    between atoms: C_30  and  O_31
REMARK   14  A    between atoms: O_31  and  C_32
REMARK   15  A    between atoms: C_32  and  C_33
REMARK                            x       y       z     vdW  Elec       q    Type
REMARK                         _______ _______ _______ _____ _____    ______ ____
ROOT
ATOM      1  C   UNL     1       4.878   5.502  18.103  0.00  0.00    +0.000 C 
ATOM      2  O   UNL     1       4.646   6.736  18.808  0.00  0.00    +0.000 OA
ATOM      3  C   UNL     1       3.365   6.688  19.447  0.00  0.00    +0.000 C 
ATOM      4  C   UNL     1       2.809   5.269  19.284  0.00  0.00    +0.000 C 
ATOM      5  C   UNL     1       3.550   4.739  18.053  0.00  0.00    +0.000 C 
ENDROOT
BRANCH   3   6
ATOM      6  N   UNL     1       2.559   7.775  18.930  0.00  0.00    +0.000 N 
ATOM      7  C   UNL     1       2.635   8.257  17.646  0.00  0.00    +0.000 A 
ATOM      8  N   UNL     1       1.755   9.210  17.421  0.00  0.00    +0.000 NA
ATOM      9  C   UNL     1       1.085   9.361  18.615  0.00  0.00    +0.000 A 
ATOM     10  C   UNL     1       0.054  10.226  19.023  0.00  0.00    +0.000 A 
ATOM     11  N   UNL     1      -0.485  11.201  18.195  0.00  0.00    +0.000 N 
ATOM     12  N   UNL     1      -0.435  10.112  20.276  0.00  0.00    +0.000 NA
ATOM     13  C   UNL     1       0.120   9.185  21.078  0.00  0.00    +0.000 A 
ATOM     14 CL   UNL     1      -0.512   9.101  22.666  0.00  0.00    +0.000 Cl
ATOM     15  N   UNL     1       1.126   8.325  20.819  0.00  0.00    +0.000 NA
ATOM     16  C   UNL     1       1.560   8.464  19.560  0.00  0.00    +0.000 A 
ATOM     17  H   UNL     1      -0.325  11.044  17.208  0.00  0.00    +0.000 HD
ATOM     18  H   UNL     1      -1.402  11.510  18.489  0.00  0.00    +0.000 HD
ENDBRANCH   3   6
BRANCH   1  19
ATOM     19  C   UNL     1       5.488   5.836  16.722  0.00  0.00    +0.000 C 
BRANCH  19  20
ATOM     20  C   UNL     1       7.034   5.861  16.756  0.00  0.00    +0.000 C 
BRANCH  20  21
ATOM     21  O   UNL     1       7.590   5.096  17.848  0.00  0.00    +0.000 OA
BRANCH  21  23
ATOM     22  C   UNL     1       8.189   7.254  18.576  0.00  0.00    +0.000 C 
ATOM     23  C   UNL     1       7.998   5.808  18.933  0.00  0.00    +0.000 C 
ATOM     24  O   UNL     1       8.232   5.335  20.036  0.00  0.00    +0.000 OA
ENDBRANCH  21  23
ENDBRANCH  20  21
ENDBRANCH  19  20
BRANCH  19  25
ATOM     25  O   UNL     1       4.959   5.039  15.635  0.00  0.00    +0.000 OA
BRANCH  25  26
ATOM     26  C   UNL     1       5.682   4.000  15.151  0.00  0.00    +0.000 C 
ATOM     27  C   UNL     1       6.081   4.248  13.727  0.00  0.00    +0.000 C 
ATOM     28  O   UNL     1       5.963   2.987  15.779  0.00  0.00    +0.000 OA
ENDBRANCH  25  26
ENDBRANCH  19  25
ENDBRANCH   1  19
BRANCH   4  29
ATOM     29  O   UNL     1       3.167   4.442  20.430  0.00  0.00    +0.000 OA
BRANCH  29  30
ATOM     30  C   UNL     1       2.120   3.917  21.122  0.00  0.00    +0.000 C 
ATOM     31  C   UNL     1       0.830   4.121  20.390  0.00  0.00    +0.000 C 
ATOM     32  O   UNL     1       2.228   3.312  22.179  0.00  0.00    +0.000 OA
ENDBRANCH  29  30
ENDBRANCH   4  29
BRANCH   5  33
ATOM     33  O   UNL     1       3.799   3.321  18.105  0.00  0.00    +0.000 OA
BRANCH  33  34
ATOM     34  C   UNL     1       2.790   2.516  17.684  0.00  0.00    +0.000 C 
ATOM     35  C   UNL     1       2.648   1.331  18.593  0.00  0.00    +0.000 C 
ATOM     36  O   UNL     1       2.073   2.738  16.719  0.00  0.00    +0.000 OA
ENDBRANCH  33  34
ENDBRANCH   5  33
TORSDOF 11
ENDMDL
MODEL 5
REMARK VINA RESULT:      -7.9      0.974      2.630
REMARK  Name = 
REMARK  15 active torsions:
REMARK  status: ('A' for Active; 'I' for Inactive)
REMARK    1  A    between atoms: C_1  and  C_2
REMARK    2  A    between atoms: C_2  and  O_4
REMARK    3  A    between atoms: O_4  and  C_5
REMARK    4  A    between atoms: C_5  and  C_6
REMARK    5  A    between atoms: C_6  and  O_7
REMARK    6  A    between atoms: C_6  and  C_11
REMARK    7  A    between atoms: O_7  and  C_8
REMARK    8  A    between atoms: C_8  and  C_9
REMARK    9  A    between atoms: C_13  and  N_14
REMARK   10  A    between atoms: C_25  and  O_26
REMARK   11  A    between atoms: O_26  and  C_27
REMARK   12  A    between atoms: C_27  and  C_28
REMARK   13  A    between atoms: C_30  and  O_31
REMARK   14  A    between atoms: O_31  and  C_32
REMARK   15  A    between atoms: C_32  and  C_33
REMARK                            x       y       z     vdW  Elec       q    Type
REMARK                         _______ _______ _______ _____ _____    ______ ____
ROOT
ATOM      1  C   UNL     1       4.991   5.437  18.187  0.00  0.00    +0.000 C 
ATOM      2  O   UNL     1       4.720   6.677  18.868  0.00  0.00    +0.000 OA
ATOM      3  C   UNL     1       3.440   6.604  19.504  0.00  0.00    +0.000 C 
ATOM      4  C   UNL     1       2.925   5.166  19.367  0.00  0.00    +0.000 C 
ATOM      5  C   UNL     1       3.685   4.635  18.149  0.00  0.00    +0.000 C 
ENDROOT
BRANCH   3   6
ATOM      6  N   UNL     1       2.604   7.657  18.964  0.00  0.00    +0.000 N 
ATOM      7  C   UNL     1       2.620   8.068  17.654  0.00  0.00    +0.000 A 
ATOM      8  N   UNL     1       1.725   9.003  17.416  0.00  0.00    +0.000 NA
ATOM      9  C   UNL     1       1.105   9.215  18.628  0.00  0.00    +0.000 A 
ATOM     10  C   UNL     1       0.086  10.097  19.033  0.00  0.00    +0.000 A 
ATOM     11  N   UNL     1      -0.495  11.022  18.178  0.00  0.00    +0.000 N 
ATOM     12  N   UNL     1      -0.346  10.048  20.311  0.00  0.00    +0.000 NA
ATOM     13  C   UNL     1       0.249   9.170  21.137  0.00  0.00    +0.000 A 
ATOM     14 CL   UNL     1      -0.313   9.169  22.753  0.00  0.00    +0.000 Cl
ATOM     15  N   UNL     1       1.249   8.302  20.882  0.00  0.00    +0.000 NA
ATOM     16  C   UNL     1       1.628   8.374  19.599  0.00  0.00    +0.000 A 
ATOM     17  H   UNL     1      -0.376  10.812  17.194  0.00  0.00    +0.000 HD
ATOM     18  H   UNL     1      -1.401  11.341  18.494  0.00  0.00    +0.000 HD
ENDBRANCH   3   6
BRANCH   1  19
ATOM     19  C   UNL     1       5.594   5.762  16.801  0.00  0.00    +0.000 C 
BRANCH  19  20
ATOM     20  C   UNL     1       6.020   7.245  16.683  0.00  0.00    +0.000 C 
BRANCH  20  21
ATOM     21  O   UNL     1       7.452   7.430  16.726  0.00  0.00    +0.000 OA
BRANCH  21  23
ATOM     22  C   UNL     1       8.267   6.981  18.889  0.00  0.00    +0.000 C 
ATOM     23  C   UNL     1       7.948   8.016  17.848  0.00  0.00    +0.000 C 
ATOM     24  O   UNL     1       8.070   9.221  18.017  0.00  0.00    +0.000 OA
ENDBRANCH  21  23
ENDBRANCH  20  21
ENDBRANCH  19  20
BRANCH  19  25
ATOM     25  O   UNL     1       6.627   4.842  16.377  0.00  0.00    +0.000 OA
BRANCH  25  26
ATOM     26  C   UNL     1       6.910   4.711  15.058  0.00  0.00    +0.000 C 
ATOM     27  C   UNL     1       5.908   3.822  14.384  0.00  0.00    +0.000 C 
ATOM     28  O   UNL     1       7.861   5.234  14.489  0.00  0.00    +0.000 OA
ENDBRANCH  25  26
ENDBRANCH  19  25
ENDBRANCH   1  19
BRANCH   4  29
ATOM     29  O   UNL     1       3.304   4.373  20.530  0.00  0.00    +0.000 OA
BRANCH  29  30
ATOM     30  C   UNL     1       2.272   3.809  21.215  0.00  0.00    +0.000 C 
ATOM     31  C   UNL     1       0.972   4.021  20.504  0.00  0.00    +0.000 C 
ATOM     32  O   UNL     1       2.400   3.170  22.249  0.00  0.00    +0.000 OA
ENDBRANCH  29  30
ENDBRANCH   4  29
BRANCH   5  33
ATOM     33  O   UNL     1       3.975   3.226  18.229  0.00  0.00    +0.000 OA
BRANCH  33  34
ATOM     34  C   UNL     1       2.956   2.383  17.924  0.00  0.00    +0.000 C 
ATOM     35  C   UNL     1       2.212   2.872  16.717  0.00  0.00    +0.000 C 
ATOM     36  O   UNL     1       2.697   1.351  18.525  0.00  0.00    +0.000 OA
ENDBRANCH  33  34
ENDBRANCH   5  33
TORSDOF 11
ENDMDL
MODEL 6
REMARK VINA RESULT:      -7.6      1.073      2.457
REMARK  Name = 
REMARK  15 active torsions:
REMARK  status: ('A' for Active; 'I' for Inactive)
REMARK    1  A    between atoms: C_1  and  C_2
REMARK    2  A    between atoms: C_2  and  O_4
REMARK    3  A    between atoms: O_4  and  C_5
REMARK    4  A    between atoms: C_5  and  C_6
REMARK    5  A    between atoms: C_6  and  O_7
REMARK    6  A    between atoms: C_6  and  C_11
REMARK    7  A    between atoms: O_7  and  C_8
REMARK    8  A    between atoms: C_8  and  C_9
REMARK    9  A    between atoms: C_13  and  N_14
REMARK   10  A    between atoms: C_25  and  O_26
REMARK   11  A    between atoms: O_26  and  C_27
REMARK   12  A    between atoms: C_27  and  C_28
REMARK   13  A    between atoms: C_30  and  O_31
REMARK   14  A    between atoms: O_31  and  C_32
REMARK   15  A    between atoms: C_32  and  C_33
REMARK                            x       y       z     vdW  Elec       q    Type
REMARK                         _______ _______ _______ _____ _____    ______ ____
ROOT
ATOM      1  C   UNL     1       4.338   5.482  19.133  0.00  0.00    +0.000 C 
ATOM      2  O   UNL     1       4.020   6.747  19.745  0.00  0.00    +0.000 OA
ATOM      3  C   UNL     1       2.621   6.796  20.044  0.00  0.00    +0.000 C 
ATOM      4  C   UNL     1       2.028   5.410  19.761  0.00  0.00    +0.000 C 
ATOM      5  C   UNL     1       3.015   4.802  18.760  0.00  0.00    +0.000 C 
ENDROOT
BRANCH   3   6
ATOM      6  N   UNL     1       2.044   7.917  19.330  0.00  0.00    +0.000 N 
ATOM      7  C   UNL     1       2.212   8.154  17.987  0.00  0.00    +0.000 A 
ATOM      8  N   UNL     1       1.537   9.209  17.581  0.00  0.00    +0.000 NA
ATOM      9  C   UNL     1       0.910   9.684  18.713  0.00  0.00    +0.000 A 
ATOM     10  C   UNL     1       0.070  10.789  18.940  0.00  0.00    +0.000 A 
ATOM     11  N   UNL     1      -0.267  11.697  17.947  0.00  0.00    +0.000 N 
ATOM     12  N   UNL     1      -0.431  10.982  20.179  0.00  0.00    +0.000 NA
ATOM     13  C   UNL     1      -0.069  10.111  21.139  0.00  0.00    +0.000 A 
ATOM     14 CL   UNL     1      -0.704  10.418  22.698  0.00  0.00    +0.000 Cl
ATOM     15  N   UNL     1       0.748   9.042  21.057  0.00  0.00    +0.000 NA
ATOM     16  C   UNL     1       1.200   8.882  19.806  0.00  0.00    +0.000 A 
ATOM     17  H   UNL     1      -0.141  11.350  17.004  0.00  0.00    +0.000 HD
ATOM     18  H   UNL     1      -1.105  12.223  18.157  0.00  0.00    +0.000 HD
ENDBRANCH   3   6
BRANCH   1  19
ATOM     19  C   UNL     1       5.293   5.741  17.945  0.00  0.00    +0.000 C 
BRANCH  19  20
ATOM     20  C   UNL     1       6.765   5.421  18.299  0.00  0.00    +0.000 C 
BRANCH  20  21
ATOM     21  O   UNL     1       7.542   6.597  18.612  0.00  0.00    +0.000 OA
BRANCH  21  23
ATOM     22  C   UNL     1       7.981   8.828  18.002  0.00  0.00    +0.000 C 
ATOM     23  C   UNL     1       7.870   7.397  17.562  0.00  0.00    +0.000 C 
ATOM     24  O   UNL     1       8.003   7.020  16.406  0.00  0.00    +0.000 OA
ENDBRANCH  21  23
ENDBRANCH  20  21
ENDBRANCH  19  20
BRANCH  19  25
ATOM     25  O   UNL     1       4.866   5.135  16.702  0.00  0.00    +0.000 OA
BRANCH  25  26
ATOM     26  C   UNL     1       5.245   5.684  15.522  0.00  0.00    +0.000 C 
ATOM     27  C   UNL     1       5.929   4.668  14.658  0.00  0.00    +0.000 C 
ATOM     28  O   UNL     1       5.068   6.853  15.204  0.00  0.00    +0.000 OA
ENDBRANCH  25  26
ENDBRANCH  19  25
ENDBRANCH   1  19
BRANCH   4  29
ATOM     29  O   UNL     1       2.033   4.594  20.968  0.00  0.00    +0.000 OA
BRANCH  29  30
ATOM     30  C   UNL     1       1.236   3.492  20.933  0.00  0.00    +0.000 C 
ATOM     31  C   UNL     1       1.648   2.494  21.970  0.00  0.00    +0.000 C 
ATOM     32  O   UNL     1       0.278   3.359  20.187  0.00  0.00    +0.000 OA
ENDBRANCH  29  30
ENDBRANCH   4  29
BRANCH   5  33
ATOM     33  O   UNL     1       3.148   3.374  18.888  0.00  0.00    +0.000 OA
BRANCH  33  34
ATOM     34  C   UNL     1       2.938   2.647  17.761  0.00  0.00    +0.000 C 
ATOM     35  C   UNL     1       3.660   1.334  17.839  0.00  0.00    +0.000 C 
ATOM     36  O   UNL     1       2.233   2.993  16.824  0.00  0.00    +0.000 OA
ENDBRANCH  33  34
ENDBRANCH   5  33
TORSDOF 11
ENDMDL
MODEL 7
REMARK VINA RESULT:      -7.6      1.048      1.154
REMARK  Name = 
REMARK  15 active torsions:
REMARK  status: ('A' for Active; 'I' for Inactive)
REMARK    1  A    between atoms: C_1  and  C_2
REMARK    2  A    between atoms: C_2  and  O_4
REMARK    3  A    between atoms: O_4  and  C_5
REMARK    4  A    between atoms: C_5  and  C_6
REMARK    5  A    between atoms: C_6  and  O_7
REMARK    6  A    between atoms: C_6  and  C_11
REMARK    7  A    between atoms: O_7  and  C_8
REMARK    8  A    between atoms: C_8  and  C_9
REMARK    9  A    between atoms: C_13  and  N_14
REMARK   10  A    between atoms: C_25  and  O_26
REMARK   11  A    between atoms: O_26  and  C_27
REMARK   12  A    between atoms: C_27  and  C_28
REMARK   13  A    between atoms: C_30  and  O_31
REMARK   14  A    between atoms: O_31  and  C_32
REMARK   15  A    between atoms: C_32  and  C_33
REMARK                            x       y       z     vdW  Elec       q    Type
REMARK                         _______ _______ _______ _____ _____    ______ ____
ROOT
ATOM      1  C   UNL     1       4.434   5.397  18.982  0.00  0.00    +0.000 C 
ATOM      2  O   UNL     1       4.154   6.671  19.595  0.00  0.00    +0.000 OA
ATOM      3  C   UNL     1       2.773   6.731  19.966  0.00  0.00    +0.000 C 
ATOM      4  C   UNL     1       2.160   5.345  19.732  0.00  0.00    +0.000 C 
ATOM      5  C   UNL     1       3.090   4.720  18.688  0.00  0.00    +0.000 C 
ENDROOT
BRANCH   3   6
ATOM      6  N   UNL     1       2.165   7.846  19.270  0.00  0.00    +0.000 N 
ATOM      7  C   UNL     1       2.331   8.113  17.933  0.00  0.00    +0.000 A 
ATOM      8  N   UNL     1       1.626   9.154  17.542  0.00  0.00    +0.000 NA
ATOM      9  C   UNL     1       0.979   9.588  18.679  0.00  0.00    +0.000 A 
ATOM     10  C   UNL     1       0.104  10.663  18.923  0.00  0.00    +0.000 A 
ATOM     11  N   UNL     1      -0.257  11.578  17.945  0.00  0.00    +0.000 N 
ATOM     12  N   UNL     1      -0.407  10.817  20.163  0.00  0.00    +0.000 NA
ATOM     13  C   UNL     1      -0.023   9.941  21.109  0.00  0.00    +0.000 A 
ATOM     14 CL   UNL     1      -0.674  10.199  22.670  0.00  0.00    +0.000 Cl
ATOM     15  N   UNL     1       0.827   8.899  21.011  0.00  0.00    +0.000 NA
ATOM     16  C   UNL     1       1.289   8.776  19.760  0.00  0.00    +0.000 A 
ATOM     17  H   UNL     1      -0.116  11.252  16.996  0.00  0.00    +0.000 HD
ATOM     18  H   UNL     1      -1.112  12.074  18.161  0.00  0.00    +0.000 HD
ENDBRANCH   3   6
BRANCH   1  19
ATOM     19  C   UNL     1       5.326   5.637  17.743  0.00  0.00    +0.000 C 
BRANCH  19  20
ATOM     20  C   UNL     1       4.645   5.171  16.434  0.00  0.00    +0.000 C 
BRANCH  20  21
ATOM     21  O   UNL     1       5.306   4.042  15.821  0.00  0.00    +0.000 OA
BRANCH  21  23
ATOM     22  C   UNL     1       7.179   4.882  14.669  0.00  0.00    +0.000 C 
ATOM     23  C   UNL     1       5.820   4.249  14.580  0.00  0.00    +0.000 C 
ATOM     24  O   UNL     1       5.242   4.007  13.529  0.00  0.00    +0.000 OA
ENDBRANCH  21  23
ENDBRANCH  20  21
ENDBRANCH  19  20
BRANCH  19  25
ATOM     25  O   UNL     1       5.866   6.977  17.654  0.00  0.00    +0.000 OA
BRANCH  25  26
ATOM     26  C   UNL     1       7.207   7.164  17.690  0.00  0.00    +0.000 C 
ATOM     27  C   UNL     1       7.850   6.227  18.668  0.00  0.00    +0.000 C 
ATOM     28  O   UNL     1       7.818   7.993  17.026  0.00  0.00    +0.000 OA
ENDBRANCH  25  26
ENDBRANCH  19  25
ENDBRANCH   1  19
BRANCH   4  29
ATOM     29  O   UNL     1       2.224   4.543  20.947  0.00  0.00    +0.000 OA
BRANCH  29  30
ATOM     30  C   UNL     1       1.366   3.490  20.999  0.00  0.00    +0.000 C 
ATOM     31  C   UNL     1       1.783   2.504  22.045  0.00  0.00    +0.000 C 
ATOM     32  O   UNL     1       0.357   3.389  20.316  0.00  0.00    +0.000 OA
ENDBRANCH  29  30
ENDBRANCH   4  29
BRANCH   5  33
ATOM     33  O   UNL     1       3.223   3.293  18.825  0.00  0.00    +0.000 OA
BRANCH  33  34
ATOM     34  C   UNL     1       2.869   2.548  17.747  0.00  0.00    +0.000 C 
ATOM     35  C   UNL     1       3.701   1.303  17.671  0.00  0.00    +0.000 C 
ATOM     36  O   UNL     1       1.975   2.832  16.961  0.00  0.00    +0.000 OA
ENDBRANCH  33  34
ENDBRANCH   5  33
TORSDOF 11
ENDMDL
MODEL 8
REMARK VINA RESULT:      -7.4      0.909      1.042
REMARK  Name = 
REMARK  15 active torsions:
REMARK  status: ('A' for Active; 'I' for Inactive)
REMARK    1  A    between atoms: C_1  and  C_2
REMARK    2  A    between atoms: C_2  and  O_4
REMARK    3  A    between atoms: O_4  and  C_5
REMARK    4  A    between atoms: C_5  and  C_6
REMARK    5  A    between atoms: C_6  and  O_7
REMARK    6  A    between atoms: C_6  and  C_11
REMARK    7  A    between atoms: O_7  and  C_8
REMARK    8  A    between atoms: C_8  and  C_9
REMARK    9  A    between atoms: C_13  and  N_14
REMARK   10  A    between atoms: C_25  and  O_26
REMARK   11  A    between atoms: O_26  and  C_27
REMARK   12  A    between atoms: C_27  and  C_28
REMARK   13  A    between atoms: C_30  and  O_31
REMARK   14  A    between atoms: O_31  and  C_32
REMARK   15  A    between atoms: C_32  and  C_33
REMARK                            x       y       z     vdW  Elec       q    Type
REMARK                         _______ _______ _______ _____ _____    ______ ____
ROOT
ATOM      1  C   UNL     1       5.154   5.635  18.432  0.00  0.00    +0.000 C 
ATOM      2  O   UNL     1       4.716   6.800  19.159  0.00  0.00    +0.000 OA
ATOM      3  C   UNL     1       3.371   6.607  19.607  0.00  0.00    +0.000 C 
ATOM      4  C   UNL     1       2.972   5.159  19.296  0.00  0.00    +0.000 C 
ATOM      5  C   UNL     1       3.919   4.770  18.157  0.00  0.00    +0.000 C 
ENDROOT
BRANCH   3   6
ATOM      6  N   UNL     1       2.548   7.654  19.037  0.00  0.00    +0.000 N 
ATOM      7  C   UNL     1       2.597   8.053  17.723  0.00  0.00    +0.000 A 
ATOM      8  N   UNL     1       1.707   8.985  17.454  0.00  0.00    +0.000 NA
ATOM      9  C   UNL     1       1.058   9.209  18.649  0.00  0.00    +0.000 A 
ATOM     10  C   UNL     1       0.029  10.093  19.020  0.00  0.00    +0.000 A 
ATOM     11  N   UNL     1      -0.531  11.010  18.142  0.00  0.00    +0.000 N 
ATOM     12  N   UNL     1      -0.435  10.057  20.287  0.00  0.00    +0.000 NA
ATOM     13  C   UNL     1       0.140   9.186  21.136  0.00  0.00    +0.000 A 
ATOM     14 CL   UNL     1      -0.462   9.201  22.738  0.00  0.00    +0.000 Cl
ATOM     15  N   UNL     1       1.146   8.317  20.914  0.00  0.00    +0.000 NA
ATOM     16  C   UNL     1       1.556   8.377  19.640  0.00  0.00    +0.000 A 
ATOM     17  H   UNL     1      -0.388  10.791  17.163  0.00  0.00    +0.000 HD
ATOM     18  H   UNL     1      -1.445  11.332  18.433  0.00  0.00    +0.000 HD
ENDBRANCH   3   6
BRANCH   1  19
ATOM     19  C   UNL     1       5.913   6.104  17.170  0.00  0.00    +0.000 C 
BRANCH  19  20
ATOM     20  C   UNL     1       5.057   5.968  15.889  0.00  0.00    +0.000 C 
BRANCH  20  21
ATOM     21  O   UNL     1       5.230   4.699  15.222  0.00  0.00    +0.000 OA
BRANCH  21  23
ATOM     22  C   UNL     1       7.050   4.769  13.731  0.00  0.00    +0.000 C 
ATOM     23  C   UNL     1       6.513   4.284  15.046  0.00  0.00    +0.000 C 
ATOM     24  O   UNL     1       7.133   3.569  15.821  0.00  0.00    +0.000 OA
ENDBRANCH  21  23
ENDBRANCH  20  21
ENDBRANCH  19  20
BRANCH  19  25
ATOM     25  O   UNL     1       6.530   7.407  17.303  0.00  0.00    +0.000 OA
BRANCH  25  26
ATOM     26  C   UNL     1       7.687   7.534  17.997  0.00  0.00    +0.000 C 
ATOM     27  C   UNL     1       8.213   8.935  17.902  0.00  0.00    +0.000 C 
ATOM     28  O   UNL     1       8.242   6.630  18.609  0.00  0.00    +0.000 OA
ENDBRANCH  25  26
ENDBRANCH  19  25
ENDBRANCH   1  19
BRANCH   4  29
ATOM     29  O   UNL     1       3.242   4.295  20.438  0.00  0.00    +0.000 OA
BRANCH  29  30
ATOM     30  C   UNL     1       2.145   3.838  21.099  0.00  0.00    +0.000 C 
ATOM     31  C   UNL     1       0.905   4.020  20.280  0.00  0.00    +0.000 C 
ATOM     32  O   UNL     1       2.177   3.302  22.197  0.00  0.00    +0.000 OA
ENDBRANCH  29  30
ENDBRANCH   4  29
BRANCH   5  33
ATOM     33  O   UNL     1       4.285   3.377  18.172  0.00  0.00    +0.000 OA
BRANCH  33  34
ATOM     34  C   UNL     1       3.303   2.493  17.863  0.00  0.00    +0.000 C 
ATOM     35  C   UNL     1       2.349   3.091  16.872  0.00  0.00    +0.000 C 
ATOM     36  O   UNL     1       3.220   1.355  18.302  0.00  0.00    +0.000 OA
ENDBRANCH  33  34
ENDBRANCH   5  33
TORSDOF 11
ENDMDL
MODEL 9
REMARK VINA RESULT:      -7.3      0.986      2.668
REMARK  Name = 
REMARK  15 active torsions:
REMARK  status: ('A' for Active; 'I' for Inactive)
REMARK    1  A    between atoms: C_1  and  C_2
REMARK    2  A    between atoms: C_2  and  O_4
REMARK    3  A    between atoms: O_4  and  C_5
REMARK    4  A    between atoms: C_5  and  C_6
REMARK    5  A    between atoms: C_6  and  O_7
REMARK    6  A    between atoms: C_6  and  C_11
REMARK    7  A    between atoms: O_7  and  C_8
REMARK    8  A    between atoms: C_8  and  C_9
REMARK    9  A    between atoms: C_13  and  N_14
REMARK   10  A    between atoms: C_25  and  O_26
REMARK   11  A    between atoms: O_26  and  C_27
REMARK   12  A    between atoms: C_27  and  C_28
REMARK   13  A    between atoms: C_30  and  O_31
REMARK   14  A    between atoms: O_31  and  C_32
REMARK   15  A    between atoms: C_32  and  C_33
REMARK                            x       y       z     vdW  Elec       q    Type
REMARK                         _______ _______ _______ _____ _____    ______ ____
ROOT
ATOM      1  C   UNL     1       4.492   5.409  17.834  0.00  0.00    +0.000 C 
ATOM      2  O   UNL     1       4.375   6.574  18.674  0.00  0.00    +0.000 OA
ATOM      3  C   UNL     1       3.080   6.599  19.282  0.00  0.00    +0.000 C 
ATOM      4  C   UNL     1       2.376   5.278  18.948  0.00  0.00    +0.000 C 
ATOM      5  C   UNL     1       3.089   4.810  17.676  0.00  0.00    +0.000 C 
ENDROOT
BRANCH   3   6
ATOM      6  N   UNL     1       2.413   7.821  18.880  0.00  0.00    +0.000 N 
ATOM      7  C   UNL     1       2.535   8.403  17.642  0.00  0.00    +0.000 A 
ATOM      8  N   UNL     1       1.782   9.475  17.521  0.00  0.00    +0.000 NA
ATOM      9  C   UNL     1       1.149   9.601  18.739  0.00  0.00    +0.000 A 
ATOM     10  C   UNL     1       0.242  10.550  19.245  0.00  0.00    +0.000 A 
ATOM     11  N   UNL     1      -0.177  11.655  18.518  0.00  0.00    +0.000 N 
ATOM     12  N   UNL     1      -0.243  10.386  20.494  0.00  0.00    +0.000 NA
ATOM     13  C   UNL     1       0.198   9.328  21.199  0.00  0.00    +0.000 A 
ATOM     14 CL   UNL     1      -0.422   9.182  22.787  0.00  0.00    +0.000 Cl
ATOM     15  N   UNL     1       1.083   8.375  20.843  0.00  0.00    +0.000 NA
ATOM     16  C   UNL     1       1.517   8.571  19.591  0.00  0.00    +0.000 A 
ATOM     17  H   UNL     1      -0.050  11.569  17.517  0.00  0.00    +0.000 HD
ATOM     18  H   UNL     1      -1.044  12.049  18.859  0.00  0.00    +0.000 HD
ENDBRANCH   3   6
BRANCH   1  19
ATOM     19  C   UNL     1       5.173   5.826  16.511  0.00  0.00    +0.000 C 
BRANCH  19  20
ATOM     20  C   UNL     1       6.693   6.058  16.685  0.00  0.00    +0.000 C 
BRANCH  20  21
ATOM     21  O   UNL     1       7.054   7.457  16.714  0.00  0.00    +0.000 OA
BRANCH  21  23
ATOM     22  C   UNL     1       8.045   6.721  18.718  0.00  0.00    +0.000 C 
ATOM     23  C   UNL     1       7.812   7.860  17.768  0.00  0.00    +0.000 C 
ATOM     24  O   UNL     1       8.207   9.002  17.954  0.00  0.00    +0.000 OA
ENDBRANCH  21  23
ENDBRANCH  20  21
ENDBRANCH  19  20
BRANCH  19  25
ATOM     25  O   UNL     1       4.857   4.968  15.389  0.00  0.00    +0.000 OA
BRANCH  25  26
ATOM     26  C   UNL     1       5.727   3.996  15.020  0.00  0.00    +0.000 C 
ATOM     27  C   UNL     1       6.075   4.117  13.567  0.00  0.00    +0.000 C 
ATOM     28  O   UNL     1       6.163   3.126  15.764  0.00  0.00    +0.000 OA
ENDBRANCH  25  26
ENDBRANCH  19  25
ENDBRANCH   1  19
BRANCH   4  29
ATOM     29  O   UNL     1       2.607   4.293  19.997  0.00  0.00    +0.000 OA
BRANCH  29  30
ATOM     30  C   UNL     1       1.489   3.740  20.538  0.00  0.00    +0.000 C 
ATOM     31  C   UNL     1       1.827   2.874  21.711  0.00  0.00    +0.000 C 
ATOM     32  O   UNL     1       0.352   3.964  20.148  0.00  0.00    +0.000 OA
ENDBRANCH  29  30
ENDBRANCH   4  29
BRANCH   5  33
ATOM     33  O   UNL     1       3.180   3.377  17.569  0.00  0.00    +0.000 OA
BRANCH  33  34
ATOM     34  C   UNL     1       4.088   2.769  18.374  0.00  0.00    +0.000 C 
ATOM     35  C   UNL     1       3.719   1.330  18.589  0.00  0.00    +0.000 C 
ATOM     36  O   UNL     1       5.085   3.303  18.835  0.00  0.00    +0.000 OA
ENDBRANCH  33  34
ENDBRANCH   5  33
TORSDOF 11
ENDMDL
