MODEL 1
REMARK VINA RESULT:      -7.6      0.000      0.000
REMARK  Name = 
REMARK  9 active torsions:
REMARK  status: ('A' for Active; 'I' for Inactive)
REMARK    1  A    between atoms: C_1  and  C_2
REMARK    2  A    between atoms: C_2  and  O_3
REMARK    3  A    between atoms: O_3  and  C_4
REMARK    4  A    between atoms: C_7  and  C_8
REMARK    5  A    between atoms: C_10  and  C_11
REMARK    6  A    between atoms: C_11  and  N_12
REMARK    7  A    between atoms: N_12  and  C_13
REMARK    8  A    between atoms: N_12  and  C_14
REMARK    9  A    between atoms: C_17  and  C_18
REMARK                            x       y       z     vdW  Elec       q    Type
REMARK                         _______ _______ _______ _____ _____    ______ ____
ROOT
ATOM      1  C   UNL     1       7.948   8.538  18.043  0.00  0.00    +0.000 A 
ATOM      2  N   UNL     1       6.973   8.280  17.195  0.00  0.00    +0.000 NA
ATOM      3  C   UNL     1       6.789   6.917  17.299  0.00  0.00    +0.000 A 
ATOM      4  C   UNL     1       7.658   6.409  18.233  0.00  0.00    +0.000 A 
ATOM      5  O   UNL     1       8.405   7.438  18.721  0.00  0.00    +0.000 OA
ENDROOT
BRANCH   1   9
ATOM      6  C   UNL     1       9.760  12.313  18.881  0.00  0.00    +0.000 A 
ATOM      7  C   UNL     1       8.892  12.168  17.800  0.00  0.00    +0.000 A 
ATOM      8  C   UNL     1       8.302  10.930  17.532  0.00  0.00    +0.000 A 
ATOM      9  C   UNL     1       8.584   9.816  18.335  0.00  0.00    +0.000 A 
ATOM     10  C   UNL     1       9.487   9.964  19.397  0.00  0.00    +0.000 A 
ATOM     11  C   UNL     1      10.080  11.203  19.661  0.00  0.00    +0.000 A 
BRANCH   6  12
ATOM     12  O   UNL     1      10.245  13.576  19.076  0.00  0.00    +0.000 OA
BRANCH  12  14
ATOM     13  C   UNL     1       9.949  15.742  18.132  0.00  0.00    +0.000 C 
ATOM     14  C   UNL     1       9.295  14.632  18.932  0.00  0.00    +0.000 C 
ENDBRANCH  12  14
ENDBRANCH   6  12
ENDBRANCH   1   9
BRANCH   3  15
ATOM     15  C   UNL     1       5.760   6.216  16.470  0.00  0.00    +0.000 C 
BRANCH  15  16
ATOM     16  N   UNL     1       5.613   4.748  16.586  0.00  0.00    +0.000 N 
ATOM     17  C   UNL     1       6.176   3.937  15.501  0.00  0.00    +0.000 C 
BRANCH  16  18
ATOM     18  C   UNL     1       4.424   4.261  17.171  0.00  0.00    +0.000 A 
ATOM     19  C   UNL     1       4.160   2.888  17.324  0.00  0.00    +0.000 A 
ATOM     20  C   UNL     1       2.964   2.409  17.876  0.00  0.00    +0.000 A 
ATOM     21  C   UNL     1       1.971   3.293  18.284  0.00  0.00    +0.000 A 
ATOM     22  C   UNL     1       0.676   2.794  18.850  0.00  0.00    +0.000 C 
ATOM     23  C   UNL     1       2.202   4.661  18.147  0.00  0.00    +0.000 A 
ATOM     24  C   UNL     1       3.405   5.131  17.597  0.00  0.00    +0.000 A 
ENDBRANCH  16  18
ENDBRANCH  15  16
ENDBRANCH   3  15
TORSDOF 6
ENDMDL
MODEL 2
REMARK VINA RESULT:      -7.5      0.568      1.233
REMARK  Name = 
REMARK  9 active torsions:
REMARK  status: ('A' for Active; 'I' for Inactive)
REMARK    1  A    between atoms: C_1  and  C_2
REMARK    2  A    between atoms: C_2  and  O_3
REMARK    3  A    between atoms: O_3  and  C_4
REMARK    4  A    between atoms: C_7  and  C_8
REMARK    5  A    between atoms: C_10  and  C_11
REMARK    6  A    between atoms: C_11  and  N_12
REMARK    7  A    between atoms: N_12  and  C_13
REMARK    8  A    between atoms: N_12  and  C_14
REMARK    9  A    between atoms: C_17  and  C_18
REMARK                            x       y       z     vdW  Elec       q    Type
REMARK                         _______ _______ _______ _____ _____    ______ ____
ROOT
ATOM      1  C   UNL     1       8.007   8.626  18.054  0.00  0.00    +0.000 A 
ATOM      2  N   UNL     1       7.021   8.375  17.216  0.00  0.00    +0.000 NA
ATOM      3  C   UNL     1       6.819   7.016  17.334  0.00  0.00    +0.000 A 
ATOM      4  C   UNL     1       7.687   6.503  18.265  0.00  0.00    +0.000 A 
ATOM      5  O   UNL     1       8.454   7.525  18.738  0.00  0.00    +0.000 OA
ENDROOT
BRANCH   1   9
ATOM      6  C   UNL     1       9.986  12.318  18.884  0.00  0.00    +0.000 A 
ATOM      7  C   UNL     1      10.214  11.197  19.680  0.00  0.00    +0.000 A 
ATOM      8  C   UNL     1       9.563   9.992  19.402  0.00  0.00    +0.000 A 
ATOM      9  C   UNL     1       8.664   9.897  18.330  0.00  0.00    +0.000 A 
ATOM     10  C   UNL     1       8.414  11.040  17.560  0.00  0.00    +0.000 A 
ATOM     11  C   UNL     1       9.062  12.247  17.843  0.00  0.00    +0.000 A 
BRANCH   6  12
ATOM     12  O   UNL     1      10.707  13.430  19.220  0.00  0.00    +0.000 OA
BRANCH  12  14
ATOM     13  C   UNL     1      10.031  14.426  21.274  0.00  0.00    +0.000 C 
ATOM     14  C   UNL     1       9.953  14.514  19.763  0.00  0.00    +0.000 C 
ENDBRANCH  12  14
ENDBRANCH   6  12
ENDBRANCH   1   9
BRANCH   3  15
ATOM     15  C   UNL     1       5.773   6.322  16.519  0.00  0.00    +0.000 C 
BRANCH  15  16
ATOM     16  N   UNL     1       5.641   4.851  16.607  0.00  0.00    +0.000 N 
ATOM     17  C   UNL     1       6.226   4.065  15.516  0.00  0.00    +0.000 C 
BRANCH  16  18
ATOM     18  C   UNL     1       4.451   4.342  17.170  0.00  0.00    +0.000 A 
ATOM     19  C   UNL     1       4.199   2.963  17.292  0.00  0.00    +0.000 A 
ATOM     20  C   UNL     1       3.003   2.461  17.822  0.00  0.00    +0.000 A 
ATOM     21  C   UNL     1       1.997   3.327  18.237  0.00  0.00    +0.000 A 
ATOM     22  C   UNL     1       0.701   2.804  18.779  0.00  0.00    +0.000 C 
ATOM     23  C   UNL     1       2.216   4.699  18.130  0.00  0.00    +0.000 A 
ATOM     24  C   UNL     1       3.419   5.192  17.603  0.00  0.00    +0.000 A 
ENDBRANCH  16  18
ENDBRANCH  15  16
ENDBRANCH   3  15
TORSDOF 6
ENDMDL
MODEL 3
REMARK VINA RESULT:      -7.5      5.402      8.612
REMARK  Name = 
REMARK  9 active torsions:
REMARK  status: ('A' for Active; 'I' for Inactive)
REMARK    1  A    between atoms: C_1  and  C_2
REMARK    2  A    between atoms: C_2  and  O_3
REMARK    3  A    between atoms: O_3  and  C_4
REMARK    4  A    between atoms: C_7  and  C_8
REMARK    5  A    between atoms: C_10  and  C_11
REMARK    6  A    between atoms: C_11  and  N_12
REMARK    7  A    between atoms: N_12  and  C_13
REMARK    8  A    between atoms: N_12  and  C_14
REMARK    9  A    between atoms: C_17  and  C_18
REMARK                            x       y       z     vdW  Elec       q    Type
REMARK                         _______ _______ _______ _____ _____    ______ ____
ROOT
ATOM      1  C   UNL     1       2.897   6.784  18.688  0.00  0.00    +0.000 A 
ATOM      2  N   UNL     1       2.393   7.994  18.549  0.00  0.00    +0.000 NA
ATOM      3  C   UNL     1       1.679   8.197  19.710  0.00  0.00    +0.000 A 
ATOM      4  C   UNL     1       1.801   7.095  20.521  0.00  0.00    +0.000 A 
ATOM      5  O   UNL     1       2.583   6.182  19.880  0.00  0.00    +0.000 OA
ENDROOT
BRANCH   1   9
ATOM      6  C   UNL     1       5.265   4.524  15.948  0.00  0.00    +0.000 A 
ATOM      7  C   UNL     1       4.440   3.880  16.869  0.00  0.00    +0.000 A 
ATOM      8  C   UNL     1       3.667   4.627  17.762  0.00  0.00    +0.000 A 
ATOM      9  C   UNL     1       3.721   6.028  17.755  0.00  0.00    +0.000 A 
ATOM     10  C   UNL     1       4.582   6.663  16.850  0.00  0.00    +0.000 A 
ATOM     11  C   UNL     1       5.359   5.914  15.960  0.00  0.00    +0.000 A 
BRANCH   6  12
ATOM     12  O   UNL     1       5.943   3.698  15.094  0.00  0.00    +0.000 OA
BRANCH  12  14
ATOM     13  C   UNL     1       6.058   3.521  12.722  0.00  0.00    +0.000 C 
ATOM     14  C   UNL     1       6.490   4.324  13.934  0.00  0.00    +0.000 C 
ENDBRANCH  12  14
ENDBRANCH   6  12
ENDBRANCH   1   9
BRANCH   3  15
ATOM     15  C   UNL     1       0.930   9.472  19.938  0.00  0.00    +0.000 C 
BRANCH  15  16
ATOM     16  N   UNL     1       0.666  10.373  18.795  0.00  0.00    +0.000 N 
ATOM     17  C   UNL     1       1.548  11.535  18.647  0.00  0.00    +0.000 C 
BRANCH  16  18
ATOM     18  C   UNL     1      -0.682  10.566  18.422  0.00  0.00    +0.000 A 
ATOM     19  C   UNL     1      -1.291   9.848  17.377  0.00  0.00    +0.000 A 
ATOM     20  C   UNL     1      -2.620  10.066  16.989  0.00  0.00    +0.000 A 
ATOM     21  C   UNL     1      -3.392  11.031  17.626  0.00  0.00    +0.000 A 
ATOM     22  C   UNL     1      -4.805  11.294  17.204  0.00  0.00    +0.000 C 
ATOM     23  C   UNL     1      -2.818  11.759  18.668  0.00  0.00    +0.000 A 
ATOM     24  C   UNL     1      -1.488  11.530  19.052  0.00  0.00    +0.000 A 
ENDBRANCH  16  18
ENDBRANCH  15  16
ENDBRANCH   3  15
TORSDOF 6
ENDMDL
MODEL 4
REMARK VINA RESULT:      -7.4      0.825      1.303
REMARK  Name = 
REMARK  9 active torsions:
REMARK  status: ('A' for Active; 'I' for Inactive)
REMARK    1  A    between atoms: C_1  and  C_2
REMARK    2  A    between atoms: C_2  and  O_3
REMARK    3  A    between atoms: O_3  and  C_4
REMARK    4  A    between atoms: C_7  and  C_8
REMARK    5  A    between atoms: C_10  and  C_11
REMARK    6  A    between atoms: C_11  and  N_12
REMARK    7  A    between atoms: N_12  and  C_13
REMARK    8  A    between atoms: N_12  and  C_14
REMARK    9  A    between atoms: C_17  and  C_18
REMARK                            x       y       z     vdW  Elec       q    Type
REMARK                         _______ _______ _______ _____ _____    ______ ____
ROOT
ATOM      1  C   UNL     1       8.385   8.893  18.309  0.00  0.00    +0.000 A 
ATOM      2  N   UNL     1       7.463   8.730  17.381  0.00  0.00    +0.000 NA
ATOM      3  C   UNL     1       7.171   7.384  17.431  0.00  0.00    +0.000 A 
ATOM      4  C   UNL     1       7.922   6.788  18.413  0.00  0.00    +0.000 A 
ATOM      5  O   UNL     1       8.703   7.746  18.988  0.00  0.00    +0.000 OA
ENDROOT
BRANCH   1   9
ATOM      6  C   UNL     1      10.424  12.492  19.368  0.00  0.00    +0.000 A 
ATOM      7  C   UNL     1      10.207  12.168  18.030  0.00  0.00    +0.000 A 
ATOM      8  C   UNL     1       9.538  10.989  17.691  0.00  0.00    +0.000 A 
ATOM      9  C   UNL     1       9.089  10.111  18.687  0.00  0.00    +0.000 A 
ATOM     10  C   UNL     1       9.346  10.428  20.028  0.00  0.00    +0.000 A 
ATOM     11  C   UNL     1      10.020  11.606  20.366  0.00  0.00    +0.000 A 
BRANCH   6  12
ATOM     12  O   UNL     1      11.049  13.688  19.587  0.00  0.00    +0.000 OA
BRANCH  12  14
ATOM     13  C   UNL     1       9.331  15.310  19.888  0.00  0.00    +0.000 C 
ATOM     14  C   UNL     1      10.439  14.825  18.973  0.00  0.00    +0.000 C 
ENDBRANCH  12  14
ENDBRANCH   6  12
ENDBRANCH   1   9
BRANCH   3  15
ATOM     15  C   UNL     1       6.161   6.783  16.504  0.00  0.00    +0.000 C 
BRANCH  15  16
ATOM     16  N   UNL     1       5.952   5.318  16.510  0.00  0.00    +0.000 N 
ATOM     17  C   UNL     1       6.551   4.557  15.408  0.00  0.00    +0.000 C 
BRANCH  16  18
ATOM     18  C   UNL     1       4.712   4.844  16.988  0.00  0.00    +0.000 A 
ATOM     19  C   UNL     1       3.744   5.692  17.557  0.00  0.00    +0.000 A 
ATOM     20  C   UNL     1       2.527   5.213  18.060  0.00  0.00    +0.000 A 
ATOM     21  C   UNL     1       2.237   3.854  18.030  0.00  0.00    +0.000 A 
ATOM     22  C   UNL     1       0.951   3.324  18.590  0.00  0.00    +0.000 C 
ATOM     23  C   UNL     1       3.175   2.986  17.472  0.00  0.00    +0.000 A 
ATOM     24  C   UNL     1       4.389   3.476  16.966  0.00  0.00    +0.000 A 
ENDBRANCH  16  18
ENDBRANCH  15  16
ENDBRANCH   3  15
TORSDOF 6
ENDMDL
MODEL 5
REMARK VINA RESULT:      -7.4      0.942      1.572
REMARK  Name = 
REMARK  9 active torsions:
REMARK  status: ('A' for Active; 'I' for Inactive)
REMARK    1  A    between atoms: C_1  and  C_2
REMARK    2  A    between atoms: C_2  and  O_3
REMARK    3  A    between atoms: O_3  and  C_4
REMARK    4  A    between atoms: C_7  and  C_8
REMARK    5  A    between atoms: C_10  and  C_11
REMARK    6  A    between atoms: C_11  and  N_12
REMARK    7  A    between atoms: N_12  and  C_13
REMARK    8  A    between atoms: N_12  and  C_14
REMARK    9  A    between atoms: C_17  and  C_18
REMARK                            x       y       z     vdW  Elec       q    Type
REMARK                         _______ _______ _______ _____ _____    ______ ____
ROOT
ATOM      1  C   UNL     1       8.109   8.852  18.097  0.00  0.00    +0.000 A 
ATOM      2  N   UNL     1       7.175   8.498  17.237  0.00  0.00    +0.000 NA
ATOM      3  C   UNL     1       7.028   7.142  17.439  0.00  0.00    +0.000 A 
ATOM      4  C   UNL     1       7.877   6.734  18.438  0.00  0.00    +0.000 A 
ATOM      5  O   UNL     1       8.574   7.821  18.873  0.00  0.00    +0.000 OA
ENDROOT
BRANCH   1   9
ATOM      6  C   UNL     1       9.883  12.680  18.748  0.00  0.00    +0.000 A 
ATOM      7  C   UNL     1      10.226  11.594  19.552  0.00  0.00    +0.000 A 
ATOM      8  C   UNL     1       9.642  10.345  19.332  0.00  0.00    +0.000 A 
ATOM      9  C   UNL     1       8.696  10.167  18.313  0.00  0.00    +0.000 A 
ATOM     10  C   UNL     1       8.331  11.274  17.535  0.00  0.00    +0.000 A 
ATOM     11  C   UNL     1       8.913  12.526  17.760  0.00  0.00    +0.000 A 
BRANCH   6  12
ATOM     12  O   UNL     1      10.547  13.844  19.023  0.00  0.00    +0.000 OA
BRANCH  12  14
ATOM     13  C   UNL     1      10.181  16.039  18.176  0.00  0.00    +0.000 C 
ATOM     14  C   UNL     1      10.808  14.686  17.901  0.00  0.00    +0.000 C 
ENDBRANCH  12  14
ENDBRANCH   6  12
ENDBRANCH   1   9
BRANCH   3  15
ATOM     15  C   UNL     1       6.053   6.347  16.631  0.00  0.00    +0.000 C 
BRANCH  15  16
ATOM     16  N   UNL     1       5.694   4.978  17.066  0.00  0.00    +0.000 N 
ATOM     17  C   UNL     1       5.977   3.888  16.127  0.00  0.00    +0.000 C 
BRANCH  16  18
ATOM     18  C   UNL     1       4.531   4.834  17.852  0.00  0.00    +0.000 A 
ATOM     19  C   UNL     1       4.467   5.247  19.195  0.00  0.00    +0.000 A 
ATOM     20  C   UNL     1       3.321   5.073  19.982  0.00  0.00    +0.000 A 
ATOM     21  C   UNL     1       2.191   4.457  19.456  0.00  0.00    +0.000 A 
ATOM     22  C   UNL     1       0.968   4.238  20.294  0.00  0.00    +0.000 C 
ATOM     23  C   UNL     1       2.221   4.037  18.127  0.00  0.00    +0.000 A 
ATOM     24  C   UNL     1       3.372   4.220  17.346  0.00  0.00    +0.000 A 
ENDBRANCH  16  18
ENDBRANCH  15  16
ENDBRANCH   3  15
TORSDOF 6
ENDMDL
MODEL 6
REMARK VINA RESULT:      -7.3      0.920      1.263
REMARK  Name = 
REMARK  9 active torsions:
REMARK  status: ('A' for Active; 'I' for Inactive)
REMARK    1  A    between atoms: C_1  and  C_2
REMARK    2  A    between atoms: C_2  and  O_3
REMARK    3  A    between atoms: O_3  and  C_4
REMARK    4  A    between atoms: C_7  and  C_8
REMARK    5  A    between atoms: C_10  and  C_11
REMARK    6  A    between atoms: C_11  and  N_12
REMARK    7  A    between atoms: N_12  and  C_13
REMARK    8  A    between atoms: N_12  and  C_14
REMARK    9  A    between atoms: C_17  and  C_18
REMARK                            x       y       z     vdW  Elec       q    Type
REMARK                         _______ _______ _______ _____ _____    ______ ____
ROOT
ATOM      1  C   UNL     1       8.073   8.560  18.090  0.00  0.00    +0.000 A 
ATOM      2  N   UNL     1       7.194   8.240  17.161  0.00  0.00    +0.000 NA
ATOM      3  C   UNL     1       7.041   6.877  17.300  0.00  0.00    +0.000 A 
ATOM      4  C   UNL     1       7.828   6.430  18.332  0.00  0.00    +0.000 A 
ATOM      5  O   UNL     1       8.493   7.500  18.852  0.00  0.00    +0.000 OA
ENDROOT
BRANCH   1   9
ATOM      6  C   UNL     1       9.681  12.419  18.960  0.00  0.00    +0.000 A 
ATOM      7  C   UNL     1       8.865  12.226  17.846  0.00  0.00    +0.000 A 
ATOM      8  C   UNL     1       8.342  10.960  17.568  0.00  0.00    +0.000 A 
ATOM      9  C   UNL     1       8.640   9.867  18.394  0.00  0.00    +0.000 A 
ATOM     10  C   UNL     1       9.491  10.065  19.490  0.00  0.00    +0.000 A 
ATOM     11  C   UNL     1      10.018  11.331  19.764  0.00  0.00    +0.000 A 
BRANCH   6  12
ATOM     12  O   UNL     1      10.101  13.704  19.161  0.00  0.00    +0.000 OA
BRANCH  12  14
ATOM     13  C   UNL     1       9.648  15.992  18.680  0.00  0.00    +0.000 C 
ATOM     14  C   UNL     1       9.071  14.692  19.205  0.00  0.00    +0.000 C 
ENDBRANCH  12  14
ENDBRANCH   6  12
ENDBRANCH   1   9
BRANCH   3  15
ATOM     15  C   UNL     1       6.120   6.113  16.401  0.00  0.00    +0.000 C 
BRANCH  15  16
ATOM     16  N   UNL     1       5.682   4.755  16.796  0.00  0.00    +0.000 N 
ATOM     17  C   UNL     1       5.768   3.707  15.774  0.00  0.00    +0.000 C 
BRANCH  16  18
ATOM     18  C   UNL     1       4.595   4.661  17.691  0.00  0.00    +0.000 A 
ATOM     19  C   UNL     1       3.469   5.500  17.607  0.00  0.00    +0.000 A 
ATOM     20  C   UNL     1       2.406   5.425  18.517  0.00  0.00    +0.000 A 
ATOM     21  C   UNL     1       2.438   4.513  19.566  0.00  0.00    +0.000 A 
ATOM     22  C   UNL     1       1.321   4.441  20.563  0.00  0.00    +0.000 C 
ATOM     23  C   UNL     1       3.540   3.666  19.677  0.00  0.00    +0.000 A 
ATOM     24  C   UNL     1       4.597   3.745  18.757  0.00  0.00    +0.000 A 
ENDBRANCH  16  18
ENDBRANCH  15  16
ENDBRANCH   3  15
TORSDOF 6
ENDMDL
MODEL 7
REMARK VINA RESULT:      -7.3      5.567      8.774
REMARK  Name = 
REMARK  9 active torsions:
REMARK  status: ('A' for Active; 'I' for Inactive)
REMARK    1  A    between atoms: C_1  and  C_2
REMARK    2  A    between atoms: C_2  and  O_3
REMARK    3  A    between atoms: O_3  and  C_4
REMARK    4  A    between atoms: C_7  and  C_8
REMARK    5  A    between atoms: C_10  and  C_11
REMARK    6  A    between atoms: C_11  and  N_12
REMARK    7  A    between atoms: N_12  and  C_13
REMARK    8  A    between atoms: N_12  and  C_14
REMARK    9  A    between atoms: C_17  and  C_18
REMARK                            x       y       z     vdW  Elec       q    Type
REMARK                         _______ _______ _______ _____ _____    ______ ____
ROOT
ATOM      1  C   UNL     1       2.588   6.989  18.958  0.00  0.00    +0.000 A 
ATOM      2  N   UNL     1       2.178   8.235  18.834  0.00  0.00    +0.000 NA
ATOM      3  C   UNL     1       1.439   8.461  19.976  0.00  0.00    +0.000 A 
ATOM      4  C   UNL     1       1.452   7.334  20.760  0.00  0.00    +0.000 A 
ATOM      5  O   UNL     1       2.189   6.382  20.121  0.00  0.00    +0.000 OA
ENDROOT
BRANCH   1   9
ATOM      6  C   UNL     1       4.883   4.633  16.236  0.00  0.00    +0.000 A 
ATOM      7  C   UNL     1       3.910   4.041  17.040  0.00  0.00    +0.000 A 
ATOM      8  C   UNL     1       3.163   4.818  17.927  0.00  0.00    +0.000 A 
ATOM      9  C   UNL     1       3.389   6.198  18.033  0.00  0.00    +0.000 A 
ATOM     10  C   UNL     1       4.395   6.776  17.248  0.00  0.00    +0.000 A 
ATOM     11  C   UNL     1       5.146   5.996  16.363  0.00  0.00    +0.000 A 
BRANCH   6  12
ATOM     12  O   UNL     1       5.524   3.787  15.374  0.00  0.00    +0.000 OA
BRANCH  12  14
ATOM     13  C   UNL     1       6.200   3.699  13.092  0.00  0.00    +0.000 C 
ATOM     14  C   UNL     1       6.382   4.411  14.419  0.00  0.00    +0.000 C 
ENDBRANCH  12  14
ENDBRANCH   6  12
ENDBRANCH   1   9
BRANCH   3  15
ATOM     15  C   UNL     1       0.776   9.781  20.213  0.00  0.00    +0.000 C 
BRANCH  15  16
ATOM     16  N   UNL     1       0.517  10.680  19.066  0.00  0.00    +0.000 N 
ATOM     17  C   UNL     1       1.348  11.883  18.964  0.00  0.00    +0.000 C 
BRANCH  16  18
ATOM     18  C   UNL     1      -0.822  10.812  18.639  0.00  0.00    +0.000 A 
ATOM     19  C   UNL     1      -1.713  11.738  19.211  0.00  0.00    +0.000 A 
ATOM     20  C   UNL     1      -3.050  11.844  18.806  0.00  0.00    +0.000 A 
ATOM     21  C   UNL     1      -3.557  11.008  17.817  0.00  0.00    +0.000 A 
ATOM     22  C   UNL     1      -4.992  11.091  17.394  0.00  0.00    +0.000 C 
ATOM     23  C   UNL     1      -2.699  10.080  17.229  0.00  0.00    +0.000 A 
ATOM     24  C   UNL     1      -1.360   9.985  17.638  0.00  0.00    +0.000 A 
ENDBRANCH  16  18
ENDBRANCH  15  16
ENDBRANCH   3  15
TORSDOF 6
ENDMDL
MODEL 8
REMARK VINA RESULT:      -7.2      1.603      2.261
REMARK  Name = 
REMARK  9 active torsions:
REMARK  status: ('A' for Active; 'I' for Inactive)
REMARK    1  A    between atoms: C_1  and  C_2
REMARK    2  A    between atoms: C_2  and  O_3
REMARK    3  A    between atoms: O_3  and  C_4
REMARK    4  A    between atoms: C_7  and  C_8
REMARK    5  A    between atoms: C_10  and  C_11
REMARK    6  A    between atoms: C_11  and  N_12
REMARK    7  A    between atoms: N_12  and  C_13
REMARK    8  A    between atoms: N_12  and  C_14
REMARK    9  A    between atoms: C_17  and  C_18
REMARK                            x       y       z     vdW  Elec       q    Type
REMARK                         _______ _______ _______ _____ _____    ______ ____
ROOT
ATOM      1  C   UNL     1       8.080   8.573  18.086  0.00  0.00    +0.000 A 
ATOM      2  N   UNL     1       7.182   8.224  17.187  0.00  0.00    +0.000 NA
ATOM      3  C   UNL     1       7.031   6.866  17.374  0.00  0.00    +0.000 A 
ATOM      4  C   UNL     1       7.838   6.453  18.404  0.00  0.00    +0.000 A 
ATOM      5  O   UNL     1       8.515   7.538  18.874  0.00  0.00    +0.000 OA
ENDROOT
BRANCH   1   9
ATOM      6  C   UNL     1       9.707  12.455  18.799  0.00  0.00    +0.000 A 
ATOM      7  C   UNL     1       8.798  12.248  17.763  0.00  0.00    +0.000 A 
ATOM      8  C   UNL     1       8.270  10.974  17.536  0.00  0.00    +0.000 A 
ATOM      9  C   UNL     1       8.654   9.888  18.335  0.00  0.00    +0.000 A 
ATOM     10  C   UNL     1       9.597  10.102  19.350  0.00  0.00    +0.000 A 
ATOM     11  C   UNL     1      10.129  11.376  19.572  0.00  0.00    +0.000 A 
BRANCH   6  12
ATOM     12  O   UNL     1      10.127  13.747  18.958  0.00  0.00    +0.000 OA
BRANCH  12  14
ATOM     13  C   UNL     1      12.096  13.779  17.619  0.00  0.00    +0.000 C 
ATOM     14  C   UNL     1      10.705  14.355  17.803  0.00  0.00    +0.000 C 
ENDBRANCH  12  14
ENDBRANCH   6  12
ENDBRANCH   1   9
BRANCH   3  15
ATOM     15  C   UNL     1       6.090   6.074  16.521  0.00  0.00    +0.000 C 
BRANCH  15  16
ATOM     16  N   UNL     1       5.069   5.219  17.166  0.00  0.00    +0.000 N 
ATOM     17  C   UNL     1       4.580   4.072  16.395  0.00  0.00    +0.000 C 
BRANCH  16  18
ATOM     18  C   UNL     1       4.123   5.858  17.996  0.00  0.00    +0.000 A 
ATOM     19  C   UNL     1       3.527   7.087  17.661  0.00  0.00    +0.000 A 
ATOM     20  C   UNL     1       2.612   7.734  18.502  0.00  0.00    +0.000 A 
ATOM     21  C   UNL     1       2.268   7.179  19.730  0.00  0.00    +0.000 A 
ATOM     22  C   UNL     1       1.313   7.873  20.653  0.00  0.00    +0.000 C 
ATOM     23  C   UNL     1       2.841   5.960  20.092  0.00  0.00    +0.000 A 
ATOM     24  C   UNL     1       3.753   5.318  19.240  0.00  0.00    +0.000 A 
ENDBRANCH  16  18
ENDBRANCH  15  16
ENDBRANCH   3  15
TORSDOF 6
ENDMDL
MODEL 9
REMARK VINA RESULT:      -7.2      6.417      8.371
REMARK  Name = 
REMARK  9 active torsions:
REMARK  status: ('A' for Active; 'I' for Inactive)
REMARK    1  A    between atoms: C_1  and  C_2
REMARK    2  A    between atoms: C_2  and  O_3
REMARK    3  A    between atoms: O_3  and  C_4
REMARK    4  A    between atoms: C_7  and  C_8
REMARK    5  A    between atoms: C_10  and  C_11
REMARK    6  A    between atoms: C_11  and  N_12
REMARK    7  A    between atoms: N_12  and  C_13
REMARK    8  A    between atoms: N_12  and  C_14
REMARK    9  A    between atoms: C_17  and  C_18
REMARK                            x       y       z     vdW  Elec       q    Type
REMARK                         _______ _______ _______ _____ _____    ______ ____
ROOT
ATOM      1  C   UNL     1       0.942   9.193  20.420  0.00  0.00    +0.000 A 
ATOM      2  N   UNL     1       1.475   8.033  20.749  0.00  0.00    +0.000 NA
ATOM      3  C   UNL     1       2.090   7.606  19.591  0.00  0.00    +0.000 A 
ATOM      4  C   UNL     1       1.918   8.547  18.607  0.00  0.00    +0.000 A 
ATOM      5  O   UNL     1       1.187   9.573  19.125  0.00  0.00    +0.000 OA
ENDROOT
BRANCH   1   9
ATOM      6  C   UNL     1      -1.425  11.855  22.774  0.00  0.00    +0.000 A 
ATOM      7  C   UNL     1      -0.958  12.243  21.519  0.00  0.00    +0.000 A 
ATOM      8  C   UNL     1      -0.184  11.366  20.754  0.00  0.00    +0.000 A 
ATOM      9  C   UNL     1       0.144  10.093  21.241  0.00  0.00    +0.000 A 
ATOM     10  C   UNL     1      -0.300   9.727  22.519  0.00  0.00    +0.000 A 
ATOM     11  C   UNL     1      -1.070  10.608  23.285  0.00  0.00    +0.000 A 
BRANCH   6  12
ATOM     12  O   UNL     1      -2.208  12.774  23.416  0.00  0.00    +0.000 OA
BRANCH  12  14
ATOM     13  C   UNL     1      -4.489  12.929  22.751  0.00  0.00    +0.000 C 
ATOM     14  C   UNL     1      -3.523  12.334  23.757  0.00  0.00    +0.000 C 
ENDBRANCH  12  14
ENDBRANCH   6  12
ENDBRANCH   1   9
BRANCH   3  15
ATOM     15  C   UNL     1       2.811   6.296  19.544  0.00  0.00    +0.000 C 
BRANCH  15  16
ATOM     16  N   UNL     1       2.616   5.401  18.382  0.00  0.00    +0.000 N 
ATOM     17  C   UNL     1       1.793   4.206  18.595  0.00  0.00    +0.000 C 
BRANCH  16  18
ATOM     18  C   UNL     1       3.699   5.257  17.487  0.00  0.00    +0.000 A 
ATOM     19  C   UNL     1       4.411   6.357  16.976  0.00  0.00    +0.000 A 
ATOM     20  C   UNL     1       5.465   6.212  16.064  0.00  0.00    +0.000 A 
ATOM     21  C   UNL     1       5.837   4.952  15.609  0.00  0.00    +0.000 A 
ATOM     22  C   UNL     1       6.943   4.785  14.612  0.00  0.00    +0.000 C 
ATOM     23  C   UNL     1       5.151   3.841  16.097  0.00  0.00    +0.000 A 
ATOM     24  C   UNL     1       4.100   3.996  17.015  0.00  0.00    +0.000 A 
ENDBRANCH  16  18
ENDBRANCH  15  16
ENDBRANCH   3  15
TORSDOF 6
ENDMDL
