MODEL 1
REMARK VINA RESULT:      -7.7      0.000      0.000
REMARK  Name = 
REMARK  4 active torsions:
REMARK  status: ('A' for Active; 'I' for Inactive)
REMARK    1  A    between atoms: C_2  and  C_3
REMARK    2  A    between atoms: C_9  and  N_10
REMARK    3  A    between atoms: C_14  and  C_16
REMARK    4  A    between atoms: C_20  and  C_21
REMARK                            x       y       z     vdW  Elec       q    Type
REMARK                         _______ _______ _______ _____ _____    ______ ____
ROOT
ATOM      1  N   UNL     1      -0.205  10.982  21.583  0.00  0.00    +0.000 N 
ATOM      2  C   UNL     1      -0.374  10.913  20.130  0.00  0.00    +0.000 C 
ATOM      3  C   UNL     1       0.934  10.512  19.448  0.00  0.00    +0.000 C 
ATOM      4  N   UNL     1       1.362   9.212  19.956  0.00  0.00    +0.000 N 
ATOM      5  C   UNL     1       1.724   8.219  19.033  0.00  0.00    +0.000 C 
ATOM      6  O   UNL     1       1.669   8.433  17.824  0.00  0.00    +0.000 OA
ATOM      7  C   UNL     1       1.472   9.144  21.417  0.00  0.00    +0.000 C 
ATOM      8  C   UNL     1       0.515   9.998  22.258  0.00  0.00    +0.000 C 
ATOM      9  O   UNL     1       0.471   9.844  23.481  0.00  0.00    +0.000 OA
ENDROOT
BRANCH   1  16
ATOM     10  C   UNL     1      -0.607  13.233  22.523  0.00  0.00    +0.000 A 
ATOM     11  C   UNL     1      -1.436  14.108  23.227  0.00  0.00    +0.000 A 
ATOM     12  C   UNL     1      -2.646  13.648  23.738  0.00  0.00    +0.000 A 
ATOM     13  F   UNL     1      -3.444  14.497  24.397  0.00  0.00    +0.000 F 
ATOM     14  C   UNL     1      -3.049  12.330  23.563  0.00  0.00    +0.000 A 
ATOM     15  C   UNL     1      -2.235  11.451  22.846  0.00  0.00    +0.000 A 
ATOM     16  C   UNL     1      -1.015  11.893  22.323  0.00  0.00    +0.000 A 
BRANCH  10  18
ATOM     17  N   UNL     1       1.578  14.167  21.474  0.00  0.00    +0.000 NA
ATOM     18  C   UNL     1       0.589  13.762  21.923  0.00  0.00    +0.000 C 
ENDBRANCH  10  18
ENDBRANCH   1  16
BRANCH   5  19
ATOM     19  C   UNL     1       2.179   6.867  19.492  0.00  0.00    +0.000 A 
ATOM     20  C   UNL     1       1.484   6.229  20.531  0.00  0.00    +0.000 A 
ATOM     21  C   UNL     1       1.783   4.921  20.900  0.00  0.00    +0.000 A 
ATOM     22  C   UNL     1       2.855   4.267  20.308  0.00  0.00    +0.000 A 
ATOM     23  C   UNL     1       3.657   4.916  19.351  0.00  0.00    +0.000 A 
ATOM     24  C   UNL     1       3.311   6.222  18.937  0.00  0.00    +0.000 A 
ATOM     25 CL   UNL     1       4.291   6.993  17.728  0.00  0.00    +0.000 Cl
BRANCH  23  26
ATOM     26  C   UNL     1       4.861   4.190  18.800  0.00  0.00    +0.000 C 
ATOM     27  F   UNL     1       4.795   4.003  17.448  0.00  0.00    +0.000 F 
ATOM     28  F   UNL     1       6.025   4.854  19.008  0.00  0.00    +0.000 F 
ATOM     29  F   UNL     1       5.021   2.943  19.324  0.00  0.00    +0.000 F 
ENDBRANCH  23  26
ENDBRANCH   5  19
TORSDOF 4
ENDMDL
MODEL 2
REMARK VINA RESULT:      -7.7      2.826      4.342
REMARK  Name = 
REMARK  4 active torsions:
REMARK  status: ('A' for Active; 'I' for Inactive)
REMARK    1  A    between atoms: C_2  and  C_3
REMARK    2  A    between atoms: C_9  and  N_10
REMARK    3  A    between atoms: C_14  and  C_16
REMARK    4  A    between atoms: C_20  and  C_21
REMARK                            x       y       z     vdW  Elec       q    Type
REMARK                         _______ _______ _______ _____ _____    ______ ____
ROOT
ATOM      1  N   UNL     1       1.256   9.580  19.432  0.00  0.00    +0.000 N 
ATOM      2  C   UNL     1       1.482   8.572  20.469  0.00  0.00    +0.000 C 
ATOM      3  C   UNL     1       1.579   7.175  19.859  0.00  0.00    +0.000 C 
ATOM      4  N   UNL     1       2.676   7.145  18.897  0.00  0.00    +0.000 N 
ATOM      5  C   UNL     1       3.609   6.101  18.977  0.00  0.00    +0.000 C 
ATOM      6  O   UNL     1       3.515   5.236  19.847  0.00  0.00    +0.000 OA
ATOM      7  C   UNL     1       2.596   8.181  17.862  0.00  0.00    +0.000 C 
ATOM      8  C   UNL     1       1.959   9.527  18.230  0.00  0.00    +0.000 C 
ATOM      9  O   UNL     1       2.021  10.471  17.438  0.00  0.00    +0.000 OA
ENDROOT
BRANCH   1  16
ATOM     10  C   UNL     1      -0.661  11.105  19.097  0.00  0.00    +0.000 A 
ATOM     11  C   UNL     1      -1.360  12.253  19.473  0.00  0.00    +0.000 A 
ATOM     12  C   UNL     1      -0.866  13.054  20.498  0.00  0.00    +0.000 A 
ATOM     13  F   UNL     1      -1.551  14.145  20.866  0.00  0.00    +0.000 F 
ATOM     14  C   UNL     1       0.315  12.736  21.157  0.00  0.00    +0.000 A 
ATOM     15  C   UNL     1       1.013  11.582  20.801  0.00  0.00    +0.000 A 
ATOM     16  C   UNL     1       0.533  10.761  19.773  0.00  0.00    +0.000 A 
BRANCH  10  18
ATOM     17  N   UNL     1      -1.746   9.589  17.288  0.00  0.00    +0.000 NA
ATOM     18  C   UNL     1      -1.247  10.245  18.104  0.00  0.00    +0.000 C 
ENDBRANCH  10  18
ENDBRANCH   1  16
BRANCH   5  19
ATOM     19  C   UNL     1       4.754   6.010  18.013  0.00  0.00    +0.000 A 
ATOM     20  C   UNL     1       5.825   6.909  18.139  0.00  0.00    +0.000 A 
ATOM     21  C   UNL     1       6.968   6.780  17.357  0.00  0.00    +0.000 A 
ATOM     22  C   UNL     1       7.014   5.814  16.360  0.00  0.00    +0.000 A 
ATOM     23  C   UNL     1       5.912   4.975  16.116  0.00  0.00    +0.000 A 
ATOM     24  C   UNL     1       4.778   5.071  16.955  0.00  0.00    +0.000 A 
ATOM     25 CL   UNL     1       3.441   4.001  16.661  0.00  0.00    +0.000 Cl
BRANCH  23  26
ATOM     26  C   UNL     1       5.982   4.000  14.967  0.00  0.00    +0.000 C 
ATOM     27  F   UNL     1       7.160   4.074  14.278  0.00  0.00    +0.000 F 
ATOM     28  F   UNL     1       5.883   2.705  15.357  0.00  0.00    +0.000 F 
ATOM     29  F   UNL     1       5.012   4.202  14.032  0.00  0.00    +0.000 F 
ENDBRANCH  23  26
ENDBRANCH   5  19
TORSDOF 4
ENDMDL
MODEL 3
REMARK VINA RESULT:      -7.6      2.697      3.284
REMARK  Name = 
REMARK  4 active torsions:
REMARK  status: ('A' for Active; 'I' for Inactive)
REMARK    1  A    between atoms: C_2  and  C_3
REMARK    2  A    between atoms: C_9  and  N_10
REMARK    3  A    between atoms: C_14  and  C_16
REMARK    4  A    between atoms: C_20  and  C_21
REMARK                            x       y       z     vdW  Elec       q    Type
REMARK                         _______ _______ _______ _____ _____    ______ ____
ROOT
ATOM      1  N   UNL     1       0.500   9.735  19.089  0.00  0.00    +0.000 N 
ATOM      2  C   UNL     1       1.105   9.693  17.757  0.00  0.00    +0.000 C 
ATOM      3  C   UNL     1       2.578   9.294  17.840  0.00  0.00    +0.000 C 
ATOM      4  N   UNL     1       2.685   7.981  18.470  0.00  0.00    +0.000 N 
ATOM      5  C   UNL     1       3.474   7.002  17.848  0.00  0.00    +0.000 C 
ATOM      6  O   UNL     1       4.051   7.238  16.788  0.00  0.00    +0.000 OA
ATOM      7  C   UNL     1       2.026   7.886  19.777  0.00  0.00    +0.000 C 
ATOM      8  C   UNL     1       0.771   8.733  20.020  0.00  0.00    +0.000 C 
ATOM      9  O   UNL     1       0.102   8.558  21.042  0.00  0.00    +0.000 OA
ENDROOT
BRANCH   1  16
ATOM     10  C   UNL     1      -0.411  11.771  20.155  0.00  0.00    +0.000 A 
ATOM     11  C   UNL     1      -1.477  12.652  20.341  0.00  0.00    +0.000 A 
ATOM     12  C   UNL     1      -2.696  12.399  19.718  0.00  0.00    +0.000 A 
ATOM     13  F   UNL     1      -3.709  13.259  19.886  0.00  0.00    +0.000 F 
ATOM     14  C   UNL     1      -2.876  11.283  18.912  0.00  0.00    +0.000 A 
ATOM     15  C   UNL     1      -1.812  10.403  18.706  0.00  0.00    +0.000 A 
ATOM     16  C   UNL     1      -0.578  10.639  19.323  0.00  0.00    +0.000 A 
BRANCH  10  18
ATOM     17  N   UNL     1       1.866  12.404  21.233  0.00  0.00    +0.000 NA
ATOM     18  C   UNL     1       0.862  12.111  20.731  0.00  0.00    +0.000 C 
ENDBRANCH  10  18
ENDBRANCH   1  16
BRANCH   5  19
ATOM     19  C   UNL     1       3.631   5.638  18.449  0.00  0.00    +0.000 A 
ATOM     20  C   UNL     1       4.822   5.323  19.123  0.00  0.00    +0.000 A 
ATOM     21  C   UNL     1       4.961   4.122  19.812  0.00  0.00    +0.000 A 
ATOM     22  C   UNL     1       3.953   3.171  19.748  0.00  0.00    +0.000 A 
ATOM     23  C   UNL     1       2.796   3.395  18.979  0.00  0.00    +0.000 A 
ATOM     24  C   UNL     1       2.634   4.641  18.332  0.00  0.00    +0.000 A 
ATOM     25 CL   UNL     1       1.182   4.913  17.418  0.00  0.00    +0.000 Cl
BRANCH  23  26
ATOM     26  C   UNL     1       1.768   2.294  18.875  0.00  0.00    +0.000 C 
ATOM     27  F   UNL     1       0.498   2.728  19.129  0.00  0.00    +0.000 F 
ATOM     28  F   UNL     1       1.709   1.735  17.641  0.00  0.00    +0.000 F 
ATOM     29  F   UNL     1       1.979   1.278  19.757  0.00  0.00    +0.000 F 
ENDBRANCH  23  26
ENDBRANCH   5  19
TORSDOF 4
ENDMDL
MODEL 4
REMARK VINA RESULT:      -7.3      2.749      4.328
REMARK  Name = 
REMARK  4 active torsions:
REMARK  status: ('A' for Active; 'I' for Inactive)
REMARK    1  A    between atoms: C_2  and  C_3
REMARK    2  A    between atoms: C_9  and  N_10
REMARK    3  A    between atoms: C_14  and  C_16
REMARK    4  A    between atoms: C_20  and  C_21
REMARK                            x       y       z     vdW  Elec       q    Type
REMARK                         _______ _______ _______ _____ _____    ______ ____
ROOT
ATOM      1  N   UNL     1       1.207   8.387  19.807  0.00  0.00    +0.000 N 
ATOM      2  C   UNL     1       1.351   7.338  20.817  0.00  0.00    +0.000 C 
ATOM      3  C   UNL     1       1.608   5.982  20.161  0.00  0.00    +0.000 C 
ATOM      4  N   UNL     1       2.823   6.059  19.356  0.00  0.00    +0.000 N 
ATOM      5  C   UNL     1       3.795   5.060  19.514  0.00  0.00    +0.000 C 
ATOM      6  O   UNL     1       3.635   4.147  20.321  0.00  0.00    +0.000 OA
ATOM      7  C   UNL     1       2.822   7.145  18.369  0.00  0.00    +0.000 C 
ATOM      8  C   UNL     1       2.066   8.435  18.710  0.00  0.00    +0.000 C 
ATOM      9  O   UNL     1       2.178   9.422  17.979  0.00  0.00    +0.000 OA
ENDROOT
BRANCH   1  16
ATOM     10  C   UNL     1       0.399  10.113  21.382  0.00  0.00    +0.000 A 
ATOM     11  C   UNL     1      -0.401  11.230  21.631  0.00  0.00    +0.000 A 
ATOM     12  C   UNL     1      -1.220  11.727  20.621  0.00  0.00    +0.000 A 
ATOM     13  F   UNL     1      -1.971  12.810  20.861  0.00  0.00    +0.000 F 
ATOM     14  C   UNL     1      -1.260  11.134  19.366  0.00  0.00    +0.000 A 
ATOM     15  C   UNL     1      -0.452  10.027  19.102  0.00  0.00    +0.000 A 
ATOM     16  C   UNL     1       0.380   9.511  20.102  0.00  0.00    +0.000 A 
BRANCH  10  18
ATOM     17  N   UNL     1       2.067   9.374  23.231  0.00  0.00    +0.000 NA
ATOM     18  C   UNL     1       1.307   9.683  22.411  0.00  0.00    +0.000 C 
ENDBRANCH  10  18
ENDBRANCH   1  16
BRANCH   5  19
ATOM     19  C   UNL     1       5.061   5.080  18.710  0.00  0.00    +0.000 A 
ATOM     20  C   UNL     1       6.246   5.528  19.315  0.00  0.00    +0.000 A 
ATOM     21  C   UNL     1       7.468   5.438  18.656  0.00  0.00    +0.000 A 
ATOM     22  C   UNL     1       7.509   4.999  17.339  0.00  0.00    +0.000 A 
ATOM     23  C   UNL     1       6.328   4.659  16.654  0.00  0.00    +0.000 A 
ATOM     24  C   UNL     1       5.097   4.695  17.349  0.00  0.00    +0.000 A 
ATOM     25 CL   UNL     1       3.655   4.237  16.496  0.00  0.00    +0.000 Cl
BRANCH  23  26
ATOM     26  C   UNL     1       6.419   4.269  15.199  0.00  0.00    +0.000 C 
ATOM     27  F   UNL     1       7.674   4.431  14.683  0.00  0.00    +0.000 F 
ATOM     28  F   UNL     1       6.112   2.967  14.975  0.00  0.00    +0.000 F 
ATOM     29  F   UNL     1       5.607   5.008  14.393  0.00  0.00    +0.000 F 
ENDBRANCH  23  26
ENDBRANCH   5  19
TORSDOF 4
ENDMDL
MODEL 5
REMARK VINA RESULT:      -7.2      3.287      9.049
REMARK  Name = 
REMARK  4 active torsions:
REMARK  status: ('A' for Active; 'I' for Inactive)
REMARK    1  A    between atoms: C_2  and  C_3
REMARK    2  A    between atoms: C_9  and  N_10
REMARK    3  A    between atoms: C_14  and  C_16
REMARK    4  A    between atoms: C_20  and  C_21
REMARK                            x       y       z     vdW  Elec       q    Type
REMARK                         _______ _______ _______ _____ _____    ______ ____
ROOT
ATOM      1  N   UNL     1       2.206   5.843  19.483  0.00  0.00    +0.000 N 
ATOM      2  C   UNL     1       1.535   6.061  20.766  0.00  0.00    +0.000 C 
ATOM      3  C   UNL     1       1.804   7.472  21.288  0.00  0.00    +0.000 C 
ATOM      4  N   UNL     1       1.326   8.446  20.311  0.00  0.00    +0.000 N 
ATOM      5  C   UNL     1       0.515   9.499  20.757  0.00  0.00    +0.000 C 
ATOM      6  O   UNL     1       0.200   9.594  21.942  0.00  0.00    +0.000 OA
ATOM      7  C   UNL     1       1.868   8.258  18.960  0.00  0.00    +0.000 C 
ATOM      8  C   UNL     1       2.190   6.831  18.500  0.00  0.00    +0.000 C 
ATOM      9  O   UNL     1       2.492   6.621  17.322  0.00  0.00    +0.000 OA
ENDROOT
BRANCH   1  16
ATOM     10  C   UNL     1       3.994   4.198  19.025  0.00  0.00    +0.000 A 
ATOM     11  C   UNL     1       4.369   2.888  18.721  0.00  0.00    +0.000 A 
ATOM     12  C   UNL     1       3.389   1.920  18.524  0.00  0.00    +0.000 A 
ATOM     13  F   UNL     1       3.757   0.661  18.251  0.00  0.00    +0.000 F 
ATOM     14  C   UNL     1       2.038   2.229  18.623  0.00  0.00    +0.000 A 
ATOM     15  C   UNL     1       1.652   3.532  18.943  0.00  0.00    +0.000 A 
ATOM     16  C   UNL     1       2.621   4.521  19.145  0.00  0.00    +0.000 A 
BRANCH  10  18
ATOM     17  N   UNL     1       5.888   5.904  19.522  0.00  0.00    +0.000 NA
ATOM     18  C   UNL     1       5.028   5.152  19.321  0.00  0.00    +0.000 C 
ENDBRANCH  10  18
ENDBRANCH   1  16
BRANCH   5  19
ATOM     19  C   UNL     1      -0.001  10.535  19.804  0.00  0.00    +0.000 A 
ATOM     20  C   UNL     1      -0.994  10.177  18.880  0.00  0.00    +0.000 A 
ATOM     21  C   UNL     1      -1.599  11.133  18.068  0.00  0.00    +0.000 A 
ATOM     22  C   UNL     1      -1.143  12.444  18.092  0.00  0.00    +0.000 A 
ATOM     23  C   UNL     1      -0.064  12.819  18.914  0.00  0.00    +0.000 A 
ATOM     24  C   UNL     1       0.505  11.857  19.780  0.00  0.00    +0.000 A 
ATOM     25 CL   UNL     1       1.812  12.348  20.813  0.00  0.00    +0.000 Cl
BRANCH  23  26
ATOM     26  C   UNL     1       0.447  14.237  18.840  0.00  0.00    +0.000 C 
ATOM     27  F   UNL     1      -0.357  15.052  18.094  0.00  0.00    +0.000 F 
ATOM     28  F   UNL     1       0.530  14.838  20.052  0.00  0.00    +0.000 F 
ATOM     29  F   UNL     1       1.679  14.334  18.268  0.00  0.00    +0.000 F 
ENDBRANCH  23  26
ENDBRANCH   5  19
TORSDOF 4
ENDMDL
MODEL 6
REMARK VINA RESULT:      -7.2      3.210      4.076
REMARK  Name = 
REMARK  4 active torsions:
REMARK  status: ('A' for Active; 'I' for Inactive)
REMARK    1  A    between atoms: C_2  and  C_3
REMARK    2  A    between atoms: C_9  and  N_10
REMARK    3  A    between atoms: C_14  and  C_16
REMARK    4  A    between atoms: C_20  and  C_21
REMARK                            x       y       z     vdW  Elec       q    Type
REMARK                         _______ _______ _______ _____ _____    ______ ____
ROOT
ATOM      1  N   UNL     1       1.323  11.198  19.399  0.00  0.00    +0.000 N 
ATOM      2  C   UNL     1       1.176  10.561  20.709  0.00  0.00    +0.000 C 
ATOM      3  C   UNL     1       0.552   9.173  20.572  0.00  0.00    +0.000 C 
ATOM      4  N   UNL     1       1.398   8.347  19.716  0.00  0.00    +0.000 N 
ATOM      5  C   UNL     1       1.750   7.064  20.160  0.00  0.00    +0.000 C 
ATOM      6  O   UNL     1       1.367   6.648  21.252  0.00  0.00    +0.000 OA
ATOM      7  C   UNL     1       1.687   8.940  18.406  0.00  0.00    +0.000 C 
ATOM      8  C   UNL     1       1.784  10.467  18.305  0.00  0.00    +0.000 C 
ATOM      9  O   UNL     1       2.183  10.988  17.261  0.00  0.00    +0.000 OA
ENDROOT
BRANCH   1  16
ATOM     10  C   UNL     1       0.114  13.277  18.829  0.00  0.00    +0.000 A 
ATOM     11  C   UNL     1       0.079  14.673  18.791  0.00  0.00    +0.000 A 
ATOM     12  C   UNL     1       1.184  15.400  19.223  0.00  0.00    +0.000 A 
ATOM     13  F   UNL     1       1.137  16.738  19.202  0.00  0.00    +0.000 F 
ATOM     14  C   UNL     1       2.327  14.766  19.692  0.00  0.00    +0.000 A 
ATOM     15  C   UNL     1       2.367  13.372  19.749  0.00  0.00    +0.000 A 
ATOM     16  C   UNL     1       1.267  12.621  19.321  0.00  0.00    +0.000 A 
BRANCH  10  18
ATOM     17  N   UNL     1      -2.037  11.954  18.223  0.00  0.00    +0.000 NA
ATOM     18  C   UNL     1      -1.077  12.556  18.469  0.00  0.00    +0.000 C 
ENDBRANCH  10  18
ENDBRANCH   1  16
BRANCH   5  19
ATOM     19  C   UNL     1       2.609   6.165  19.323  0.00  0.00    +0.000 A 
ATOM     20  C   UNL     1       3.685   6.719  18.611  0.00  0.00    +0.000 A 
ATOM     21  C   UNL     1       4.589   5.909  17.930  0.00  0.00    +0.000 A 
ATOM     22  C   UNL     1       4.370   4.540  17.861  0.00  0.00    +0.000 A 
ATOM     23  C   UNL     1       3.235   3.959  18.455  0.00  0.00    +0.000 A 
ATOM     24  C   UNL     1       2.353   4.778  19.196  0.00  0.00    +0.000 A 
ATOM     25 CL   UNL     1       0.977   4.037  19.952  0.00  0.00    +0.000 Cl
BRANCH  23  26
ATOM     26  C   UNL     1       3.000   2.479  18.278  0.00  0.00    +0.000 C 
ATOM     27  F   UNL     1       3.962   1.875  17.518  0.00  0.00    +0.000 F 
ATOM     28  F   UNL     1       2.996   1.795  19.449  0.00  0.00    +0.000 F 
ATOM     29  F   UNL     1       1.824   2.193  17.652  0.00  0.00    +0.000 F 
ENDBRANCH  23  26
ENDBRANCH   5  19
TORSDOF 4
ENDMDL
MODEL 7
REMARK VINA RESULT:      -7.1      3.288      4.183
REMARK  Name = 
REMARK  4 active torsions:
REMARK  status: ('A' for Active; 'I' for Inactive)
REMARK    1  A    between atoms: C_2  and  C_3
REMARK    2  A    between atoms: C_9  and  N_10
REMARK    3  A    between atoms: C_14  and  C_16
REMARK    4  A    between atoms: C_20  and  C_21
REMARK                            x       y       z     vdW  Elec       q    Type
REMARK                         _______ _______ _______ _____ _____    ______ ____
ROOT
ATOM      1  N   UNL     1       1.232  10.455  19.355  0.00  0.00    +0.000 N 
ATOM      2  C   UNL     1       1.131   9.898  20.705  0.00  0.00    +0.000 C 
ATOM      3  C   UNL     1       0.636   8.453  20.662  0.00  0.00    +0.000 C 
ATOM      4  N   UNL     1       1.561   7.651  19.867  0.00  0.00    +0.000 N 
ATOM      5  C   UNL     1       2.023   6.438  20.400  0.00  0.00    +0.000 C 
ATOM      6  O   UNL     1       1.669   6.064  21.516  0.00  0.00    +0.000 OA
ATOM      7  C   UNL     1       1.808   8.177  18.520  0.00  0.00    +0.000 C 
ATOM      8  C   UNL     1       1.768   9.696  18.315  0.00  0.00    +0.000 C 
ATOM      9  O   UNL     1       2.128  10.179  17.239  0.00  0.00    +0.000 OA
ENDROOT
BRANCH   1  16
ATOM     10  C   UNL     1      -0.163  12.374  18.662  0.00  0.00    +0.000 A 
ATOM     11  C   UNL     1      -0.322  13.755  18.528  0.00  0.00    +0.000 A 
ATOM     12  C   UNL     1       0.718  14.605  18.890  0.00  0.00    +0.000 A 
ATOM     13  F   UNL     1       0.551  15.930  18.776  0.00  0.00    +0.000 F 
ATOM     14  C   UNL     1       1.918  14.109  19.382  0.00  0.00    +0.000 A 
ATOM     15  C   UNL     1       2.082  12.732  19.536  0.00  0.00    +0.000 A 
ATOM     16  C   UNL     1       1.049  11.858  19.179  0.00  0.00    +0.000 A 
BRANCH  10  18
ATOM     17  N   UNL     1      -2.203  10.867  18.100  0.00  0.00    +0.000 NA
ATOM     18  C   UNL     1      -1.289  11.527  18.374  0.00  0.00    +0.000 C 
ENDBRANCH  10  18
ENDBRANCH   1  16
BRANCH   5  19
ATOM     19  C   UNL     1       2.968   5.565  19.629  0.00  0.00    +0.000 A 
ATOM     20  C   UNL     1       4.241   6.060  19.304  0.00  0.00    +0.000 A 
ATOM     21  C   UNL     1       5.199   5.244  18.710  0.00  0.00    +0.000 A 
ATOM     22  C   UNL     1       4.863   3.950  18.334  0.00  0.00    +0.000 A 
ATOM     23  C   UNL     1       3.560   3.457  18.527  0.00  0.00    +0.000 A 
ATOM     24  C   UNL     1       2.610   4.270  19.186  0.00  0.00    +0.000 A 
ATOM     25 CL   UNL     1       1.016   3.631  19.448  0.00  0.00    +0.000 Cl
BRANCH  23  26
ATOM     26  C   UNL     1       3.224   2.075  18.023  0.00  0.00    +0.000 C 
ATOM     27  F   UNL     1       2.841   1.224  19.021  0.00  0.00    +0.000 F 
ATOM     28  F   UNL     1       2.197   2.064  17.138  0.00  0.00    +0.000 F 
ATOM     29  F   UNL     1       4.274   1.456  17.413  0.00  0.00    +0.000 F 
ENDBRANCH  23  26
ENDBRANCH   5  19
TORSDOF 4
ENDMDL
MODEL 8
REMARK VINA RESULT:      -7.1      2.622      3.569
REMARK  Name = 
REMARK  4 active torsions:
REMARK  status: ('A' for Active; 'I' for Inactive)
REMARK    1  A    between atoms: C_2  and  C_3
REMARK    2  A    between atoms: C_9  and  N_10
REMARK    3  A    between atoms: C_14  and  C_16
REMARK    4  A    between atoms: C_20  and  C_21
REMARK                            x       y       z     vdW  Elec       q    Type
REMARK                         _______ _______ _______ _____ _____    ______ ____
ROOT
ATOM      1  N   UNL     1       0.451   9.862  19.388  0.00  0.00    +0.000 N 
ATOM      2  C   UNL     1       0.971   9.829  18.020  0.00  0.00    +0.000 C 
ATOM      3  C   UNL     1       2.437   9.400  18.004  0.00  0.00    +0.000 C 
ATOM      4  N   UNL     1       2.558   8.076  18.609  0.00  0.00    +0.000 N 
ATOM      5  C   UNL     1       3.286   7.092  17.925  0.00  0.00    +0.000 C 
ATOM      6  O   UNL     1       3.800   7.332  16.834  0.00  0.00    +0.000 OA
ATOM      7  C   UNL     1       1.980   7.975  19.953  0.00  0.00    +0.000 C 
ATOM      8  C   UNL     1       0.759   8.842  20.286  0.00  0.00    +0.000 C 
ATOM      9  O   UNL     1       0.152   8.665  21.345  0.00  0.00    +0.000 OA
ENDROOT
BRANCH   1  16
ATOM     10  C   UNL     1      -1.707  10.938  18.843  0.00  0.00    +0.000 A 
ATOM     11  C   UNL     1      -2.725  11.827  19.192  0.00  0.00    +0.000 A 
ATOM     12  C   UNL     1      -2.624  12.562  20.369  0.00  0.00    +0.000 A 
ATOM     13  F   UNL     1      -3.614  13.399  20.706  0.00  0.00    +0.000 F 
ATOM     14  C   UNL     1      -1.526  12.431  21.210  0.00  0.00    +0.000 A 
ATOM     15  C   UNL     1      -0.510  11.533  20.879  0.00  0.00    +0.000 A 
ATOM     16  C   UNL     1      -0.592  10.783  19.700  0.00  0.00    +0.000 A 
BRANCH  10  18
ATOM     17  N   UNL     1      -2.056   9.499  16.710  0.00  0.00    +0.000 NA
ATOM     18  C   UNL     1      -1.886  10.121  17.673  0.00  0.00    +0.000 C 
ENDBRANCH  10  18
ENDBRANCH   1  16
BRANCH   5  19
ATOM     19  C   UNL     1       3.453   5.716  18.497  0.00  0.00    +0.000 A 
ATOM     20  C   UNL     1       4.607   5.423  19.241  0.00  0.00    +0.000 A 
ATOM     21  C   UNL     1       4.745   4.207  19.904  0.00  0.00    +0.000 A 
ATOM     22  C   UNL     1       3.779   3.223  19.745  0.00  0.00    +0.000 A 
ATOM     23  C   UNL     1       2.668   3.430  18.906  0.00  0.00    +0.000 A 
ATOM     24  C   UNL     1       2.503   4.689  18.284  0.00  0.00    +0.000 A 
ATOM     25 CL   UNL     1       1.107   4.938  17.282  0.00  0.00    +0.000 Cl
BRANCH  23  26
ATOM     26  C   UNL     1       1.691   2.297  18.701  0.00  0.00    +0.000 C 
ATOM     27  F   UNL     1       1.768   1.750  17.451  0.00  0.00    +0.000 F 
ATOM     28  F   UNL     1       1.889   1.261  19.552  0.00  0.00    +0.000 F 
ATOM     29  F   UNL     1       0.391   2.678  18.842  0.00  0.00    +0.000 F 
ENDBRANCH  23  26
ENDBRANCH   5  19
TORSDOF 4
ENDMDL
MODEL 9
REMARK VINA RESULT:      -7.0      2.276      3.238
REMARK  Name = 
REMARK  4 active torsions:
REMARK  status: ('A' for Active; 'I' for Inactive)
REMARK    1  A    between atoms: C_2  and  C_3
REMARK    2  A    between atoms: C_9  and  N_10
REMARK    3  A    between atoms: C_14  and  C_16
REMARK    4  A    between atoms: C_20  and  C_21
REMARK                            x       y       z     vdW  Elec       q    Type
REMARK                         _______ _______ _______ _____ _____    ______ ____
ROOT
ATOM      1  N   UNL     1       0.932  10.057  19.507  0.00  0.00    +0.000 N 
ATOM      2  C   UNL     1       1.566  10.053  18.188  0.00  0.00    +0.000 C 
ATOM      3  C   UNL     1       2.847   9.220  18.202  0.00  0.00    +0.000 C 
ATOM      4  N   UNL     1       2.526   7.852  18.597  0.00  0.00    +0.000 N 
ATOM      5  C   UNL     1       3.020   6.796  17.816  0.00  0.00    +0.000 C 
ATOM      6  O   UNL     1       3.696   7.018  16.812  0.00  0.00    +0.000 OA
ATOM      7  C   UNL     1       1.801   7.747  19.868  0.00  0.00    +0.000 C 
ATOM      8  C   UNL     1       0.843   8.881  20.252  0.00  0.00    +0.000 C 
ATOM      9  O   UNL     1       0.100   8.751  21.228  0.00  0.00    +0.000 OA
ENDROOT
BRANCH   1  16
ATOM     10  C   UNL     1      -1.115  11.432  19.327  0.00  0.00    +0.000 A 
ATOM     11  C   UNL     1      -1.857  12.537  19.746  0.00  0.00    +0.000 A 
ATOM     12  C   UNL     1      -1.329  13.399  20.702  0.00  0.00    +0.000 A 
ATOM     13  F   UNL     1      -2.055  14.447  21.112  0.00  0.00    +0.000 F 
ATOM     14  C   UNL     1      -0.071  13.184  21.251  0.00  0.00    +0.000 A 
ATOM     15  C   UNL     1       0.673  12.073  20.852  0.00  0.00    +0.000 A 
ATOM     16  C   UNL     1       0.160  11.193  19.892  0.00  0.00    +0.000 A 
BRANCH  10  18
ATOM     17  N   UNL     1      -2.207   9.788  17.639  0.00  0.00    +0.000 NA
ATOM     18  C   UNL     1      -1.727  10.506  18.413  0.00  0.00    +0.000 C 
ENDBRANCH  10  18
ENDBRANCH   1  16
BRANCH   5  19
ATOM     19  C   UNL     1       2.733   5.369  18.174  0.00  0.00    +0.000 A 
ATOM     20  C   UNL     1       1.498   4.810  17.809  0.00  0.00    +0.000 A 
ATOM     21  C   UNL     1       1.237   3.456  17.998  0.00  0.00    +0.000 A 
ATOM     22  C   UNL     1       2.168   2.662  18.654  0.00  0.00    +0.000 A 
ATOM     23  C   UNL     1       3.365   3.211  19.149  0.00  0.00    +0.000 A 
ATOM     24  C   UNL     1       3.650   4.573  18.900  0.00  0.00    +0.000 A 
ATOM     25 CL   UNL     1       5.150   5.223  19.486  0.00  0.00    +0.000 Cl
BRANCH  23  26
ATOM     26  C   UNL     1       4.304   2.323  19.929  0.00  0.00    +0.000 C 
ATOM     27  F   UNL     1       3.914   2.149  21.227  0.00  0.00    +0.000 F 
ATOM     28  F   UNL     1       4.399   1.070  19.420  0.00  0.00    +0.000 F 
ATOM     29  F   UNL     1       5.572   2.814  20.002  0.00  0.00    +0.000 F 
ENDBRANCH  23  26
ENDBRANCH   5  19
TORSDOF 4
ENDMDL
