MODEL 1
REMARK VINA RESULT:      -8.4      0.000      0.000
REMARK  Name = 
REMARK  7 active torsions:
REMARK  status: ('A' for Active; 'I' for Inactive)
REMARK    1  A    between atoms: C_1  and  N_2
REMARK    2  A    between atoms: N_2  and  C_3
REMARK    3  A    between atoms: C_3  and  C_4
REMARK    4  A    between atoms: N_6  and  C_7
REMARK    5  A    between atoms: C_14  and  C_16
REMARK    6  A    between atoms: C_18  and  N_19
REMARK    7  A    between atoms: C_24  and  N_25
REMARK                            x       y       z     vdW  Elec       q    Type
REMARK                         _______ _______ _______ _____ _____    ______ ____
ROOT
ATOM      1  C   UNL     1       2.098   9.001  18.272  0.00  0.00    +0.000 C 
ATOM      2  N   UNL     1       2.263   7.739  18.986  0.00  0.00    +0.000 N 
ATOM      3  C   UNL     1       3.102   6.793  18.320  0.00  0.00    +0.000 C 
ATOM      4  O   UNL     1       3.678   7.106  17.278  0.00  0.00    +0.000 OA
ENDROOT
BRANCH   3   5
ATOM      5  C   UNL     1       3.362   5.403  18.827  0.00  0.00    +0.000 A 
ATOM      6  C   UNL     1       2.391   4.829  19.668  0.00  0.00    +0.000 A 
ATOM      7  C   UNL     1       2.558   3.563  20.242  0.00  0.00    +0.000 A 
ATOM      8  C   UNL     1       3.747   2.878  20.082  0.00  0.00    +0.000 A 
ATOM      9  C   UNL     1       4.755   3.469  19.325  0.00  0.00    +0.000 A 
ATOM     10  C   UNL     1       4.614   4.730  18.677  0.00  0.00    +0.000 A 
BRANCH  10  11
ATOM     11  N   UNL     1       5.723   5.130  17.942  0.00  0.00    +0.000 N 
ATOM     12  C   UNL     1       6.856   5.907  18.461  0.00  0.00    +0.000 C 
ATOM     13  C   UNL     1       7.320   6.879  17.360  0.00  0.00    +0.000 C 
ATOM     14  O   UNL     1       7.659   6.199  16.134  0.00  0.00    +0.000 OA
ATOM     15  C   UNL     1       6.549   5.424  15.654  0.00  0.00    +0.000 C 
ATOM     16  C   UNL     1       6.088   4.399  16.706  0.00  0.00    +0.000 C 
ENDBRANCH  10  11
BRANCH   7  17
ATOM     17  N   UNL     1       1.457   2.963  21.003  0.00  0.00    +0.000 N 
ATOM     18  O   UNL     1       1.698   2.609  22.167  0.00  0.00    +0.000 OA
ATOM     19  O   UNL     1       0.352   2.879  20.453  0.00  0.00    +0.000 OA
ENDBRANCH   7  17
ENDBRANCH   3   5
BRANCH   2  20
ATOM     20  C   UNL     1       1.769   7.684  20.385  0.00  0.00    +0.000 C 
BRANCH  20  21
ATOM     21  C   UNL     1       1.268   8.946  21.144  0.00  0.00    +0.000 C 
ATOM     22  O   UNL     1       1.907   9.501  22.035  0.00  0.00    +0.000 OA
ATOM     23  N   UNL     1      -0.042   9.291  20.823  0.00  0.00    +0.000 N 
ATOM     24  H   UNL     1      -0.653   8.544  20.510  0.00  0.00    +0.000 HD
BRANCH  23  25
ATOM     25  C   UNL     1      -0.701  10.417  21.384  0.00  0.00    +0.000 A 
ATOM     26  C   UNL     1      -0.970  10.481  22.756  0.00  0.00    +0.000 A 
ATOM     27  C   UNL     1      -1.574  11.612  23.313  0.00  0.00    +0.000 A 
ATOM     28  C   UNL     1      -1.937  12.682  22.500  0.00  0.00    +0.000 A 
ATOM     29  C   UNL     1      -1.684  12.625  21.130  0.00  0.00    +0.000 A 
ATOM     30  C   UNL     1      -1.053  11.506  20.574  0.00  0.00    +0.000 A 
ATOM     31 BR   UNL     1      -0.791  11.467  18.695  0.00  0.00    +0.000 Br
ENDBRANCH  23  25
ENDBRANCH  20  21
ENDBRANCH   2  20
TORSDOF 6
ENDMDL
MODEL 2
REMARK VINA RESULT:      -7.9      1.045      1.189
REMARK  Name = 
REMARK  7 active torsions:
REMARK  status: ('A' for Active; 'I' for Inactive)
REMARK    1  A    between atoms: C_1  and  N_2
REMARK    2  A    between atoms: N_2  and  C_3
REMARK    3  A    between atoms: C_3  and  C_4
REMARK    4  A    between atoms: N_6  and  C_7
REMARK    5  A    between atoms: C_14  and  C_16
REMARK    6  A    between atoms: C_18  and  N_19
REMARK    7  A    between atoms: C_24  and  N_25
REMARK                            x       y       z     vdW  Elec       q    Type
REMARK                         _______ _______ _______ _____ _____    ______ ____
ROOT
ATOM      1  C   UNL     1       2.167   9.206  17.788  0.00  0.00    +0.000 C 
ATOM      2  N   UNL     1       2.294   7.998  18.597  0.00  0.00    +0.000 N 
ATOM      3  C   UNL     1       3.159   7.006  18.040  0.00  0.00    +0.000 C 
ATOM      4  O   UNL     1       3.784   7.244  17.006  0.00  0.00    +0.000 OA
ENDROOT
BRANCH   3   5
ATOM      5  C   UNL     1       3.390   5.656  18.656  0.00  0.00    +0.000 A 
ATOM      6  C   UNL     1       2.389   5.155  19.509  0.00  0.00    +0.000 A 
ATOM      7  C   UNL     1       2.526   3.934  20.180  0.00  0.00    +0.000 A 
ATOM      8  C   UNL     1       3.712   3.229  20.107  0.00  0.00    +0.000 A 
ATOM      9  C   UNL     1       4.748   3.754  19.339  0.00  0.00    +0.000 A 
ATOM     10  C   UNL     1       4.639   4.964  18.594  0.00  0.00    +0.000 A 
BRANCH  10  11
ATOM     11  N   UNL     1       5.772   5.298  17.866  0.00  0.00    +0.000 N 
ATOM     12  C   UNL     1       6.908   6.084  18.366  0.00  0.00    +0.000 C 
ATOM     13  C   UNL     1       7.418   6.979  17.221  0.00  0.00    +0.000 C 
ATOM     14  O   UNL     1       7.772   6.222  16.046  0.00  0.00    +0.000 OA
ATOM     15  C   UNL     1       6.658   5.441  15.585  0.00  0.00    +0.000 C 
ATOM     16  C   UNL     1       6.152   4.489  16.683  0.00  0.00    +0.000 C 
ENDBRANCH  10  11
BRANCH   7  17
ATOM     17  N   UNL     1       1.397   3.401  20.951  0.00  0.00    +0.000 N 
ATOM     18  O   UNL     1       0.298   3.342  20.380  0.00  0.00    +0.000 OA
ATOM     19  O   UNL     1       1.616   3.012  22.104  0.00  0.00    +0.000 OA
ENDBRANCH   7  17
ENDBRANCH   3   5
BRANCH   2  20
ATOM     20  C   UNL     1       1.735   8.044  19.971  0.00  0.00    +0.000 C 
BRANCH  20  21
ATOM     21  C   UNL     1       0.599   9.025  20.380  0.00  0.00    +0.000 C 
ATOM     22  O   UNL     1      -0.488   9.080  19.812  0.00  0.00    +0.000 OA
ATOM     23  N   UNL     1       0.993   9.940  21.353  0.00  0.00    +0.000 N 
ATOM     24  H   UNL     1       1.980  10.173  21.395  0.00  0.00    +0.000 HD
BRANCH  23  25
ATOM     25  C   UNL     1       0.116  10.920  21.889  0.00  0.00    +0.000 A 
ATOM     26  C   UNL     1      -0.866  10.570  22.822  0.00  0.00    +0.000 A 
ATOM     27  C   UNL     1      -1.695  11.546  23.386  0.00  0.00    +0.000 A 
ATOM     28  C   UNL     1      -1.564  12.878  23.004  0.00  0.00    +0.000 A 
ATOM     29  C   UNL     1      -0.596  13.237  22.068  0.00  0.00    +0.000 A 
ATOM     30  C   UNL     1       0.255  12.266  21.524  0.00  0.00    +0.000 A 
ATOM     31 BR   UNL     1       1.511  12.813  20.210  0.00  0.00    +0.000 Br
ENDBRANCH  23  25
ENDBRANCH  20  21
ENDBRANCH   2  20
TORSDOF 6
ENDMDL
MODEL 3
REMARK VINA RESULT:      -7.9      0.828      1.207
REMARK  Name = 
REMARK  7 active torsions:
REMARK  status: ('A' for Active; 'I' for Inactive)
REMARK    1  A    between atoms: C_1  and  N_2
REMARK    2  A    between atoms: N_2  and  C_3
REMARK    3  A    between atoms: C_3  and  C_4
REMARK    4  A    between atoms: N_6  and  C_7
REMARK    5  A    between atoms: C_14  and  C_16
REMARK    6  A    between atoms: C_18  and  N_19
REMARK    7  A    between atoms: C_24  and  N_25
REMARK                            x       y       z     vdW  Elec       q    Type
REMARK                         _______ _______ _______ _____ _____    ______ ____
ROOT
ATOM      1  C   UNL     1       1.667   9.367  18.251  0.00  0.00    +0.000 C 
ATOM      2  N   UNL     1       1.989   8.130  18.954  0.00  0.00    +0.000 N 
ATOM      3  C   UNL     1       2.750   7.198  18.182  0.00  0.00    +0.000 C 
ATOM      4  O   UNL     1       3.144   7.506  17.057  0.00  0.00    +0.000 OA
ENDROOT
BRANCH   3   5
ATOM      5  C   UNL     1       3.139   5.831  18.668  0.00  0.00    +0.000 A 
ATOM      6  C   UNL     1       2.332   5.242  19.659  0.00  0.00    +0.000 A 
ATOM      7  C   UNL     1       2.634   3.998  20.223  0.00  0.00    +0.000 A 
ATOM      8  C   UNL     1       3.811   3.352  19.894  0.00  0.00    +0.000 A 
ATOM      9  C   UNL     1       4.668   3.962  18.981  0.00  0.00    +0.000 A 
ATOM     10  C   UNL     1       4.380   5.200  18.339  0.00  0.00    +0.000 A 
BRANCH  10  11
ATOM     11  N   UNL     1       5.346   5.623  17.437  0.00  0.00    +0.000 N 
ATOM     12  C   UNL     1       5.363   5.319  15.999  0.00  0.00    +0.000 C 
ATOM     13  C   UNL     1       6.826   5.103  15.569  0.00  0.00    +0.000 C 
ATOM     14  O   UNL     1       7.665   6.232  15.884  0.00  0.00    +0.000 OA
ATOM     15  C   UNL     1       7.618   6.530  17.288  0.00  0.00    +0.000 C 
ATOM     16  C   UNL     1       6.177   6.809  17.750  0.00  0.00    +0.000 C 
ENDBRANCH  10  11
BRANCH   7  17
ATOM     17  N   UNL     1       1.687   3.376  21.155  0.00  0.00    +0.000 N 
ATOM     18  O   UNL     1       2.077   3.183  22.316  0.00  0.00    +0.000 OA
ATOM     19  O   UNL     1       0.551   3.116  20.738  0.00  0.00    +0.000 OA
ENDBRANCH   7  17
ENDBRANCH   3   5
BRANCH   2  20
ATOM     20  C   UNL     1       1.721   8.093  20.413  0.00  0.00    +0.000 C 
BRANCH  20  21
ATOM     21  C   UNL     1       0.454   8.732  21.047  0.00  0.00    +0.000 C 
ATOM     22  O   UNL     1      -0.498   8.081  21.470  0.00  0.00    +0.000 OA
ATOM     23  N   UNL     1       0.436  10.121  20.948  0.00  0.00    +0.000 N 
ATOM     24  H   UNL     1       0.949  10.535  20.175  0.00  0.00    +0.000 HD
BRANCH  23  25
ATOM     25  C   UNL     1      -0.617  10.918  21.471  0.00  0.00    +0.000 A 
ATOM     26  C   UNL     1      -0.899  10.922  22.842  0.00  0.00    +0.000 A 
ATOM     27  C   UNL     1      -1.903  11.746  23.361  0.00  0.00    +0.000 A 
ATOM     28  C   UNL     1      -2.649  12.557  22.511  0.00  0.00    +0.000 A 
ATOM     29  C   UNL     1      -2.385  12.553  21.142  0.00  0.00    +0.000 A 
ATOM     30  C   UNL     1      -1.360  11.750  20.624  0.00  0.00    +0.000 A 
ATOM     31 BR   UNL     1      -1.091  11.747  18.745  0.00  0.00    +0.000 Br
ENDBRANCH  23  25
ENDBRANCH  20  21
ENDBRANCH   2  20
TORSDOF 6
ENDMDL
MODEL 4
REMARK VINA RESULT:      -7.7      3.520      9.036
REMARK  Name = 
REMARK  7 active torsions:
REMARK  status: ('A' for Active; 'I' for Inactive)
REMARK    1  A    between atoms: C_1  and  N_2
REMARK    2  A    between atoms: N_2  and  C_3
REMARK    3  A    between atoms: C_3  and  C_4
REMARK    4  A    between atoms: N_6  and  C_7
REMARK    5  A    between atoms: C_14  and  C_16
REMARK    6  A    between atoms: C_18  and  N_19
REMARK    7  A    between atoms: C_24  and  N_25
REMARK                            x       y       z     vdW  Elec       q    Type
REMARK                         _______ _______ _______ _____ _____    ______ ____
ROOT
ATOM      1  C   UNL     1      -0.447   8.394  22.174  0.00  0.00    +0.000 C 
ATOM      2  N   UNL     1       0.245   9.334  21.298  0.00  0.00    +0.000 N 
ATOM      3  C   UNL     1      -0.415  10.592  21.148  0.00  0.00    +0.000 C 
ATOM      4  O   UNL     1      -1.434  10.835  21.796  0.00  0.00    +0.000 OA
ENDROOT
BRANCH   3   5
ATOM      5  C   UNL     1       0.070  11.689  20.244  0.00  0.00    +0.000 A 
ATOM      6  C   UNL     1       1.057  12.555  20.749  0.00  0.00    +0.000 A 
ATOM      7  C   UNL     1       1.540  13.644  20.014  0.00  0.00    +0.000 A 
ATOM      8  C   UNL     1       0.973  13.967  18.796  0.00  0.00    +0.000 A 
ATOM      9  C   UNL     1      -0.068  13.174  18.319  0.00  0.00    +0.000 A 
ATOM     10  C   UNL     1      -0.557  12.024  19.004  0.00  0.00    +0.000 A 
BRANCH  10  11
ATOM     11  N   UNL     1      -1.576  11.349  18.345  0.00  0.00    +0.000 N 
ATOM     12  C   UNL     1      -1.439  10.062  17.651  0.00  0.00    +0.000 C 
ATOM     13  C   UNL     1      -2.327  10.095  16.393  0.00  0.00    +0.000 C 
ATOM     14  O   UNL     1      -3.705  10.389  16.700  0.00  0.00    +0.000 OA
ATOM     15  C   UNL     1      -3.819  11.637  17.400  0.00  0.00    +0.000 C 
ATOM     16  C   UNL     1      -2.989  11.628  18.696  0.00  0.00    +0.000 C 
ENDBRANCH  10  11
BRANCH   7  17
ATOM     17  N   UNL     1       2.661  14.432  20.539  0.00  0.00    +0.000 N 
ATOM     18  O   UNL     1       3.033  15.405  19.867  0.00  0.00    +0.000 OA
ATOM     19  O   UNL     1       3.139  14.101  21.631  0.00  0.00    +0.000 OA
ENDBRANCH   7  17
ENDBRANCH   3   5
BRANCH   2  20
ATOM     20  C   UNL     1       1.628   8.981  20.888  0.00  0.00    +0.000 C 
BRANCH  20  21
ATOM     21  C   UNL     1       1.931   8.095  19.647  0.00  0.00    +0.000 C 
ATOM     22  O   UNL     1       1.562   8.369  18.508  0.00  0.00    +0.000 OA
ATOM     23  N   UNL     1       2.529   6.881  19.977  0.00  0.00    +0.000 N 
ATOM     24  H   UNL     1       2.336   6.509  20.902  0.00  0.00    +0.000 HD
BRANCH  23  25
ATOM     25  C   UNL     1       2.909   5.919  19.004  0.00  0.00    +0.000 A 
ATOM     26  C   UNL     1       3.855   6.229  18.021  0.00  0.00    +0.000 A 
ATOM     27  C   UNL     1       4.264   5.264  17.095  0.00  0.00    +0.000 A 
ATOM     28  C   UNL     1       3.715   3.986  17.130  0.00  0.00    +0.000 A 
ATOM     29  C   UNL     1       2.763   3.668  18.099  0.00  0.00    +0.000 A 
ATOM     30  C   UNL     1       2.373   4.625  19.045  0.00  0.00    +0.000 A 
ATOM     31 BR   UNL     1       1.031   4.146  20.299  0.00  0.00    +0.000 Br
ENDBRANCH  23  25
ENDBRANCH  20  21
ENDBRANCH   2  20
TORSDOF 6
ENDMDL
MODEL 5
REMARK VINA RESULT:      -7.6      0.997      1.038
REMARK  Name = 
REMARK  7 active torsions:
REMARK  status: ('A' for Active; 'I' for Inactive)
REMARK    1  A    between atoms: C_1  and  N_2
REMARK    2  A    between atoms: N_2  and  C_3
REMARK    3  A    between atoms: C_3  and  C_4
REMARK    4  A    between atoms: N_6  and  C_7
REMARK    5  A    between atoms: C_14  and  C_16
REMARK    6  A    between atoms: C_18  and  N_19
REMARK    7  A    between atoms: C_24  and  N_25
REMARK                            x       y       z     vdW  Elec       q    Type
REMARK                         _______ _______ _______ _____ _____    ______ ____
ROOT
ATOM      1  C   UNL     1       2.146   9.019  18.017  0.00  0.00    +0.000 C 
ATOM      2  N   UNL     1       2.307   7.783  18.775  0.00  0.00    +0.000 N 
ATOM      3  C   UNL     1       3.161   6.820  18.153  0.00  0.00    +0.000 C 
ATOM      4  O   UNL     1       3.752   7.103  17.110  0.00  0.00    +0.000 OA
ENDROOT
BRANCH   3   5
ATOM      5  C   UNL     1       3.422   5.450  18.709  0.00  0.00    +0.000 A 
ATOM      6  C   UNL     1       2.441   4.897  19.555  0.00  0.00    +0.000 A 
ATOM      7  C   UNL     1       2.607   3.652  20.172  0.00  0.00    +0.000 A 
ATOM      8  C   UNL     1       3.802   2.969  20.053  0.00  0.00    +0.000 A 
ATOM      9  C   UNL     1       4.819   3.542  19.293  0.00  0.00    +0.000 A 
ATOM     10  C   UNL     1       4.680   4.780  18.601  0.00  0.00    +0.000 A 
BRANCH  10  11
ATOM     11  N   UNL     1       5.798   5.163  17.871  0.00  0.00    +0.000 N 
ATOM     12  C   UNL     1       6.934   5.934  18.391  0.00  0.00    +0.000 C 
ATOM     13  C   UNL     1       7.416   6.891  17.284  0.00  0.00    +0.000 C 
ATOM     14  O   UNL     1       7.756   6.197  16.066  0.00  0.00    +0.000 OA
ATOM     15  C   UNL     1       6.642   5.428  15.586  0.00  0.00    +0.000 C 
ATOM     16  C   UNL     1       6.165   4.418  16.643  0.00  0.00    +0.000 C 
ENDBRANCH  10  11
BRANCH   7  17
ATOM     17  N   UNL     1       1.497   3.070  20.935  0.00  0.00    +0.000 N 
ATOM     18  O   UNL     1       1.689   2.857  22.142  0.00  0.00    +0.000 OA
ATOM     19  O   UNL     1       0.433   2.862  20.341  0.00  0.00    +0.000 OA
ENDBRANCH   7  17
ENDBRANCH   3   5
BRANCH   2  20
ATOM     20  C   UNL     1       1.791   7.771  20.167  0.00  0.00    +0.000 C 
BRANCH  20  21
ATOM     21  C   UNL     1       0.892   8.906  20.735  0.00  0.00    +0.000 C 
ATOM     22  O   UNL     1       0.352   8.857  21.837  0.00  0.00    +0.000 OA
ATOM     23  N   UNL     1       0.635   9.913  19.809  0.00  0.00    +0.000 N 
ATOM     24  H   UNL     1       0.663   9.655  18.827  0.00  0.00    +0.000 HD
BRANCH  23  25
ATOM     25  C   UNL     1      -0.150  11.057  20.113  0.00  0.00    +0.000 A 
ATOM     26  C   UNL     1       0.227  11.934  21.136  0.00  0.00    +0.000 A 
ATOM     27  C   UNL     1      -0.521  13.086  21.399  0.00  0.00    +0.000 A 
ATOM     28  C   UNL     1      -1.666  13.360  20.656  0.00  0.00    +0.000 A 
ATOM     29  C   UNL     1      -2.057  12.488  19.641  0.00  0.00    +0.000 A 
ATOM     30  C   UNL     1      -1.294  11.349  19.357  0.00  0.00    +0.000 A 
ATOM     31 BR   UNL     1      -1.913  10.172  18.002  0.00  0.00    +0.000 Br
ENDBRANCH  23  25
ENDBRANCH  20  21
ENDBRANCH   2  20
TORSDOF 6
ENDMDL
MODEL 6
REMARK VINA RESULT:      -7.5      2.308      4.984
REMARK  Name = 
REMARK  7 active torsions:
REMARK  status: ('A' for Active; 'I' for Inactive)
REMARK    1  A    between atoms: C_1  and  N_2
REMARK    2  A    between atoms: N_2  and  C_3
REMARK    3  A    between atoms: C_3  and  C_4
REMARK    4  A    between atoms: N_6  and  C_7
REMARK    5  A    between atoms: C_14  and  C_16
REMARK    6  A    between atoms: C_18  and  N_19
REMARK    7  A    between atoms: C_24  and  N_25
REMARK                            x       y       z     vdW  Elec       q    Type
REMARK                         _______ _______ _______ _____ _____    ______ ____
ROOT
ATOM      1  C   UNL     1       1.803   7.913  20.517  0.00  0.00    +0.000 C 
ATOM      2  N   UNL     1       2.525   7.482  19.324  0.00  0.00    +0.000 N 
ATOM      3  C   UNL     1       3.101   6.178  19.426  0.00  0.00    +0.000 C 
ATOM      4  O   UNL     1       2.898   5.491  20.427  0.00  0.00    +0.000 OA
ENDROOT
BRANCH   3   5
ATOM      5  C   UNL     1       3.947   5.552  18.354  0.00  0.00    +0.000 A 
ATOM      6  C   UNL     1       5.056   6.286  17.893  0.00  0.00    +0.000 A 
ATOM      7  C   UNL     1       5.877   5.823  16.859  0.00  0.00    +0.000 A 
ATOM      8  C   UNL     1       5.554   4.664  16.179  0.00  0.00    +0.000 A 
ATOM      9  C   UNL     1       4.409   3.970  16.562  0.00  0.00    +0.000 A 
ATOM     10  C   UNL     1       3.571   4.371  17.642  0.00  0.00    +0.000 A 
BRANCH  10  11
ATOM     11  N   UNL     1       2.498   3.524  17.886  0.00  0.00    +0.000 N 
ATOM     12  C   UNL     1       1.080   3.883  17.749  0.00  0.00    +0.000 C 
ATOM     13  C   UNL     1       0.294   3.180  18.873  0.00  0.00    +0.000 C 
ATOM     14  O   UNL     1       0.484   1.751  18.867  0.00  0.00    +0.000 OA
ATOM     15  C   UNL     1       1.877   1.419  18.976  0.00  0.00    +0.000 C 
ATOM     16  C   UNL     1       2.693   2.056  17.837  0.00  0.00    +0.000 C 
ENDBRANCH  10  11
BRANCH   7  17
ATOM     17  N   UNL     1       7.092   6.568  16.511  0.00  0.00    +0.000 N 
ATOM     18  O   UNL     1       7.820   6.087  15.631  0.00  0.00    +0.000 OA
ATOM     19  O   UNL     1       7.297   7.643  17.088  0.00  0.00    +0.000 OA
ENDBRANCH   7  17
ENDBRANCH   3   5
BRANCH   2  20
ATOM     20  C   UNL     1       2.364   8.309  18.102  0.00  0.00    +0.000 C 
BRANCH  20  21
ATOM     21  C   UNL     1       1.416   9.540  18.044  0.00  0.00    +0.000 C 
ATOM     22  O   UNL     1       1.807  10.693  17.881  0.00  0.00    +0.000 OA
ATOM     23  N   UNL     1       0.094   9.226  18.350  0.00  0.00    +0.000 N 
ATOM     24  H   UNL     1      -0.061   8.423  18.953  0.00  0.00    +0.000 HD
BRANCH  23  25
ATOM     25  C   UNL     1      -0.949  10.189  18.345  0.00  0.00    +0.000 A 
ATOM     26  C   UNL     1      -1.786  10.333  17.233  0.00  0.00    +0.000 A 
ATOM     27  C   UNL     1      -2.844  11.248  17.250  0.00  0.00    +0.000 A 
ATOM     28  C   UNL     1      -3.060  12.044  18.370  0.00  0.00    +0.000 A 
ATOM     29  C   UNL     1      -2.226  11.918  19.480  0.00  0.00    +0.000 A 
ATOM     30  C   UNL     1      -1.184  10.982  19.477  0.00  0.00    +0.000 A 
ATOM     31 BR   UNL     1      -0.049  10.901  20.996  0.00  0.00    +0.000 Br
ENDBRANCH  23  25
ENDBRANCH  20  21
ENDBRANCH   2  20
TORSDOF 6
ENDMDL
MODEL 7
REMARK VINA RESULT:      -7.5      3.589      9.103
REMARK  Name = 
REMARK  7 active torsions:
REMARK  status: ('A' for Active; 'I' for Inactive)
REMARK    1  A    between atoms: C_1  and  N_2
REMARK    2  A    between atoms: N_2  and  C_3
REMARK    3  A    between atoms: C_3  and  C_4
REMARK    4  A    between atoms: N_6  and  C_7
REMARK    5  A    between atoms: C_14  and  C_16
REMARK    6  A    between atoms: C_18  and  N_19
REMARK    7  A    between atoms: C_24  and  N_25
REMARK                            x       y       z     vdW  Elec       q    Type
REMARK                         _______ _______ _______ _____ _____    ______ ____
ROOT
ATOM      1  C   UNL     1      -0.040   8.194  21.677  0.00  0.00    +0.000 C 
ATOM      2  N   UNL     1       0.464   9.176  20.722  0.00  0.00    +0.000 N 
ATOM      3  C   UNL     1       0.029  10.515  20.974  0.00  0.00    +0.000 C 
ATOM      4  O   UNL     1      -0.641  10.767  21.975  0.00  0.00    +0.000 OA
ENDROOT
BRANCH   3   5
ATOM      5  C   UNL     1       0.360  11.682  20.088  0.00  0.00    +0.000 A 
ATOM      6  C   UNL     1       1.359  12.568  20.532  0.00  0.00    +0.000 A 
ATOM      7  C   UNL     1       1.706  13.718  19.814  0.00  0.00    +0.000 A 
ATOM      8  C   UNL     1       0.992  14.077  18.687  0.00  0.00    +0.000 A 
ATOM      9  C   UNL     1      -0.059  13.259  18.281  0.00  0.00    +0.000 A 
ATOM     10  C   UNL     1      -0.417  12.051  18.946  0.00  0.00    +0.000 A 
BRANCH  10  11
ATOM     11  N   UNL     1      -1.473  11.362  18.365  0.00  0.00    +0.000 N 
ATOM     12  C   UNL     1      -1.362  10.102  17.618  0.00  0.00    +0.000 C 
ATOM     13  C   UNL     1      -2.368  10.142  16.452  0.00  0.00    +0.000 C 
ATOM     14  O   UNL     1      -3.718  10.379  16.898  0.00  0.00    +0.000 OA
ATOM     15  C   UNL     1      -3.804  11.601  17.647  0.00  0.00    +0.000 C 
ATOM     16  C   UNL     1      -2.854  11.580  18.857  0.00  0.00    +0.000 C 
ENDBRANCH  10  11
BRANCH   7  17
ATOM     17  N   UNL     1       2.843  14.533  20.258  0.00  0.00    +0.000 N 
ATOM     18  O   UNL     1       3.413  14.189  21.304  0.00  0.00    +0.000 OA
ATOM     19  O   UNL     1       3.184  15.486  19.547  0.00  0.00    +0.000 OA
ENDBRANCH   7  17
ENDBRANCH   3   5
BRANCH   2  20
ATOM     20  C   UNL     1       1.531   8.730  19.793  0.00  0.00    +0.000 C 
BRANCH  20  21
ATOM     21  C   UNL     1       1.975   7.244  19.680  0.00  0.00    +0.000 C 
ATOM     22  O   UNL     1       2.231   6.536  20.651  0.00  0.00    +0.000 OA
ATOM     23  N   UNL     1       2.203   6.841  18.367  0.00  0.00    +0.000 N 
ATOM     24  H   UNL     1       2.473   7.561  17.704  0.00  0.00    +0.000 HD
BRANCH  23  25
ATOM     25  C   UNL     1       2.601   5.522  18.024  0.00  0.00    +0.000 A 
ATOM     26  C   UNL     1       1.734   4.439  18.211  0.00  0.00    +0.000 A 
ATOM     27  C   UNL     1       2.109   3.149  17.825  0.00  0.00    +0.000 A 
ATOM     28  C   UNL     1       3.366   2.924  17.270  0.00  0.00    +0.000 A 
ATOM     29  C   UNL     1       4.242   3.993  17.088  0.00  0.00    +0.000 A 
ATOM     30  C   UNL     1       3.857   5.291  17.447  0.00  0.00    +0.000 A 
ATOM     31 BR   UNL     1       5.120   6.691  17.228  0.00  0.00    +0.000 Br
ENDBRANCH  23  25
ENDBRANCH  20  21
ENDBRANCH   2  20
TORSDOF 6
ENDMDL
MODEL 8
REMARK VINA RESULT:      -7.4      3.789      9.679
REMARK  Name = 
REMARK  7 active torsions:
REMARK  status: ('A' for Active; 'I' for Inactive)
REMARK    1  A    between atoms: C_1  and  N_2
REMARK    2  A    between atoms: N_2  and  C_3
REMARK    3  A    between atoms: C_3  and  C_4
REMARK    4  A    between atoms: N_6  and  C_7
REMARK    5  A    between atoms: C_14  and  C_16
REMARK    6  A    between atoms: C_18  and  N_19
REMARK    7  A    between atoms: C_24  and  N_25
REMARK                            x       y       z     vdW  Elec       q    Type
REMARK                         _______ _______ _______ _____ _____    ______ ____
ROOT
ATOM      1  C   UNL     1       1.629  12.280  20.767  0.00  0.00    +0.000 C 
ATOM      2  N   UNL     1       0.406  11.658  20.270  0.00  0.00    +0.000 N 
ATOM      3  C   UNL     1      -0.493  12.565  19.626  0.00  0.00    +0.000 C 
ATOM      4  O   UNL     1      -0.168  13.740  19.459  0.00  0.00    +0.000 OA
ENDROOT
BRANCH   3   5
ATOM      5  C   UNL     1      -1.843  12.171  19.099  0.00  0.00    +0.000 A 
ATOM      6  C   UNL     1      -1.894  11.602  17.812  0.00  0.00    +0.000 A 
ATOM      7  C   UNL     1      -3.103  11.251  17.202  0.00  0.00    +0.000 A 
ATOM      8  C   UNL     1      -4.306  11.558  17.811  0.00  0.00    +0.000 A 
ATOM      9  C   UNL     1      -4.277  12.202  19.044  0.00  0.00    +0.000 A 
ATOM     10  C   UNL     1      -3.073  12.531  19.731  0.00  0.00    +0.000 A 
BRANCH  10  11
ATOM     11  N   UNL     1      -3.259  13.141  20.965  0.00  0.00    +0.000 N 
ATOM     12  C   UNL     1      -3.159  14.583  21.229  0.00  0.00    +0.000 C 
ATOM     13  C   UNL     1      -2.521  14.776  22.617  0.00  0.00    +0.000 C 
ATOM     14  O   UNL     1      -3.250  14.094  23.658  0.00  0.00    +0.000 OA
ATOM     15  C   UNL     1      -3.360  12.691  23.372  0.00  0.00    +0.000 C 
ATOM     16  C   UNL     1      -4.045  12.451  22.015  0.00  0.00    +0.000 C 
ENDBRANCH  10  11
BRANCH   7  17
ATOM     17  N   UNL     1      -3.087  10.542  15.917  0.00  0.00    +0.000 N 
ATOM     18  O   UNL     1      -3.483  11.165  14.921  0.00  0.00    +0.000 OA
ATOM     19  O   UNL     1      -2.647   9.386  15.900  0.00  0.00    +0.000 OA
ENDBRANCH   7  17
ENDBRANCH   3   5
BRANCH   2  20
ATOM     20  C   UNL     1       0.356  10.175  20.262  0.00  0.00    +0.000 C 
BRANCH  20  21
ATOM     21  C   UNL     1       1.064   9.320  19.174  0.00  0.00    +0.000 C 
ATOM     22  O   UNL     1       0.883   9.468  17.968  0.00  0.00    +0.000 OA
ATOM     23  N   UNL     1       1.805   8.267  19.704  0.00  0.00    +0.000 N 
ATOM     24  H   UNL     1       1.508   7.900  20.603  0.00  0.00    +0.000 HD
BRANCH  23  25
ATOM     25  C   UNL     1       2.549   7.365  18.899  0.00  0.00    +0.000 A 
ATOM     26  C   UNL     1       3.287   7.824  17.802  0.00  0.00    +0.000 A 
ATOM     27  C   UNL     1       4.058   6.940  17.040  0.00  0.00    +0.000 A 
ATOM     28  C   UNL     1       4.080   5.584  17.355  0.00  0.00    +0.000 A 
ATOM     29  C   UNL     1       3.340   5.113  18.438  0.00  0.00    +0.000 A 
ATOM     30  C   UNL     1       2.590   6.001  19.220  0.00  0.00    +0.000 A 
ATOM     31 BR   UNL     1       1.559   5.287  20.645  0.00  0.00    +0.000 Br
ENDBRANCH  23  25
ENDBRANCH  20  21
ENDBRANCH   2  20
TORSDOF 6
ENDMDL
MODEL 9
REMARK VINA RESULT:      -7.4      2.353      4.753
REMARK  Name = 
REMARK  7 active torsions:
REMARK  status: ('A' for Active; 'I' for Inactive)
REMARK    1  A    between atoms: C_1  and  N_2
REMARK    2  A    between atoms: N_2  and  C_3
REMARK    3  A    between atoms: C_3  and  C_4
REMARK    4  A    between atoms: N_6  and  C_7
REMARK    5  A    between atoms: C_14  and  C_16
REMARK    6  A    between atoms: C_18  and  N_19
REMARK    7  A    between atoms: C_24  and  N_25
REMARK                            x       y       z     vdW  Elec       q    Type
REMARK                         _______ _______ _______ _____ _____    ______ ____
ROOT
ATOM      1  C   UNL     1       1.537   7.669  20.686  0.00  0.00    +0.000 C 
ATOM      2  N   UNL     1       2.358   7.246  19.557  0.00  0.00    +0.000 N 
ATOM      3  C   UNL     1       3.087   6.037  19.783  0.00  0.00    +0.000 C 
ATOM      4  O   UNL     1       2.927   5.407  20.829  0.00  0.00    +0.000 OA
ENDROOT
BRANCH   3   5
ATOM      5  C   UNL     1       4.051   5.444  18.795  0.00  0.00    +0.000 A 
ATOM      6  C   UNL     1       5.223   6.173  18.517  0.00  0.00    +0.000 A 
ATOM      7  C   UNL     1       6.160   5.742  17.572  0.00  0.00    +0.000 A 
ATOM      8  C   UNL     1       5.904   4.627  16.796  0.00  0.00    +0.000 A 
ATOM      9  C   UNL     1       4.708   3.943  16.994  0.00  0.00    +0.000 A 
ATOM     10  C   UNL     1       3.747   4.310  17.980  0.00  0.00    +0.000 A 
BRANCH  10  11
ATOM     11  N   UNL     1       2.636   3.480  18.041  0.00  0.00    +0.000 N 
ATOM     12  C   UNL     1       1.252   3.882  17.754  0.00  0.00    +0.000 C 
ATOM     13  C   UNL     1       0.321   3.139  18.731  0.00  0.00    +0.000 C 
ATOM     14  O   UNL     1       0.483   1.708  18.664  0.00  0.00    +0.000 OA
ATOM     15  C   UNL     1       1.846   1.334  18.921  0.00  0.00    +0.000 C 
ATOM     16  C   UNL     1       2.807   2.012  17.930  0.00  0.00    +0.000 C 
ENDBRANCH  10  11
BRANCH   7  17
ATOM     17  N   UNL     1       7.423   6.473  17.420  0.00  0.00    +0.000 N 
ATOM     18  O   UNL     1       8.012   6.809  18.458  0.00  0.00    +0.000 OA
ATOM     19  O   UNL     1       7.840   6.676  16.273  0.00  0.00    +0.000 OA
ENDBRANCH   7  17
ENDBRANCH   3   5
BRANCH   2  20
ATOM     20  C   UNL     1       2.150   7.950  18.268  0.00  0.00    +0.000 C 
BRANCH  20  21
ATOM     21  C   UNL     1       1.824   9.469  18.187  0.00  0.00    +0.000 C 
ATOM     22  O   UNL     1       2.460  10.265  17.502  0.00  0.00    +0.000 OA
ATOM     23  N   UNL     1       0.839   9.863  19.089  0.00  0.00    +0.000 N 
ATOM     24  H   UNL     1       0.738   9.310  19.934  0.00  0.00    +0.000 HD
BRANCH  23  25
ATOM     25  C   UNL     1       0.370  11.200  19.182  0.00  0.00    +0.000 A 
ATOM     26  C   UNL     1       1.091  12.165  19.895  0.00  0.00    +0.000 A 
ATOM     27  C   UNL     1       0.652  13.492  19.943  0.00  0.00    +0.000 A 
ATOM     28  C   UNL     1      -0.523  13.863  19.296  0.00  0.00    +0.000 A 
ATOM     29  C   UNL     1      -1.255  12.908  18.592  0.00  0.00    +0.000 A 
ATOM     30  C   UNL     1      -0.803  11.585  18.518  0.00  0.00    +0.000 A 
ATOM     31 BR   UNL     1      -1.877  10.323  17.592  0.00  0.00    +0.000 Br
ENDBRANCH  23  25
ENDBRANCH  20  21
ENDBRANCH   2  20
TORSDOF 6
ENDMDL
