MODEL 1
REMARK VINA RESULT:      -6.2      0.000      0.000
REMARK  Name = 
REMARK  5 active torsions:
REMARK  status: ('A' for Active; 'I' for Inactive)
REMARK    1  A    between atoms: C_1  and  C_2
REMARK    2  A    between atoms: C_7  and  N_8
REMARK    3  A    between atoms: C_11  and  C_12
REMARK    4  A    between atoms: C_14  and  C_15
REMARK    5  A    between atoms: C_17  and  C_18
REMARK                            x       y       z     vdW  Elec       q    Type
REMARK                         _______ _______ _______ _____ _____    ______ ____
ROOT
ATOM      1  N   UNL     1       4.916   4.939  17.648  0.00  0.00    +0.000 NA
ATOM      2  C   UNL     1       6.196   5.650  17.439  0.00  0.00    +0.000 C 
ATOM      3  C   UNL     1       5.977   6.551  16.237  0.00  0.00    +0.000 C 
ATOM      4  C   UNL     1       5.117   5.697  15.316  0.00  0.00    +0.000 C 
ATOM      5  C   UNL     1       4.424   4.703  16.261  0.00  0.00    +0.000 C 
ENDROOT
BRANCH   1  12
ATOM      6  C   UNL     1       1.434   2.294  21.669  0.00  0.00    +0.000 C 
ATOM      7  C   UNL     1       1.116   2.874  20.311  0.00  0.00    +0.000 C 
ATOM      8  O   UNL     1       0.015   2.663  19.801  0.00  0.00    +0.000 OA
ATOM      9  N   UNL     1       2.082   3.677  19.713  0.00  0.00    +0.000 N 
ATOM     10  C   UNL     1       3.469   3.754  20.159  0.00  0.00    +0.000 C 
ATOM     11  C   UNL     1       4.004   5.172  19.989  0.00  0.00    +0.000 C 
ATOM     12  C   UNL     1       3.952   5.651  18.519  0.00  0.00    +0.000 C 
ATOM     13  C   UNL     1       2.473   5.510  18.072  0.00  0.00    +0.000 C 
ATOM     14  C   UNL     1       1.850   4.139  18.348  0.00  0.00    +0.000 C 
ENDBRANCH   1  12
BRANCH   4  15
ATOM     15  C   UNL     1       5.977   5.018  14.276  0.00  0.00    +0.000 A 
ATOM     16  N   UNL     1       7.173   5.574  14.010  0.00  0.00    +0.000 NA
ATOM     17  C   UNL     1       7.871   5.085  12.972  0.00  0.00    +0.000 A 
ATOM     18  C   UNL     1       9.175   5.755  12.675  0.00  0.00    +0.000 C 
ATOM     19  C   UNL     1       7.404   4.043  12.200  0.00  0.00    +0.000 A 
ATOM     20  C   UNL     1       6.174   3.516  12.551  0.00  0.00    +0.000 A 
ATOM     21  C   UNL     1       5.557   2.404  11.759  0.00  0.00    +0.000 C 
ATOM     22  N   UNL     1       5.445   3.998  13.584  0.00  0.00    +0.000 NA
ENDBRANCH   4  15
TORSDOF 2
ENDMDL
MODEL 2
REMARK VINA RESULT:      -6.1      6.724      8.534
REMARK  Name = 
REMARK  5 active torsions:
REMARK  status: ('A' for Active; 'I' for Inactive)
REMARK    1  A    between atoms: C_1  and  C_2
REMARK    2  A    between atoms: C_7  and  N_8
REMARK    3  A    between atoms: C_11  and  C_12
REMARK    4  A    between atoms: C_14  and  C_15
REMARK    5  A    between atoms: C_17  and  C_18
REMARK                            x       y       z     vdW  Elec       q    Type
REMARK                         _______ _______ _______ _____ _____    ______ ____
ROOT
ATOM      1  N   UNL     1      -0.159  10.827  18.999  0.00  0.00    +0.000 NA
ATOM      2  C   UNL     1       1.174  11.130  19.565  0.00  0.00    +0.000 C 
ATOM      3  C   UNL     1       2.162  10.920  18.432  0.00  0.00    +0.000 C 
ATOM      4  C   UNL     1       1.608   9.699  17.711  0.00  0.00    +0.000 C 
ATOM      5  C   UNL     1       0.114   9.696  18.066  0.00  0.00    +0.000 C 
ENDROOT
BRANCH   1  12
ATOM      6  C   UNL     1      -5.292  13.153  20.875  0.00  0.00    +0.000 C 
ATOM      7  C   UNL     1      -4.976  12.284  19.681  0.00  0.00    +0.000 C 
ATOM      8  O   UNL     1      -5.895  11.791  19.025  0.00  0.00    +0.000 OA
ATOM      9  N   UNL     1      -3.636  12.120  19.342  0.00  0.00    +0.000 N 
ATOM     10  C   UNL     1      -2.524  12.477  20.216  0.00  0.00    +0.000 C 
ATOM     11  C   UNL     1      -1.355  13.013  19.397  0.00  0.00    +0.000 C 
ATOM     12  C   UNL     1      -0.835  11.982  18.365  0.00  0.00    +0.000 C 
ATOM     13  C   UNL     1      -2.055  11.598  17.488  0.00  0.00    +0.000 C 
ATOM     14  C   UNL     1      -3.301  11.182  18.275  0.00  0.00    +0.000 C 
ENDBRANCH   1  12
BRANCH   4  15
ATOM     15  C   UNL     1       2.325   8.451  18.169  0.00  0.00    +0.000 A 
ATOM     16  N   UNL     1       3.340   8.008  17.404  0.00  0.00    +0.000 NA
ATOM     17  C   UNL     1       3.871   6.811  17.704  0.00  0.00    +0.000 A 
ATOM     18  C   UNL     1       4.967   6.329  16.806  0.00  0.00    +0.000 C 
ATOM     19  C   UNL     1       3.416   6.051  18.760  0.00  0.00    +0.000 A 
ATOM     20  C   UNL     1       2.382   6.585  19.507  0.00  0.00    +0.000 A 
ATOM     21  C   UNL     1       1.789   5.828  20.656  0.00  0.00    +0.000 C 
ATOM     22  N   UNL     1       1.821   7.782  19.220  0.00  0.00    +0.000 NA
ENDBRANCH   4  15
TORSDOF 2
ENDMDL
MODEL 3
REMARK VINA RESULT:      -6.0      1.086      1.400
REMARK  Name = 
REMARK  5 active torsions:
REMARK  status: ('A' for Active; 'I' for Inactive)
REMARK    1  A    between atoms: C_1  and  C_2
REMARK    2  A    between atoms: C_7  and  N_8
REMARK    3  A    between atoms: C_11  and  C_12
REMARK    4  A    between atoms: C_14  and  C_15
REMARK    5  A    between atoms: C_17  and  C_18
REMARK                            x       y       z     vdW  Elec       q    Type
REMARK                         _______ _______ _______ _____ _____    ______ ____
ROOT
ATOM      1  N   UNL     1       4.690   5.607  16.891  0.00  0.00    +0.000 NA
ATOM      2  C   UNL     1       4.642   4.167  16.554  0.00  0.00    +0.000 C 
ATOM      3  C   UNL     1       6.087   3.705  16.510  0.00  0.00    +0.000 C 
ATOM      4  C   UNL     1       6.808   4.884  15.870  0.00  0.00    +0.000 C 
ATOM      5  C   UNL     1       5.902   6.088  16.169  0.00  0.00    +0.000 C 
ENDROOT
BRANCH   1  12
ATOM      6  C   UNL     1       1.683   2.490  20.956  0.00  0.00    +0.000 C 
ATOM      7  C   UNL     1       1.424   3.854  20.363  0.00  0.00    +0.000 C 
ATOM      8  O   UNL     1       0.348   4.417  20.575  0.00  0.00    +0.000 OA
ATOM      9  N   UNL     1       2.451   4.444  19.634  0.00  0.00    +0.000 N 
ATOM     10  C   UNL     1       3.630   3.727  19.159  0.00  0.00    +0.000 C 
ATOM     11  C   UNL     1       4.858   4.630  19.211  0.00  0.00    +0.000 C 
ATOM     12  C   UNL     1       4.695   5.900  18.343  0.00  0.00    +0.000 C 
ATOM     13  C   UNL     1       3.410   6.606  18.850  0.00  0.00    +0.000 C 
ATOM     14  C   UNL     1       2.179   5.701  18.944  0.00  0.00    +0.000 C 
ENDBRANCH   1  12
BRANCH   4  15
ATOM     15  C   UNL     1       6.996   4.642  14.391  0.00  0.00    +0.000 A 
ATOM     16  N   UNL     1       7.743   5.533  13.712  0.00  0.00    +0.000 NA
ATOM     17  C   UNL     1       7.777   5.428  12.374  0.00  0.00    +0.000 A 
ATOM     18  C   UNL     1       8.580   6.461  11.648  0.00  0.00    +0.000 C 
ATOM     19  C   UNL     1       7.088   4.444  11.698  0.00  0.00    +0.000 A 
ATOM     20  C   UNL     1       6.358   3.558  12.470  0.00  0.00    +0.000 A 
ATOM     21  C   UNL     1       5.545   2.471  11.835  0.00  0.00    +0.000 C 
ATOM     22  N   UNL     1       6.297   3.649  13.818  0.00  0.00    +0.000 NA
ENDBRANCH   4  15
TORSDOF 2
ENDMDL
MODEL 4
REMARK VINA RESULT:      -5.9      1.104      1.232
REMARK  Name = 
REMARK  5 active torsions:
REMARK  status: ('A' for Active; 'I' for Inactive)
REMARK    1  A    between atoms: C_1  and  C_2
REMARK    2  A    between atoms: C_7  and  N_8
REMARK    3  A    between atoms: C_11  and  C_12
REMARK    4  A    between atoms: C_14  and  C_15
REMARK    5  A    between atoms: C_17  and  C_18
REMARK                            x       y       z     vdW  Elec       q    Type
REMARK                         _______ _______ _______ _____ _____    ______ ____
ROOT
ATOM      1  N   UNL     1       6.155   4.372  17.909  0.00  0.00    +0.000 NA
ATOM      2  C   UNL     1       7.078   5.432  17.449  0.00  0.00    +0.000 C 
ATOM      3  C   UNL     1       6.317   6.215  16.395  0.00  0.00    +0.000 C 
ATOM      4  C   UNL     1       5.545   5.134  15.651  0.00  0.00    +0.000 C 
ATOM      5  C   UNL     1       5.427   3.987  16.666  0.00  0.00    +0.000 C 
ENDROOT
BRANCH   1  12
ATOM      6  C   UNL     1       1.050   1.661  19.280  0.00  0.00    +0.000 C 
ATOM      7  C   UNL     1       1.318   2.987  18.608  0.00  0.00    +0.000 C 
ATOM      8  O   UNL     1       0.391   3.599  18.075  0.00  0.00    +0.000 OA
ATOM      9  N   UNL     1       2.615   3.487  18.669  0.00  0.00    +0.000 N 
ATOM     10  C   UNL     1       3.776   2.699  19.068  0.00  0.00    +0.000 C 
ATOM     11  C   UNL     1       4.761   3.561  19.850  0.00  0.00    +0.000 C 
ATOM     12  C   UNL     1       5.270   4.769  19.028  0.00  0.00    +0.000 C 
ATOM     13  C   UNL     1       4.006   5.553  18.587  0.00  0.00    +0.000 C 
ATOM     14  C   UNL     1       2.927   4.699  17.916  0.00  0.00    +0.000 C 
ENDBRANCH   1  12
BRANCH   4  15
ATOM     15  C   UNL     1       6.282   4.735  14.394  0.00  0.00    +0.000 A 
ATOM     16  N   UNL     1       7.343   5.484  14.040  0.00  0.00    +0.000 NA
ATOM     17  C   UNL     1       7.901   5.248  12.841  0.00  0.00    +0.000 A 
ATOM     18  C   UNL     1       9.049   6.127  12.459  0.00  0.00    +0.000 C 
ATOM     19  C   UNL     1       7.427   4.271  11.992  0.00  0.00    +0.000 A 
ATOM     20  C   UNL     1       6.344   3.535  12.438  0.00  0.00    +0.000 A 
ATOM     21  C   UNL     1       5.729   2.472  11.580  0.00  0.00    +0.000 C 
ATOM     22  N   UNL     1       5.756   3.760  13.635  0.00  0.00    +0.000 NA
ENDBRANCH   4  15
TORSDOF 2
ENDMDL
MODEL 5
REMARK VINA RESULT:      -5.8      5.320      7.147
REMARK  Name = 
REMARK  5 active torsions:
REMARK  status: ('A' for Active; 'I' for Inactive)
REMARK    1  A    between atoms: C_1  and  C_2
REMARK    2  A    between atoms: C_7  and  N_8
REMARK    3  A    between atoms: C_11  and  C_12
REMARK    4  A    between atoms: C_14  and  C_15
REMARK    5  A    between atoms: C_17  and  C_18
REMARK                            x       y       z     vdW  Elec       q    Type
REMARK                         _______ _______ _______ _____ _____    ______ ____
ROOT
ATOM      1  N   UNL     1       1.788   9.032  19.422  0.00  0.00    +0.000 NA
ATOM      2  C   UNL     1       2.490   9.003  18.120  0.00  0.00    +0.000 C 
ATOM      3  C   UNL     1       2.112   7.683  17.475  0.00  0.00    +0.000 C 
ATOM      4  C   UNL     1       2.093   6.716  18.651  0.00  0.00    +0.000 C 
ATOM      5  C   UNL     1       1.844   7.613  19.873  0.00  0.00    +0.000 C 
ENDROOT
BRANCH   1  12
ATOM      6  C   UNL     1       0.342  14.509  21.210  0.00  0.00    +0.000 C 
ATOM      7  C   UNL     1       0.101  13.162  21.850  0.00  0.00    +0.000 C 
ATOM      8  O   UNL     1      -0.309  13.103  23.010  0.00  0.00    +0.000 OA
ATOM      9  N   UNL     1       0.309  12.032  21.065  0.00  0.00    +0.000 N 
ATOM     10  C   UNL     1       1.015  12.043  19.788  0.00  0.00    +0.000 C 
ATOM     11  C   UNL     1       0.386  11.043  18.824  0.00  0.00    +0.000 C 
ATOM     12  C   UNL     1       0.419   9.596  19.370  0.00  0.00    +0.000 C 
ATOM     13  C   UNL     1      -0.300   9.637  20.744  0.00  0.00    +0.000 C 
ATOM     14  C   UNL     1       0.209  10.721  21.699  0.00  0.00    +0.000 C 
ENDBRANCH   1  12
BRANCH   4  15
ATOM     15  C   UNL     1       3.400   5.962  18.730  0.00  0.00    +0.000 A 
ATOM     16  N   UNL     1       4.455   6.491  18.083  0.00  0.00    +0.000 NA
ATOM     17  C   UNL     1       5.572   5.750  18.001  0.00  0.00    +0.000 A 
ATOM     18  C   UNL     1       6.710   6.349  17.237  0.00  0.00    +0.000 C 
ATOM     19  C   UNL     1       5.661   4.494  18.562  0.00  0.00    +0.000 A 
ATOM     20  C   UNL     1       4.539   4.030  19.224  0.00  0.00    +0.000 A 
ATOM     21  C   UNL     1       4.516   2.665  19.840  0.00  0.00    +0.000 C 
ATOM     22  N   UNL     1       3.397   4.751  19.311  0.00  0.00    +0.000 NA
ENDBRANCH   4  15
TORSDOF 2
ENDMDL
MODEL 6
REMARK VINA RESULT:      -5.8      3.212      7.390
REMARK  Name = 
REMARK  5 active torsions:
REMARK  status: ('A' for Active; 'I' for Inactive)
REMARK    1  A    between atoms: C_1  and  C_2
REMARK    2  A    between atoms: C_7  and  N_8
REMARK    3  A    between atoms: C_11  and  C_12
REMARK    4  A    between atoms: C_14  and  C_15
REMARK    5  A    between atoms: C_17  and  C_18
REMARK                            x       y       z     vdW  Elec       q    Type
REMARK                         _______ _______ _______ _____ _____    ______ ____
ROOT
ATOM      1  N   UNL     1       5.437   5.637  17.878  0.00  0.00    +0.000 NA
ATOM      2  C   UNL     1       5.368   5.821  19.345  0.00  0.00    +0.000 C 
ATOM      3  C   UNL     1       4.025   5.258  19.769  0.00  0.00    +0.000 C 
ATOM      4  C   UNL     1       3.098   5.684  18.639  0.00  0.00    +0.000 C 
ATOM      5  C   UNL     1       4.034   5.879  17.437  0.00  0.00    +0.000 C 
ENDROOT
BRANCH   1  12
ATOM      6  C   UNL     1       7.477   4.497  12.417  0.00  0.00    +0.000 C 
ATOM      7  C   UNL     1       6.198   4.081  13.104  0.00  0.00    +0.000 C 
ATOM      8  O   UNL     1       5.296   3.558  12.447  0.00  0.00    +0.000 OA
ATOM      9  N   UNL     1       6.117   4.267  14.480  0.00  0.00    +0.000 N 
ATOM     10  C   UNL     1       7.044   5.092  15.248  0.00  0.00    +0.000 C 
ATOM     11  C   UNL     1       7.292   4.476  16.621  0.00  0.00    +0.000 C 
ATOM     12  C   UNL     1       5.990   4.333  17.447  0.00  0.00    +0.000 C 
ATOM     13  C   UNL     1       5.020   3.491  16.578  0.00  0.00    +0.000 C 
ATOM     14  C   UNL     1       4.845   3.995  15.143  0.00  0.00    +0.000 C 
ENDBRANCH   1  12
BRANCH   4  15
ATOM     15  C   UNL     1       2.355   6.944  19.017  0.00  0.00    +0.000 A 
ATOM     16  N   UNL     1       2.384   7.961  18.137  0.00  0.00    +0.000 NA
ATOM     17  C   UNL     1       1.876   9.141  18.530  0.00  0.00    +0.000 A 
ATOM     18  C   UNL     1       1.964  10.263  17.544  0.00  0.00    +0.000 C 
ATOM     19  C   UNL     1       1.330   9.323  19.783  0.00  0.00    +0.000 A 
ATOM     20  C   UNL     1       1.324   8.222  20.621  0.00  0.00    +0.000 A 
ATOM     21  C   UNL     1       0.786   8.319  22.016  0.00  0.00    +0.000 C 
ATOM     22  N   UNL     1       1.839   7.027  20.254  0.00  0.00    +0.000 NA
ENDBRANCH   4  15
TORSDOF 2
ENDMDL
MODEL 7
REMARK VINA RESULT:      -5.7      7.561      9.515
REMARK  Name = 
REMARK  5 active torsions:
REMARK  status: ('A' for Active; 'I' for Inactive)
REMARK    1  A    between atoms: C_1  and  C_2
REMARK    2  A    between atoms: C_7  and  N_8
REMARK    3  A    between atoms: C_11  and  C_12
REMARK    4  A    between atoms: C_14  and  C_15
REMARK    5  A    between atoms: C_17  and  C_18
REMARK                            x       y       z     vdW  Elec       q    Type
REMARK                         _______ _______ _______ _____ _____    ______ ____
ROOT
ATOM      1  N   UNL     1       1.672  11.310  19.508  0.00  0.00    +0.000 NA
ATOM      2  C   UNL     1       1.178  12.343  20.446  0.00  0.00    +0.000 C 
ATOM      3  C   UNL     1       0.572  13.431  19.580  0.00  0.00    +0.000 C 
ATOM      4  C   UNL     1       1.521  13.497  18.391  0.00  0.00    +0.000 C 
ATOM      5  C   UNL     1       2.177  12.108  18.355  0.00  0.00    +0.000 C 
ENDROOT
BRANCH   1  12
ATOM      6  C   UNL     1       2.228   5.511  20.668  0.00  0.00    +0.000 C 
ATOM      7  C   UNL     1       2.373   6.281  19.377  0.00  0.00    +0.000 C 
ATOM      8  O   UNL     1       2.843   5.724  18.384  0.00  0.00    +0.000 OA
ATOM      9  N   UNL     1       1.913   7.595  19.358  0.00  0.00    +0.000 N 
ATOM     10  C   UNL     1       1.581   8.361  20.554  0.00  0.00    +0.000 C 
ATOM     11  C   UNL     1       0.393   9.278  20.284  0.00  0.00    +0.000 C 
ATOM     12  C   UNL     1       0.671  10.283  19.140  0.00  0.00    +0.000 C 
ATOM     13  C   UNL     1       1.063   9.431  17.905  0.00  0.00    +0.000 C 
ATOM     14  C   UNL     1       2.162   8.398  18.164  0.00  0.00    +0.000 C 
ENDBRANCH   1  12
BRANCH   4  15
ATOM     15  C   UNL     1       2.520  14.614  18.579  0.00  0.00    +0.000 A 
ATOM     16  N   UNL     1       3.780  14.389  18.164  0.00  0.00    +0.000 NA
ATOM     17  C   UNL     1       4.714  15.302  18.479  0.00  0.00    +0.000 A 
ATOM     18  C   UNL     1       6.112  14.999  18.042  0.00  0.00    +0.000 C 
ATOM     19  C   UNL     1       4.412  16.443  19.190  0.00  0.00    +0.000 A 
ATOM     20  C   UNL     1       3.090  16.609  19.564  0.00  0.00    +0.000 A 
ATOM     21  C   UNL     1       2.659  17.796  20.370  0.00  0.00    +0.000 C 
ATOM     22  N   UNL     1       2.133  15.699  19.271  0.00  0.00    +0.000 NA
ENDBRANCH   4  15
TORSDOF 2
ENDMDL
MODEL 8
REMARK VINA RESULT:      -5.7      5.241      8.242
REMARK  Name = 
REMARK  5 active torsions:
REMARK  status: ('A' for Active; 'I' for Inactive)
REMARK    1  A    between atoms: C_1  and  C_2
REMARK    2  A    between atoms: C_7  and  N_8
REMARK    3  A    between atoms: C_11  and  C_12
REMARK    4  A    between atoms: C_14  and  C_15
REMARK    5  A    between atoms: C_17  and  C_18
REMARK                            x       y       z     vdW  Elec       q    Type
REMARK                         _______ _______ _______ _____ _____    ______ ____
ROOT
ATOM      1  N   UNL     1       1.582   7.688  18.943  0.00  0.00    +0.000 NA
ATOM      2  C   UNL     1       1.776   8.474  17.705  0.00  0.00    +0.000 C 
ATOM      3  C   UNL     1       2.300   9.826  18.153  0.00  0.00    +0.000 C 
ATOM      4  C   UNL     1       1.512  10.099  19.427  0.00  0.00    +0.000 C 
ATOM      5  C   UNL     1       1.104   8.703  19.924  0.00  0.00    +0.000 C 
ENDROOT
BRANCH   1  12
ATOM      6  C   UNL     1       2.626   1.983  17.660  0.00  0.00    +0.000 C 
ATOM      7  C   UNL     1       2.179   2.644  18.942  0.00  0.00    +0.000 C 
ATOM      8  O   UNL     1       1.784   1.950  19.880  0.00  0.00    +0.000 OA
ATOM      9  N   UNL     1       2.285   4.029  19.022  0.00  0.00    +0.000 N 
ATOM     10  C   UNL     1       2.512   4.897  17.871  0.00  0.00    +0.000 C 
ATOM     11  C   UNL     1       3.399   6.075  18.261  0.00  0.00    +0.000 C 
ATOM     12  C   UNL     1       2.777   6.935  19.388  0.00  0.00    +0.000 C 
ATOM     13  C   UNL     1       2.511   5.967  20.571  0.00  0.00    +0.000 C 
ATOM     14  C   UNL     1       1.739   4.699  20.197  0.00  0.00    +0.000 C 
ENDBRANCH   1  12
BRANCH   4  15
ATOM     15  C   UNL     1       0.328  10.988  19.130  0.00  0.00    +0.000 A 
ATOM     16  N   UNL     1      -0.799  10.389  18.703  0.00  0.00    +0.000 NA
ATOM     17  C   UNL     1      -1.800  11.176  18.274  0.00  0.00    +0.000 A 
ATOM     18  C   UNL     1      -3.020  10.477  17.764  0.00  0.00    +0.000 C 
ATOM     19  C   UNL     1      -1.702  12.551  18.272  0.00  0.00    +0.000 A 
ATOM     20  C   UNL     1      -0.518  13.088  18.744  0.00  0.00    +0.000 A 
ATOM     21  C   UNL     1      -0.293  14.569  18.754  0.00  0.00    +0.000 C 
ATOM     22  N   UNL     1       0.510  12.318  19.170  0.00  0.00    +0.000 NA
ENDBRANCH   4  15
TORSDOF 2
ENDMDL
MODEL 9
REMARK VINA RESULT:      -5.7      5.167      8.140
REMARK  Name = 
REMARK  5 active torsions:
REMARK  status: ('A' for Active; 'I' for Inactive)
REMARK    1  A    between atoms: C_1  and  C_2
REMARK    2  A    between atoms: C_7  and  N_8
REMARK    3  A    between atoms: C_11  and  C_12
REMARK    4  A    between atoms: C_14  and  C_15
REMARK    5  A    between atoms: C_17  and  C_18
REMARK                            x       y       z     vdW  Elec       q    Type
REMARK                         _______ _______ _______ _____ _____    ______ ____
ROOT
ATOM      1  N   UNL     1       1.763   7.707  18.454  0.00  0.00    +0.000 NA
ATOM      2  C   UNL     1       2.036   8.766  17.458  0.00  0.00    +0.000 C 
ATOM      3  C   UNL     1       2.165  10.055  18.250  0.00  0.00    +0.000 C 
ATOM      4  C   UNL     1       1.096   9.910  19.324  0.00  0.00    +0.000 C 
ATOM      5  C   UNL     1       0.895   8.392  19.454  0.00  0.00    +0.000 C 
ENDROOT
BRANCH   1  12
ATOM      6  C   UNL     1       3.148   1.955  17.926  0.00  0.00    +0.000 C 
ATOM      7  C   UNL     1       2.611   2.741  19.099  0.00  0.00    +0.000 C 
ATOM      8  O   UNL     1       2.210   2.145  20.100  0.00  0.00    +0.000 OA
ATOM      9  N   UNL     1       2.644   4.129  19.011  0.00  0.00    +0.000 N 
ATOM     10  C   UNL     1       2.879   4.863  17.772  0.00  0.00    +0.000 C 
ATOM     11  C   UNL     1       3.687   6.127  18.047  0.00  0.00    +0.000 C 
ATOM     12  C   UNL     1       2.973   7.081  19.034  0.00  0.00    +0.000 C 
ATOM     13  C   UNL     1       2.703   6.251  20.316  0.00  0.00    +0.000 C 
ATOM     14  C   UNL     1       2.012   4.906  20.073  0.00  0.00    +0.000 C 
ENDBRANCH   1  12
BRANCH   4  15
ATOM     15  C   UNL     1      -0.163  10.637  18.912  0.00  0.00    +0.000 A 
ATOM     16  N   UNL     1      -0.577  11.644  19.703  0.00  0.00    +0.000 NA
ATOM     17  C   UNL     1      -1.780  12.184  19.446  0.00  0.00    +0.000 A 
ATOM     18  C   UNL     1      -2.230  13.271  20.371  0.00  0.00    +0.000 C 
ATOM     19  C   UNL     1      -2.574  11.746  18.408  0.00  0.00    +0.000 A 
ATOM     20  C   UNL     1      -2.068  10.719  17.632  0.00  0.00    +0.000 A 
ATOM     21  C   UNL     1      -2.862  10.143  16.500  0.00  0.00    +0.000 C 
ATOM     22  N   UNL     1      -0.865  10.149  17.877  0.00  0.00    +0.000 NA
ENDBRANCH   4  15
TORSDOF 2
ENDMDL
