MODEL 1
REMARK VINA RESULT:      -8.0      0.000      0.000
REMARK  Name = 
REMARK  12 active torsions:
REMARK  status: ('A' for Active; 'I' for Inactive)
REMARK    1  A    between atoms: C_1  and  C_2
REMARK    2  A    between atoms: C_2  and  O_4
REMARK    3  A    between atoms: O_4  and  C_5
REMARK    4  A    between atoms: C_5  and  O_6
REMARK    5  A    between atoms: O_6  and  C_7
REMARK    6  A    between atoms: C_7  and  C_9
REMARK    7  A    between atoms: C_12  and  C_13
REMARK    8  A    between atoms: N_15  and  N_16
REMARK    9  A    between atoms: C_17  and  C_18
REMARK   10  A    between atoms: C_29  and  N_30
REMARK   11  A    between atoms: C_31  and  C_32
REMARK   12  A    between atoms: C_35  and  C_36
REMARK                            x       y       z     vdW  Elec       q    Type
REMARK                         _______ _______ _______ _____ _____    ______ ____
ROOT
ATOM      1  C   UNL     1       3.468   3.883  18.879  0.00  0.00    +0.000 A 
ATOM      2  C   UNL     1       2.207   4.141  19.457  0.00  0.00    +0.000 A 
ATOM      3  C   UNL     1       1.732   5.443  19.606  0.00  0.00    +0.000 A 
ATOM      4  C   UNL     1       2.495   6.523  19.160  0.00  0.00    +0.000 A 
ATOM      5  C   UNL     1       3.689   6.264  18.478  0.00  0.00    +0.000 A 
ATOM      6  C   UNL     1       4.220   4.954  18.355  0.00  0.00    +0.000 A 
ENDROOT
BRANCH   6   7
ATOM      7  N   UNL     1       5.497   4.794  17.699  0.00  0.00    +0.000 N 
ATOM      8  C   UNL     1       6.777   5.026  18.227  0.00  0.00    +0.000 A 
ATOM      9  C   UNL     1       7.133   5.389  19.631  0.00  0.00    +0.000 C 
ATOM     10  C   UNL     1       7.708   4.815  17.226  0.00  0.00    +0.000 A 
ATOM     11  C   UNL     1       7.035   4.348  16.095  0.00  0.00    +0.000 A 
ATOM     12  C   UNL     1       5.685   4.321  16.385  0.00  0.00    +0.000 A 
ATOM     13  C   UNL     1       4.613   3.960  15.407  0.00  0.00    +0.000 C 
ENDBRANCH   6   7
BRANCH   4  14
ATOM     14  C   UNL     1       1.972   7.901  19.398  0.00  0.00    +0.000 C 
ATOM     15  O   UNL     1       2.038   8.709  18.470  0.00  0.00    +0.000 OA
ATOM     16  N   UNL     1       1.390   8.173  20.636  0.00  0.00    +0.000 N 
ATOM     17  H   UNL     1       1.278   7.465  21.352  0.00  0.00    +0.000 HD
BRANCH  16  18
ATOM     18  N   UNL     1       0.856   9.422  20.836  0.00  0.00    +0.000 NA
ATOM     19  C   UNL     1      -0.009   9.575  21.791  0.00  0.00    +0.000 C 
BRANCH  19  20
ATOM     20  C   UNL     1      -0.593  10.909  22.094  0.00  0.00    +0.000 A 
ATOM     21  C   UNL     1       0.067  12.069  21.721  0.00  0.00    +0.000 A 
ATOM     22  C   UNL     1      -0.472  13.280  22.133  0.00  0.00    +0.000 A 
ATOM     23  C   UNL     1      -1.638  13.282  22.905  0.00  0.00    +0.000 A 
ATOM     24  C   UNL     1      -2.191  14.475  23.395  0.00  0.00    +0.000 A 
ATOM     25  C   UNL     1      -3.337  14.433  24.166  0.00  0.00    +0.000 A 
ATOM     26  C   UNL     1      -3.895  13.190  24.411  0.00  0.00    +0.000 A 
ATOM     27  N   UNL     1      -3.381  12.025  23.945  0.00  0.00    +0.000 NA
ATOM     28  C   UNL     1      -2.264  12.054  23.212  0.00  0.00    +0.000 A 
ATOM     29  N   UNL     1      -1.746  10.889  22.802  0.00  0.00    +0.000 NA
ENDBRANCH  19  20
ENDBRANCH  16  18
ENDBRANCH   4  14
BRANCH   1  30
ATOM     30  C   UNL     1       3.972   2.494  19.052  0.00  0.00    +0.000 C 
ATOM     31  O   UNL     1       3.673   1.557  18.334  0.00  0.00    +0.000 OA
BRANCH  30  32
ATOM     32  O   UNL     1       4.830   2.474  20.098  0.00  0.00    +0.000 OA
BRANCH  32  33
ATOM     33  C   UNL     1       4.671   1.404  21.033  0.00  0.00    +0.000 C 
BRANCH  33  34
ATOM     34  O   UNL     1       5.779   0.504  20.923  0.00  0.00    +0.000 OA
BRANCH  34  36
ATOM     35  C   UNL     1       6.149  -1.296  22.371  0.00  0.00    +0.000 C 
ATOM     36  C   UNL     1       6.352   0.165  22.108  0.00  0.00    +0.000 C 
ATOM     37  O   UNL     1       6.957   0.920  22.852  0.00  0.00    +0.000 OA
ENDBRANCH  34  36
ENDBRANCH  33  34
ENDBRANCH  32  33
ENDBRANCH  30  32
ENDBRANCH   1  30
TORSDOF 9
ENDMDL
MODEL 2
REMARK VINA RESULT:      -8.0      2.615      3.100
REMARK  Name = 
REMARK  12 active torsions:
REMARK  status: ('A' for Active; 'I' for Inactive)
REMARK    1  A    between atoms: C_1  and  C_2
REMARK    2  A    between atoms: C_2  and  O_4
REMARK    3  A    between atoms: O_4  and  C_5
REMARK    4  A    between atoms: C_5  and  O_6
REMARK    5  A    between atoms: O_6  and  C_7
REMARK    6  A    between atoms: C_7  and  C_9
REMARK    7  A    between atoms: C_12  and  C_13
REMARK    8  A    between atoms: N_15  and  N_16
REMARK    9  A    between atoms: C_17  and  C_18
REMARK   10  A    between atoms: C_29  and  N_30
REMARK   11  A    between atoms: C_31  and  C_32
REMARK   12  A    between atoms: C_35  and  C_36
REMARK                            x       y       z     vdW  Elec       q    Type
REMARK                         _______ _______ _______ _____ _____    ______ ____
ROOT
ATOM      1  C   UNL     1       3.013   4.444  17.532  0.00  0.00    +0.000 A 
ATOM      2  C   UNL     1       1.694   4.894  17.747  0.00  0.00    +0.000 A 
ATOM      3  C   UNL     1       1.414   6.247  17.940  0.00  0.00    +0.000 A 
ATOM      4  C   UNL     1       2.442   7.189  17.901  0.00  0.00    +0.000 A 
ATOM      5  C   UNL     1       3.731   6.760  17.567  0.00  0.00    +0.000 A 
ATOM      6  C   UNL     1       4.055   5.387  17.414  0.00  0.00    +0.000 A 
ENDROOT
BRANCH   6   7
ATOM      7  N   UNL     1       5.430   5.035  17.144  0.00  0.00    +0.000 N 
ATOM      8  C   UNL     1       6.003   4.657  15.919  0.00  0.00    +0.000 A 
ATOM      9  C   UNL     1       5.351   4.632  14.576  0.00  0.00    +0.000 C 
ATOM     10  C   UNL     1       7.331   4.338  16.136  0.00  0.00    +0.000 A 
ATOM     11  C   UNL     1       7.633   4.614  17.472  0.00  0.00    +0.000 A 
ATOM     12  C   UNL     1       6.477   5.053  18.087  0.00  0.00    +0.000 A 
ATOM     13  C   UNL     1       6.357   5.372  19.543  0.00  0.00    +0.000 C 
ENDBRANCH   6   7
BRANCH   4  14
ATOM     14  C   UNL     1       2.101   8.616  18.175  0.00  0.00    +0.000 C 
ATOM     15  O   UNL     1       2.372   9.448  17.308  0.00  0.00    +0.000 OA
ATOM     16  N   UNL     1       1.447   8.911  19.371  0.00  0.00    +0.000 N 
ATOM     17  H   UNL     1       1.166   8.195  20.030  0.00  0.00    +0.000 HD
BRANCH  16  18
ATOM     18  N   UNL     1       1.080  10.215  19.599  0.00  0.00    +0.000 NA
ATOM     19  C   UNL     1      -0.131  10.573  19.301  0.00  0.00    +0.000 C 
BRANCH  19  20
ATOM     20  C   UNL     1      -0.611  11.957  19.565  0.00  0.00    +0.000 A 
ATOM     21  C   UNL     1       0.202  13.048  19.302  0.00  0.00    +0.000 A 
ATOM     22  C   UNL     1      -0.260  14.302  19.677  0.00  0.00    +0.000 A 
ATOM     23  C   UNL     1      -1.505  14.413  20.303  0.00  0.00    +0.000 A 
ATOM     24  C   UNL     1      -1.993  15.650  20.753  0.00  0.00    +0.000 A 
ATOM     25  C   UNL     1      -3.222  15.716  21.380  0.00  0.00    +0.000 A 
ATOM     26  C   UNL     1      -3.926  14.533  21.525  0.00  0.00    +0.000 A 
ATOM     27  N   UNL     1      -3.479  13.328  21.096  0.00  0.00    +0.000 NA
ATOM     28  C   UNL     1      -2.283  13.252  20.502  0.00  0.00    +0.000 A 
ATOM     29  N   UNL     1      -1.838  12.045  20.129  0.00  0.00    +0.000 NA
ENDBRANCH  19  20
ENDBRANCH  16  18
ENDBRANCH   4  14
BRANCH   1  30
ATOM     30  C   UNL     1       3.206   2.973  17.638  0.00  0.00    +0.000 C 
ATOM     31  O   UNL     1       4.258   2.398  17.430  0.00  0.00    +0.000 OA
BRANCH  30  32
ATOM     32  O   UNL     1       2.041   2.413  18.038  0.00  0.00    +0.000 OA
BRANCH  32  33
ATOM     33  C   UNL     1       2.021   1.852  19.354  0.00  0.00    +0.000 C 
BRANCH  33  34
ATOM     34  O   UNL     1       1.070   2.557  20.159  0.00  0.00    +0.000 OA
BRANCH  34  36
ATOM     35  C   UNL     1       2.243   4.296  21.198  0.00  0.00    +0.000 C 
ATOM     36  C   UNL     1       1.548   2.978  21.361  0.00  0.00    +0.000 C 
ATOM     37  O   UNL     1       1.428   2.391  22.424  0.00  0.00    +0.000 OA
ENDBRANCH  34  36
ENDBRANCH  33  34
ENDBRANCH  32  33
ENDBRANCH  30  32
ENDBRANCH   1  30
TORSDOF 9
ENDMDL
MODEL 3
REMARK VINA RESULT:      -8.0      2.353      2.651
REMARK  Name = 
REMARK  12 active torsions:
REMARK  status: ('A' for Active; 'I' for Inactive)
REMARK    1  A    between atoms: C_1  and  C_2
REMARK    2  A    between atoms: C_2  and  O_4
REMARK    3  A    between atoms: O_4  and  C_5
REMARK    4  A    between atoms: C_5  and  O_6
REMARK    5  A    between atoms: O_6  and  C_7
REMARK    6  A    between atoms: C_7  and  C_9
REMARK    7  A    between atoms: C_12  and  C_13
REMARK    8  A    between atoms: N_15  and  N_16
REMARK    9  A    between atoms: C_17  and  C_18
REMARK   10  A    between atoms: C_29  and  N_30
REMARK   11  A    between atoms: C_31  and  C_32
REMARK   12  A    between atoms: C_35  and  C_36
REMARK                            x       y       z     vdW  Elec       q    Type
REMARK                         _______ _______ _______ _____ _____    ______ ____
ROOT
ATOM      1  C   UNL     1       3.060   4.471  17.674  0.00  0.00    +0.000 A 
ATOM      2  C   UNL     1       1.740   4.904  17.919  0.00  0.00    +0.000 A 
ATOM      3  C   UNL     1       1.439   6.258  18.068  0.00  0.00    +0.000 A 
ATOM      4  C   UNL     1       2.445   7.217  17.954  0.00  0.00    +0.000 A 
ATOM      5  C   UNL     1       3.730   6.800  17.590  0.00  0.00    +0.000 A 
ATOM      6  C   UNL     1       4.077   5.428  17.480  0.00  0.00    +0.000 A 
ENDROOT
BRANCH   6   7
ATOM      7  N   UNL     1       5.448   5.092  17.175  0.00  0.00    +0.000 N 
ATOM      8  C   UNL     1       6.555   5.097  18.038  0.00  0.00    +0.000 A 
ATOM      9  C   UNL     1       6.561   5.345  19.511  0.00  0.00    +0.000 C 
ATOM     10  C   UNL     1       7.684   4.780  17.306  0.00  0.00    +0.000 A 
ATOM     11  C   UNL     1       7.286   4.469  16.004  0.00  0.00    +0.000 A 
ATOM     12  C   UNL     1       5.918   4.646  15.923  0.00  0.00    +0.000 A 
ATOM     13  C   UNL     1       5.114   4.498  14.671  0.00  0.00    +0.000 C 
ENDBRANCH   6   7
BRANCH   4  14
ATOM     14  C   UNL     1       2.085   8.648  18.183  0.00  0.00    +0.000 C 
ATOM     15  O   UNL     1       2.358   9.458  17.295  0.00  0.00    +0.000 OA
ATOM     16  N   UNL     1       1.412   8.969  19.362  0.00  0.00    +0.000 N 
ATOM     17  H   UNL     1       1.131   8.269  20.037  0.00  0.00    +0.000 HD
BRANCH  16  18
ATOM     18  N   UNL     1       1.028  10.274  19.547  0.00  0.00    +0.000 NA
ATOM     19  C   UNL     1      -0.224  10.575  19.389  0.00  0.00    +0.000 C 
BRANCH  19  20
ATOM     20  C   UNL     1      -0.719  11.959  19.620  0.00  0.00    +0.000 A 
ATOM     21  C   UNL     1       0.115  13.048  19.424  0.00  0.00    +0.000 A 
ATOM     22  C   UNL     1      -0.370  14.303  19.767  0.00  0.00    +0.000 A 
ATOM     23  C   UNL     1      -1.659  14.416  20.296  0.00  0.00    +0.000 A 
ATOM     24  C   UNL     1      -2.176  15.653  20.712  0.00  0.00    +0.000 A 
ATOM     25  C   UNL     1      -3.449  15.721  21.243  0.00  0.00    +0.000 A 
ATOM     26  C   UNL     1      -4.166  14.540  21.330  0.00  0.00    +0.000 A 
ATOM     27  N   UNL     1      -3.691  13.335  20.932  0.00  0.00    +0.000 NA
ATOM     28  C   UNL     1      -2.454  13.256  20.432  0.00  0.00    +0.000 A 
ATOM     29  N   UNL     1      -1.985  12.049  20.089  0.00  0.00    +0.000 NA
ENDBRANCH  19  20
ENDBRANCH  16  18
ENDBRANCH   4  14
BRANCH   1  30
ATOM     30  C   UNL     1       3.286   3.009  17.833  0.00  0.00    +0.000 C 
ATOM     31  O   UNL     1       2.842   2.157  17.085  0.00  0.00    +0.000 OA
BRANCH  30  32
ATOM     32  O   UNL     1       4.087   2.811  18.905  0.00  0.00    +0.000 OA
BRANCH  32  33
ATOM     33  C   UNL     1       3.547   2.018  19.966  0.00  0.00    +0.000 C 
BRANCH  33  34
ATOM     34  O   UNL     1       2.183   2.389  20.193  0.00  0.00    +0.000 OA
BRANCH  34  36
ATOM     35  C   UNL     1       2.235   4.443  21.313  0.00  0.00    +0.000 C 
ATOM     36  C   UNL     1       1.948   2.975  21.397  0.00  0.00    +0.000 C 
ATOM     37  O   UNL     1       1.551   2.408  22.403  0.00  0.00    +0.000 OA
ENDBRANCH  34  36
ENDBRANCH  33  34
ENDBRANCH  32  33
ENDBRANCH  30  32
ENDBRANCH   1  30
TORSDOF 9
ENDMDL
MODEL 4
REMARK VINA RESULT:      -8.0      2.417      3.469
REMARK  Name = 
REMARK  12 active torsions:
REMARK  status: ('A' for Active; 'I' for Inactive)
REMARK    1  A    between atoms: C_1  and  C_2
REMARK    2  A    between atoms: C_2  and  O_4
REMARK    3  A    between atoms: O_4  and  C_5
REMARK    4  A    between atoms: C_5  and  O_6
REMARK    5  A    between atoms: O_6  and  C_7
REMARK    6  A    between atoms: C_7  and  C_9
REMARK    7  A    between atoms: C_12  and  C_13
REMARK    8  A    between atoms: N_15  and  N_16
REMARK    9  A    between atoms: C_17  and  C_18
REMARK   10  A    between atoms: C_29  and  N_30
REMARK   11  A    between atoms: C_31  and  C_32
REMARK   12  A    between atoms: C_35  and  C_36
REMARK                            x       y       z     vdW  Elec       q    Type
REMARK                         _______ _______ _______ _____ _____    ______ ____
ROOT
ATOM      1  C   UNL     1       3.167   4.456  17.750  0.00  0.00    +0.000 A 
ATOM      2  C   UNL     1       1.844   4.872  18.008  0.00  0.00    +0.000 A 
ATOM      3  C   UNL     1       1.516   6.224  18.103  0.00  0.00    +0.000 A 
ATOM      4  C   UNL     1       2.499   7.198  17.921  0.00  0.00    +0.000 A 
ATOM      5  C   UNL     1       3.784   6.792  17.545  0.00  0.00    +0.000 A 
ATOM      6  C   UNL     1       4.158   5.424  17.488  0.00  0.00    +0.000 A 
ENDROOT
BRANCH   6   7
ATOM      7  N   UNL     1       5.528   5.104  17.164  0.00  0.00    +0.000 N 
ATOM      8  C   UNL     1       6.066   4.763  15.912  0.00  0.00    +0.000 A 
ATOM      9  C   UNL     1       5.369   4.756  14.592  0.00  0.00    +0.000 C 
ATOM     10  C   UNL     1       7.405   4.464  16.078  0.00  0.00    +0.000 A 
ATOM     11  C   UNL     1       7.748   4.716  17.408  0.00  0.00    +0.000 A 
ATOM     12  C   UNL     1       6.606   5.120  18.072  0.00  0.00    +0.000 A 
ATOM     13  C   UNL     1       6.531   5.404  19.538  0.00  0.00    +0.000 C 
ENDBRANCH   6   7
BRANCH   4  14
ATOM     14  C   UNL     1       2.113   8.630  18.094  0.00  0.00    +0.000 C 
ATOM     15  O   UNL     1       2.482   9.433  17.235  0.00  0.00    +0.000 OA
ATOM     16  N   UNL     1       1.310   8.960  19.186  0.00  0.00    +0.000 N 
ATOM     17  H   UNL     1       0.955   8.265  19.832  0.00  0.00    +0.000 HD
BRANCH  16  18
ATOM     18  N   UNL     1       0.905  10.266  19.315  0.00  0.00    +0.000 NA
ATOM     19  C   UNL     1       0.752  10.747  20.510  0.00  0.00    +0.000 C 
BRANCH  19  20
ATOM     20  C   UNL     1       0.361  12.167  20.724  0.00  0.00    +0.000 A 
ATOM     21  C   UNL     1      -0.273  12.555  21.893  0.00  0.00    +0.000 A 
ATOM     22  C   UNL     1      -0.713  13.869  21.983  0.00  0.00    +0.000 A 
ATOM     23  C   UNL     1      -0.509  14.733  20.903  0.00  0.00    +0.000 A 
ATOM     24  C   UNL     1      -0.986  16.054  20.921  0.00  0.00    +0.000 A 
ATOM     25  C   UNL     1      -0.777  16.872  19.828  0.00  0.00    +0.000 A 
ATOM     26  C   UNL     1      -0.085  16.337  18.754  0.00  0.00    +0.000 A 
ATOM     27  N   UNL     1       0.387  15.067  18.716  0.00  0.00    +0.000 NA
ATOM     28  C   UNL     1       0.176  14.262  19.762  0.00  0.00    +0.000 A 
ATOM     29  N   UNL     1       0.609  12.997  19.685  0.00  0.00    +0.000 NA
ENDBRANCH  19  20
ENDBRANCH  16  18
ENDBRANCH   4  14
BRANCH   1  30
ATOM     30  C   UNL     1       3.429   3.008  17.968  0.00  0.00    +0.000 C 
ATOM     31  O   UNL     1       2.989   2.114  17.269  0.00  0.00    +0.000 OA
BRANCH  30  32
ATOM     32  O   UNL     1       4.257   2.875  19.030  0.00  0.00    +0.000 OA
BRANCH  32  33
ATOM     33  C   UNL     1       3.699   2.271  20.201  0.00  0.00    +0.000 C 
BRANCH  33  34
ATOM     34  O   UNL     1       2.973   3.254  20.947  0.00  0.00    +0.000 OA
BRANCH  34  36
ATOM     35  C   UNL     1       0.714   3.217  20.338  0.00  0.00    +0.000 C 
ATOM     36  C   UNL     1       1.743   2.853  21.364  0.00  0.00    +0.000 C 
ATOM     37  O   UNL     1       1.497   2.273  22.410  0.00  0.00    +0.000 OA
ENDBRANCH  34  36
ENDBRANCH  33  34
ENDBRANCH  32  33
ENDBRANCH  30  32
ENDBRANCH   1  30
TORSDOF 9
ENDMDL
MODEL 5
REMARK VINA RESULT:      -7.8      2.628      3.503
REMARK  Name = 
REMARK  12 active torsions:
REMARK  status: ('A' for Active; 'I' for Inactive)
REMARK    1  A    between atoms: C_1  and  C_2
REMARK    2  A    between atoms: C_2  and  O_4
REMARK    3  A    between atoms: O_4  and  C_5
REMARK    4  A    between atoms: C_5  and  O_6
REMARK    5  A    between atoms: O_6  and  C_7
REMARK    6  A    between atoms: C_7  and  C_9
REMARK    7  A    between atoms: C_12  and  C_13
REMARK    8  A    between atoms: N_15  and  N_16
REMARK    9  A    between atoms: C_17  and  C_18
REMARK   10  A    between atoms: C_29  and  N_30
REMARK   11  A    between atoms: C_31  and  C_32
REMARK   12  A    between atoms: C_35  and  C_36
REMARK                            x       y       z     vdW  Elec       q    Type
REMARK                         _______ _______ _______ _____ _____    ______ ____
ROOT
ATOM      1  C   UNL     1       2.991   4.475  17.570  0.00  0.00    +0.000 A 
ATOM      2  C   UNL     1       1.683   4.932  17.835  0.00  0.00    +0.000 A 
ATOM      3  C   UNL     1       1.419   6.283  18.054  0.00  0.00    +0.000 A 
ATOM      4  C   UNL     1       2.452   7.219  17.993  0.00  0.00    +0.000 A 
ATOM      5  C   UNL     1       3.726   6.786  17.611  0.00  0.00    +0.000 A 
ATOM      6  C   UNL     1       4.035   5.412  17.430  0.00  0.00    +0.000 A 
ENDROOT
BRANCH   6   7
ATOM      7  N   UNL     1       5.398   5.055  17.110  0.00  0.00    +0.000 N 
ATOM      8  C   UNL     1       5.930   4.702  15.860  0.00  0.00    +0.000 A 
ATOM      9  C   UNL     1       5.239   4.716  14.537  0.00  0.00    +0.000 C 
ATOM     10  C   UNL     1       7.261   4.366  16.030  0.00  0.00    +0.000 A 
ATOM     11  C   UNL     1       7.605   4.606  17.362  0.00  0.00    +0.000 A 
ATOM     12  C   UNL     1       6.472   5.040  18.022  0.00  0.00    +0.000 A 
ATOM     13  C   UNL     1       6.399   5.324  19.489  0.00  0.00    +0.000 C 
ENDBRANCH   6   7
BRANCH   4  14
ATOM     14  C   UNL     1       2.131   8.645  18.296  0.00  0.00    +0.000 C 
ATOM     15  O   UNL     1       2.447   9.495  17.461  0.00  0.00    +0.000 OA
ATOM     16  N   UNL     1       1.442   8.920  19.477  0.00  0.00    +0.000 N 
ATOM     17  H   UNL     1       1.125   8.192  20.106  0.00  0.00    +0.000 HD
BRANCH  16  18
ATOM     18  N   UNL     1       1.094  10.224  19.730  0.00  0.00    +0.000 NA
ATOM     19  C   UNL     1      -0.167  10.522  19.797  0.00  0.00    +0.000 C 
BRANCH  19  20
ATOM     20  C   UNL     1      -0.616  11.904  20.114  0.00  0.00    +0.000 A 
ATOM     21  C   UNL     1      -1.590  12.127  21.074  0.00  0.00    +0.000 A 
ATOM     22  C   UNL     1      -2.046  13.428  21.241  0.00  0.00    +0.000 A 
ATOM     23  C   UNL     1      -1.518  14.445  20.441  0.00  0.00    +0.000 A 
ATOM     24  C   UNL     1      -1.985  15.766  20.531  0.00  0.00    +0.000 A 
ATOM     25  C   UNL     1      -1.448  16.741  19.713  0.00  0.00    +0.000 A 
ATOM     26  C   UNL     1      -0.448  16.355  18.836  0.00  0.00    +0.000 A 
ATOM     27  N   UNL     1       0.022  15.088  18.734  0.00  0.00    +0.000 NA
ATOM     28  C   UNL     1      -0.503  14.135  19.510  0.00  0.00    +0.000 A 
ATOM     29  N   UNL     1      -0.059  12.881  19.360  0.00  0.00    +0.000 NA
ENDBRANCH  19  20
ENDBRANCH  16  18
ENDBRANCH   4  14
BRANCH   1  30
ATOM     30  C   UNL     1       3.176   3.002  17.652  0.00  0.00    +0.000 C 
ATOM     31  O   UNL     1       4.253   2.437  17.588  0.00  0.00    +0.000 OA
BRANCH  30  32
ATOM     32  O   UNL     1       1.968   2.425  17.846  0.00  0.00    +0.000 OA
BRANCH  32  33
ATOM     33  C   UNL     1       1.788   1.721  19.078  0.00  0.00    +0.000 C 
BRANCH  33  34
ATOM     34  O   UNL     1       1.107   2.563  20.015  0.00  0.00    +0.000 OA
BRANCH  34  36
ATOM     35  C   UNL     1       3.101   3.136  21.098  0.00  0.00    +0.000 C 
ATOM     36  C   UNL     1       1.695   2.638  21.238  0.00  0.00    +0.000 C 
ATOM     37  O   UNL     1       1.168   2.358  22.304  0.00  0.00    +0.000 OA
ENDBRANCH  34  36
ENDBRANCH  33  34
ENDBRANCH  32  33
ENDBRANCH  30  32
ENDBRANCH   1  30
TORSDOF 9
ENDMDL
MODEL 6
REMARK VINA RESULT:      -7.8      2.618      3.353
REMARK  Name = 
REMARK  12 active torsions:
REMARK  status: ('A' for Active; 'I' for Inactive)
REMARK    1  A    between atoms: C_1  and  C_2
REMARK    2  A    between atoms: C_2  and  O_4
REMARK    3  A    between atoms: O_4  and  C_5
REMARK    4  A    between atoms: C_5  and  O_6
REMARK    5  A    between atoms: O_6  and  C_7
REMARK    6  A    between atoms: C_7  and  C_9
REMARK    7  A    between atoms: C_12  and  C_13
REMARK    8  A    between atoms: N_15  and  N_16
REMARK    9  A    between atoms: C_17  and  C_18
REMARK   10  A    between atoms: C_29  and  N_30
REMARK   11  A    between atoms: C_31  and  C_32
REMARK   12  A    between atoms: C_35  and  C_36
REMARK                            x       y       z     vdW  Elec       q    Type
REMARK                         _______ _______ _______ _____ _____    ______ ____
ROOT
ATOM      1  C   UNL     1       4.027   5.210  19.014  0.00  0.00    +0.000 A 
ATOM      2  C   UNL     1       3.031   5.682  19.894  0.00  0.00    +0.000 A 
ATOM      3  C   UNL     1       2.376   6.892  19.664  0.00  0.00    +0.000 A 
ATOM      4  C   UNL     1       2.684   7.652  18.535  0.00  0.00    +0.000 A 
ATOM      5  C   UNL     1       3.582   7.128  17.599  0.00  0.00    +0.000 A 
ATOM      6  C   UNL     1       4.299   5.925  17.830  0.00  0.00    +0.000 A 
ENDROOT
BRANCH   6   7
ATOM      7  N   UNL     1       5.261   5.503  16.839  0.00  0.00    +0.000 N 
ATOM      8  C   UNL     1       6.544   6.021  16.602  0.00  0.00    +0.000 A 
ATOM      9  C   UNL     1       7.267   7.063  17.389  0.00  0.00    +0.000 C 
ATOM     10  C   UNL     1       7.086   5.366  15.511  0.00  0.00    +0.000 A 
ATOM     11  C   UNL     1       6.198   4.361  15.120  0.00  0.00    +0.000 A 
ATOM     12  C   UNL     1       5.088   4.433  15.938  0.00  0.00    +0.000 A 
ATOM     13  C   UNL     1       3.866   3.583  15.791  0.00  0.00    +0.000 C 
ENDBRANCH   6   7
BRANCH   4  14
ATOM     14  C   UNL     1       2.002   8.969  18.364  0.00  0.00    +0.000 C 
ATOM     15  O   UNL     1       2.092   9.525  17.268  0.00  0.00    +0.000 OA
ATOM     16  N   UNL     1       1.258   9.461  19.437  0.00  0.00    +0.000 N 
ATOM     17  H   UNL     1       1.137   8.943  20.299  0.00  0.00    +0.000 HD
BRANCH  16  18
ATOM     18  N   UNL     1       0.582  10.643  19.263  0.00  0.00    +0.000 NA
ATOM     19  C   UNL     1       1.045  11.708  19.841  0.00  0.00    +0.000 C 
BRANCH  19  20
ATOM     20  C   UNL     1       0.390  13.031  19.656  0.00  0.00    +0.000 A 
ATOM     21  C   UNL     1       0.983  14.008  18.872  0.00  0.00    +0.000 A 
ATOM     22  C   UNL     1       0.380  15.258  18.833  0.00  0.00    +0.000 A 
ATOM     23  C   UNL     1      -0.780  15.481  19.581  0.00  0.00    +0.000 A 
ATOM     24  C   UNL     1      -1.396  16.742  19.621  0.00  0.00    +0.000 A 
ATOM     25  C   UNL     1      -2.533  16.926  20.384  0.00  0.00    +0.000 A 
ATOM     26  C   UNL     1      -3.019  15.829  21.075  0.00  0.00    +0.000 A 
ATOM     27  N   UNL     1      -2.445  14.603  21.049  0.00  0.00    +0.000 NA
ATOM     28  C   UNL     1      -1.335  14.418  20.327  0.00  0.00    +0.000 A 
ATOM     29  N   UNL     1      -0.756  13.211  20.353  0.00  0.00    +0.000 NA
ENDBRANCH  19  20
ENDBRANCH  16  18
ENDBRANCH   4  14
BRANCH   1  30
ATOM     30  C   UNL     1       4.841   4.076  19.529  0.00  0.00    +0.000 C 
ATOM     31  O   UNL     1       6.058   4.044  19.528  0.00  0.00    +0.000 OA
BRANCH  30  32
ATOM     32  O   UNL     1       4.004   3.133  20.020  0.00  0.00    +0.000 OA
BRANCH  32  33
ATOM     33  C   UNL     1       3.506   2.173  19.084  0.00  0.00    +0.000 C 
BRANCH  33  34
ATOM     34  O   UNL     1       2.216   1.719  19.507  0.00  0.00    +0.000 OA
BRANCH  34  36
ATOM     35  C   UNL     1       1.033   3.235  18.174  0.00  0.00    +0.000 C 
ATOM     36  C   UNL     1       1.261   2.686  19.549  0.00  0.00    +0.000 C 
ATOM     37  O   UNL     1       0.661   3.056  20.545  0.00  0.00    +0.000 OA
ENDBRANCH  34  36
ENDBRANCH  33  34
ENDBRANCH  32  33
ENDBRANCH  30  32
ENDBRANCH   1  30
TORSDOF 9
ENDMDL
MODEL 7
REMARK VINA RESULT:      -7.7      2.504      3.539
REMARK  Name = 
REMARK  12 active torsions:
REMARK  status: ('A' for Active; 'I' for Inactive)
REMARK    1  A    between atoms: C_1  and  C_2
REMARK    2  A    between atoms: C_2  and  O_4
REMARK    3  A    between atoms: O_4  and  C_5
REMARK    4  A    between atoms: C_5  and  O_6
REMARK    5  A    between atoms: O_6  and  C_7
REMARK    6  A    between atoms: C_7  and  C_9
REMARK    7  A    between atoms: C_12  and  C_13
REMARK    8  A    between atoms: N_15  and  N_16
REMARK    9  A    between atoms: C_17  and  C_18
REMARK   10  A    between atoms: C_29  and  N_30
REMARK   11  A    between atoms: C_31  and  C_32
REMARK   12  A    between atoms: C_35  and  C_36
REMARK                            x       y       z     vdW  Elec       q    Type
REMARK                         _______ _______ _______ _____ _____    ______ ____
ROOT
ATOM      1  C   UNL     1       4.129   5.202  18.921  0.00  0.00    +0.000 A 
ATOM      2  C   UNL     1       3.103   5.610  19.799  0.00  0.00    +0.000 A 
ATOM      3  C   UNL     1       2.421   6.810  19.605  0.00  0.00    +0.000 A 
ATOM      4  C   UNL     1       2.730   7.625  18.516  0.00  0.00    +0.000 A 
ATOM      5  C   UNL     1       3.660   7.165  17.578  0.00  0.00    +0.000 A 
ATOM      6  C   UNL     1       4.405   5.973  17.773  0.00  0.00    +0.000 A 
ENDROOT
BRANCH   6   7
ATOM      7  N   UNL     1       5.398   5.618  16.787  0.00  0.00    +0.000 N 
ATOM      8  C   UNL     1       5.307   4.648  15.776  0.00  0.00    +0.000 A 
ATOM      9  C   UNL     1       4.118   3.824  15.407  0.00  0.00    +0.000 C 
ATOM     10  C   UNL     1       6.518   4.594  15.110  0.00  0.00    +0.000 A 
ATOM     11  C   UNL     1       7.342   5.599  15.622  0.00  0.00    +0.000 A 
ATOM     12  C   UNL     1       6.656   6.236  16.638  0.00  0.00    +0.000 A 
ATOM     13  C   UNL     1       7.225   7.317  17.500  0.00  0.00    +0.000 C 
ENDBRANCH   6   7
BRANCH   4  14
ATOM     14  C   UNL     1       2.015   8.930  18.385  0.00  0.00    +0.000 C 
ATOM     15  O   UNL     1       2.132   9.545  17.324  0.00  0.00    +0.000 OA
ATOM     16  N   UNL     1       1.215   9.343  19.451  0.00  0.00    +0.000 N 
ATOM     17  H   UNL     1       1.075   8.777  20.279  0.00  0.00    +0.000 HD
BRANCH  16  18
ATOM     18  N   UNL     1       0.511  10.513  19.310  0.00  0.00    +0.000 NA
ATOM     19  C   UNL     1       0.910  11.554  19.973  0.00  0.00    +0.000 C 
BRANCH  19  20
ATOM     20  C   UNL     1       0.223  12.867  19.831  0.00  0.00    +0.000 A 
ATOM     21  C   UNL     1       0.408  13.641  18.697  0.00  0.00    +0.000 A 
ATOM     22  C   UNL     1      -0.168  14.904  18.676  0.00  0.00    +0.000 A 
ATOM     23  C   UNL     1      -0.896  15.341  19.787  0.00  0.00    +0.000 A 
ATOM     24  C   UNL     1      -1.450  16.630  19.840  0.00  0.00    +0.000 A 
ATOM     25  C   UNL     1      -2.150  17.030  20.962  0.00  0.00    +0.000 A 
ATOM     26  C   UNL     1      -2.278  16.114  21.992  0.00  0.00    +0.000 A 
ATOM     27  N   UNL     1      -1.755  14.864  21.963  0.00  0.00    +0.000 NA
ATOM     28  C   UNL     1      -1.062  14.473  20.888  0.00  0.00    +0.000 A 
ATOM     29  N   UNL     1      -0.514  13.252  20.899  0.00  0.00    +0.000 NA
ENDBRANCH  19  20
ENDBRANCH  16  18
ENDBRANCH   4  14
BRANCH   1  30
ATOM     30  C   UNL     1       4.963   4.069  19.405  0.00  0.00    +0.000 C 
ATOM     31  O   UNL     1       6.179   4.085  19.469  0.00  0.00    +0.000 OA
BRANCH  30  32
ATOM     32  O   UNL     1       4.144   3.063  19.787  0.00  0.00    +0.000 OA
BRANCH  32  33
ATOM     33  C   UNL     1       3.768   2.126  18.773  0.00  0.00    +0.000 C 
BRANCH  33  34
ATOM     34  O   UNL     1       2.400   1.747  18.956  0.00  0.00    +0.000 OA
BRANCH  34  36
ATOM     35  C   UNL     1       0.599   2.983  19.797  0.00  0.00    +0.000 C 
ATOM     36  C   UNL     1       1.497   2.710  18.630  0.00  0.00    +0.000 C 
ATOM     37  O   UNL     1       1.423   3.286  17.555  0.00  0.00    +0.000 OA
ENDBRANCH  34  36
ENDBRANCH  33  34
ENDBRANCH  32  33
ENDBRANCH  30  32
ENDBRANCH   1  30
TORSDOF 9
ENDMDL
MODEL 8
REMARK VINA RESULT:      -7.7      2.282      2.948
REMARK  Name = 
REMARK  12 active torsions:
REMARK  status: ('A' for Active; 'I' for Inactive)
REMARK    1  A    between atoms: C_1  and  C_2
REMARK    2  A    between atoms: C_2  and  O_4
REMARK    3  A    between atoms: O_4  and  C_5
REMARK    4  A    between atoms: C_5  and  O_6
REMARK    5  A    between atoms: O_6  and  C_7
REMARK    6  A    between atoms: C_7  and  C_9
REMARK    7  A    between atoms: C_12  and  C_13
REMARK    8  A    between atoms: N_15  and  N_16
REMARK    9  A    between atoms: C_17  and  C_18
REMARK   10  A    between atoms: C_29  and  N_30
REMARK   11  A    between atoms: C_31  and  C_32
REMARK   12  A    between atoms: C_35  and  C_36
REMARK                            x       y       z     vdW  Elec       q    Type
REMARK                         _______ _______ _______ _____ _____    ______ ____
ROOT
ATOM      1  C   UNL     1       3.087   4.265  17.604  0.00  0.00    +0.000 A 
ATOM      2  C   UNL     1       1.767   4.672  17.890  0.00  0.00    +0.000 A 
ATOM      3  C   UNL     1       1.460   6.010  18.137  0.00  0.00    +0.000 A 
ATOM      4  C   UNL     1       2.461   6.981  18.084  0.00  0.00    +0.000 A 
ATOM      5  C   UNL     1       3.745   6.597  17.682  0.00  0.00    +0.000 A 
ATOM      6  C   UNL     1       4.098   5.239  17.472  0.00  0.00    +0.000 A 
ENDROOT
BRANCH   6   7
ATOM      7  N   UNL     1       5.468   4.933  17.133  0.00  0.00    +0.000 N 
ATOM      8  C   UNL     1       5.986   4.543  15.887  0.00  0.00    +0.000 A 
ATOM      9  C   UNL     1       5.261   4.457  14.585  0.00  0.00    +0.000 C 
ATOM     10  C   UNL     1       7.336   4.282  16.037  0.00  0.00    +0.000 A 
ATOM     11  C   UNL     1       7.701   4.607  17.345  0.00  0.00    +0.000 A 
ATOM     12  C   UNL     1       6.565   5.018  18.014  0.00  0.00    +0.000 A 
ATOM     13  C   UNL     1       6.514   5.372  19.466  0.00  0.00    +0.000 C 
ENDBRANCH   6   7
BRANCH   4  14
ATOM     14  C   UNL     1       2.096   8.389  18.417  0.00  0.00    +0.000 C 
ATOM     15  O   UNL     1       2.174   9.231  17.520  0.00  0.00    +0.000 OA
ATOM     16  N   UNL     1       1.635   8.655  19.707  0.00  0.00    +0.000 N 
ATOM     17  H   UNL     1       1.506   7.928  20.400  0.00  0.00    +0.000 HD
BRANCH  16  18
ATOM     18  N   UNL     1       1.243   9.938  19.998  0.00  0.00    +0.000 NA
ATOM     19  C   UNL     1       0.058  10.317  19.629  0.00  0.00    +0.000 C 
BRANCH  19  20
ATOM     20  C   UNL     1      -0.451  11.678  19.953  0.00  0.00    +0.000 A 
ATOM     21  C   UNL     1      -1.200  12.389  19.030  0.00  0.00    +0.000 A 
ATOM     22  C   UNL     1      -1.546  13.695  19.349  0.00  0.00    +0.000 A 
ATOM     23  C   UNL     1      -1.125  14.236  20.567  0.00  0.00    +0.000 A 
ATOM     24  C   UNL     1      -1.400  15.569  20.913  0.00  0.00    +0.000 A 
ATOM     25  C   UNL     1      -0.954  16.070  22.120  0.00  0.00    +0.000 A 
ATOM     26  C   UNL     1      -0.254  15.208  22.947  0.00  0.00    +0.000 A 
ATOM     27  N   UNL     1       0.020  13.918  22.638  0.00  0.00    +0.000 NA
ATOM     28  C   UNL     1      -0.393  13.428  21.464  0.00  0.00    +0.000 A 
ATOM     29  N   UNL     1      -0.070  12.165  21.157  0.00  0.00    +0.000 NA
ENDBRANCH  19  20
ENDBRANCH  16  18
ENDBRANCH   4  14
BRANCH   1  30
ATOM     30  C   UNL     1       3.322   2.797  17.656  0.00  0.00    +0.000 C 
ATOM     31  O   UNL     1       2.690   1.974  17.020  0.00  0.00    +0.000 OA
BRANCH  30  32
ATOM     32  O   UNL     1       4.363   2.557  18.486  0.00  0.00    +0.000 OA
BRANCH  32  33
ATOM     33  C   UNL     1       4.075   2.556  19.887  0.00  0.00    +0.000 C 
BRANCH  33  34
ATOM     34  O   UNL     1       2.750   2.058  20.102  0.00  0.00    +0.000 OA
BRANCH  34  36
ATOM     35  C   UNL     1       0.721   3.074  20.674  0.00  0.00    +0.000 C 
ATOM     36  C   UNL     1       2.083   2.648  21.130  0.00  0.00    +0.000 C 
ATOM     37  O   UNL     1       2.510   2.805  22.263  0.00  0.00    +0.000 OA
ENDBRANCH  34  36
ENDBRANCH  33  34
ENDBRANCH  32  33
ENDBRANCH  30  32
ENDBRANCH   1  30
TORSDOF 9
ENDMDL
MODEL 9
REMARK VINA RESULT:      -7.7      3.032      4.756
REMARK  Name = 
REMARK  12 active torsions:
REMARK  status: ('A' for Active; 'I' for Inactive)
REMARK    1  A    between atoms: C_1  and  C_2
REMARK    2  A    between atoms: C_2  and  O_4
REMARK    3  A    between atoms: O_4  and  C_5
REMARK    4  A    between atoms: C_5  and  O_6
REMARK    5  A    between atoms: O_6  and  C_7
REMARK    6  A    between atoms: C_7  and  C_9
REMARK    7  A    between atoms: C_12  and  C_13
REMARK    8  A    between atoms: N_15  and  N_16
REMARK    9  A    between atoms: C_17  and  C_18
REMARK   10  A    between atoms: C_29  and  N_30
REMARK   11  A    between atoms: C_31  and  C_32
REMARK   12  A    between atoms: C_35  and  C_36
REMARK                            x       y       z     vdW  Elec       q    Type
REMARK                         _______ _______ _______ _____ _____    ______ ____
ROOT
ATOM      1  C   UNL     1       4.001   6.182  17.406  0.00  0.00    +0.000 A 
ATOM      2  C   UNL     1       3.856   7.551  17.100  0.00  0.00    +0.000 A 
ATOM      3  C   UNL     1       2.977   8.363  17.816  0.00  0.00    +0.000 A 
ATOM      4  C   UNL     1       2.235   7.834  18.873  0.00  0.00    +0.000 A 
ATOM      5  C   UNL     1       2.467   6.508  19.256  0.00  0.00    +0.000 A 
ATOM      6  C   UNL     1       3.317   5.645  18.517  0.00  0.00    +0.000 A 
ENDROOT
BRANCH   6   7
ATOM      7  N   UNL     1       3.435   4.271  18.945  0.00  0.00    +0.000 N 
ATOM      8  C   UNL     1       2.450   3.271  18.930  0.00  0.00    +0.000 A 
ATOM      9  C   UNL     1       1.072   3.357  18.363  0.00  0.00    +0.000 C 
ATOM     10  C   UNL     1       2.979   2.127  19.500  0.00  0.00    +0.000 A 
ATOM     11  C   UNL     1       4.326   2.361  19.780  0.00  0.00    +0.000 A 
ATOM     12  C   UNL     1       4.613   3.667  19.430  0.00  0.00    +0.000 A 
ATOM     13  C   UNL     1       5.931   4.337  19.653  0.00  0.00    +0.000 C 
ENDBRANCH   6   7
BRANCH   4  14
ATOM     14  C   UNL     1       1.263   8.727  19.569  0.00  0.00    +0.000 C 
ATOM     15  O   UNL     1       1.099   8.566  20.779  0.00  0.00    +0.000 OA
ATOM     16  N   UNL     1       0.642   9.725  18.817  0.00  0.00    +0.000 N 
ATOM     17  H   UNL     1       0.856   9.884  17.840  0.00  0.00    +0.000 HD
BRANCH  16  18
ATOM     18  N   UNL     1      -0.208  10.585  19.468  0.00  0.00    +0.000 NA
ATOM     19  C   UNL     1      -1.096  11.220  18.766  0.00  0.00    +0.000 C 
BRANCH  19  20
ATOM     20  C   UNL     1      -2.080  12.130  19.411  0.00  0.00    +0.000 A 
ATOM     21  C   UNL     1      -1.656  13.141  20.258  0.00  0.00    +0.000 A 
ATOM     22  C   UNL     1      -2.628  13.882  20.917  0.00  0.00    +0.000 A 
ATOM     23  C   UNL     1      -3.976  13.578  20.709  0.00  0.00    +0.000 A 
ATOM     24  C   UNL     1      -4.996  14.258  21.395  0.00  0.00    +0.000 A 
ATOM     25  C   UNL     1      -6.316  13.919  21.172  0.00  0.00    +0.000 A 
ATOM     26  C   UNL     1      -6.568  12.910  20.257  0.00  0.00    +0.000 A 
ATOM     27  N   UNL     1      -5.602  12.242  19.582  0.00  0.00    +0.000 NA
ATOM     28  C   UNL     1      -4.321  12.552  19.802  0.00  0.00    +0.000 A 
ATOM     29  N   UNL     1      -3.380  11.848  19.161  0.00  0.00    +0.000 NA
ENDBRANCH  19  20
ENDBRANCH  16  18
ENDBRANCH   4  14
BRANCH   1  30
ATOM     30  C   UNL     1       4.733   5.380  16.389  0.00  0.00    +0.000 C 
ATOM     31  O   UNL     1       4.428   4.250  16.051  0.00  0.00    +0.000 OA
BRANCH  30  32
ATOM     32  O   UNL     1       5.744   6.130  15.895  0.00  0.00    +0.000 OA
BRANCH  32  33
ATOM     33  C   UNL     1       7.053   5.846  16.398  0.00  0.00    +0.000 C 
BRANCH  33  34
ATOM     34  O   UNL     1       7.788   7.067  16.532  0.00  0.00    +0.000 OA
BRANCH  34  36
ATOM     35  C   UNL     1       7.951   8.989  17.857  0.00  0.00    +0.000 C 
ATOM     36  C   UNL     1       7.951   7.492  17.813  0.00  0.00    +0.000 C 
ATOM     37  O   UNL     1       8.069   6.776  18.795  0.00  0.00    +0.000 OA
ENDBRANCH  34  36
ENDBRANCH  33  34
ENDBRANCH  32  33
ENDBRANCH  30  32
ENDBRANCH   1  30
TORSDOF 9
ENDMDL
