MODEL 1
REMARK VINA RESULT:      -9.4      0.000      0.000
REMARK  Name = 
REMARK  6 active torsions:
REMARK  status: ('A' for Active; 'I' for Inactive)
REMARK    1  A    between atoms: C_4  and  C_5
REMARK    2  A    between atoms: C_8  and  C_9
REMARK    3  A    between atoms: N_14  and  C_15
REMARK    4  A    between atoms: C_18  and  N_19
REMARK    5  A    between atoms: N_19  and  C_20
REMARK    6  A    between atoms: N_19  and  C_26
REMARK                            x       y       z     vdW  Elec       q    Type
REMARK                         _______ _______ _______ _____ _____    ______ ____
ROOT
ATOM      1  C   UNL     1      -2.304  12.207  19.645  0.00  0.00    +0.000 A 
ATOM      2  C   UNL     1      -3.072  11.605  18.663  0.00  0.00    +0.000 A 
ATOM      3  C   UNL     1      -2.436  10.700  17.862  0.00  0.00    +0.000 A 
ATOM      4  N   UNL     1      -1.147  10.385  17.995  0.00  0.00    +0.000 NA
ATOM      5  C   UNL     1      -0.447  11.019  18.954  0.00  0.00    +0.000 A 
ATOM      6  N   UNL     1       0.908  10.710  19.101  0.00  0.00    +0.000 N 
ATOM      7  N   UNL     1      -0.980  11.941  19.773  0.00  0.00    +0.000 NA
ATOM      8  H   UNL     1       1.312  11.284  19.826  0.00  0.00    +0.000 HD
ENDROOT
BRANCH   1  12
ATOM      9  C   UNL     1      -3.967  15.020  22.402  0.00  0.00    +0.000 A 
ATOM     10  C   UNL     1      -4.821  14.252  21.616  0.00  0.00    +0.000 A 
ATOM     11  C   UNL     1      -4.285  13.315  20.732  0.00  0.00    +0.000 A 
ATOM     12  C   UNL     1      -2.898  13.150  20.609  0.00  0.00    +0.000 A 
ATOM     13  C   UNL     1      -2.129  13.948  21.449  0.00  0.00    +0.000 A 
ATOM     14  N   UNL     1      -2.621  14.872  22.321  0.00  0.00    +0.000 NA
BRANCH   9  18
ATOM     15  C   UNL     1      -5.382  18.049  25.116  0.00  0.00    +0.000 A 
ATOM     16  C   UNL     1      -6.165  17.670  24.031  0.00  0.00    +0.000 A 
ATOM     17  C   UNL     1      -5.714  16.677  23.157  0.00  0.00    +0.000 A 
ATOM     18  C   UNL     1      -4.469  16.044  23.341  0.00  0.00    +0.000 A 
ATOM     19  C   UNL     1      -3.706  16.437  24.455  0.00  0.00    +0.000 A 
ATOM     20  C   UNL     1      -4.154  17.430  25.332  0.00  0.00    +0.000 A 
ENDBRANCH   9  18
ENDBRANCH   1  12
BRANCH   6  21
ATOM     21  C   UNL     1       1.499   9.438  18.971  0.00  0.00    +0.000 A 
ATOM     22  C   UNL     1       1.449   8.536  20.037  0.00  0.00    +0.000 A 
ATOM     23  C   UNL     1       2.038   7.263  19.938  0.00  0.00    +0.000 A 
ATOM     24  C   UNL     1       2.698   6.846  18.767  0.00  0.00    +0.000 A 
ATOM     25  C   UNL     1       2.748   7.764  17.705  0.00  0.00    +0.000 A 
ATOM     26  C   UNL     1       2.152   9.028  17.802  0.00  0.00    +0.000 A 
BRANCH  24  27
ATOM     27  N   UNL     1       3.297   5.528  18.656  0.00  0.00    +0.000 N 
BRANCH  27  28
ATOM     28  C   UNL     1       4.531   5.337  17.906  0.00  0.00    +0.000 A 
ATOM     29  C   UNL     1       4.543   4.627  16.689  0.00  0.00    +0.000 A 
ATOM     30  C   UNL     1       5.708   4.494  15.928  0.00  0.00    +0.000 A 
ATOM     31  C   UNL     1       6.906   5.023  16.395  0.00  0.00    +0.000 A 
ATOM     32  C   UNL     1       6.934   5.697  17.613  0.00  0.00    +0.000 A 
ATOM     33  C   UNL     1       5.756   5.868  18.350  0.00  0.00    +0.000 A 
ENDBRANCH  27  28
BRANCH  27  34
ATOM     34  C   UNL     1       2.684   4.386  19.313  0.00  0.00    +0.000 A 
ATOM     35  C   UNL     1       3.194   3.888  20.529  0.00  0.00    +0.000 A 
ATOM     36  C   UNL     1       2.555   2.855  21.220  0.00  0.00    +0.000 A 
ATOM     37  C   UNL     1       1.417   2.262  20.685  0.00  0.00    +0.000 A 
ATOM     38  C   UNL     1       0.917   2.704  19.463  0.00  0.00    +0.000 A 
ATOM     39  C   UNL     1       1.536   3.763  18.789  0.00  0.00    +0.000 A 
ENDBRANCH  27  34
ENDBRANCH  24  27
ENDBRANCH   6  21
TORSDOF 6
ENDMDL
MODEL 2
REMARK VINA RESULT:      -9.4      0.457      1.181
REMARK  Name = 
REMARK  6 active torsions:
REMARK  status: ('A' for Active; 'I' for Inactive)
REMARK    1  A    between atoms: C_4  and  C_5
REMARK    2  A    between atoms: C_8  and  C_9
REMARK    3  A    between atoms: N_14  and  C_15
REMARK    4  A    between atoms: C_18  and  N_19
REMARK    5  A    between atoms: N_19  and  C_20
REMARK    6  A    between atoms: N_19  and  C_26
REMARK                            x       y       z     vdW  Elec       q    Type
REMARK                         _______ _______ _______ _____ _____    ______ ____
ROOT
ATOM      1  C   UNL     1      -2.179  12.188  19.667  0.00  0.00    +0.000 A 
ATOM      2  C   UNL     1      -2.924  11.610  18.653  0.00  0.00    +0.000 A 
ATOM      3  C   UNL     1      -2.278  10.699  17.867  0.00  0.00    +0.000 A 
ATOM      4  N   UNL     1      -1.001  10.356  18.043  0.00  0.00    +0.000 NA
ATOM      5  C   UNL     1      -0.323  10.967  19.032  0.00  0.00    +0.000 A 
ATOM      6  N   UNL     1       1.019  10.629  19.224  0.00  0.00    +0.000 N 
ATOM      7  N   UNL     1      -0.866  11.893  19.841  0.00  0.00    +0.000 NA
ATOM      8  H   UNL     1       1.409  11.189  19.969  0.00  0.00    +0.000 HD
ENDROOT
BRANCH   1  12
ATOM      9  C   UNL     1      -3.938  15.011  22.354  0.00  0.00    +0.000 A 
ATOM     10  C   UNL     1      -4.589  13.805  22.112  0.00  0.00    +0.000 A 
ATOM     11  C   UNL     1      -4.008  12.869  21.256  0.00  0.00    +0.000 A 
ATOM     12  C   UNL     1      -2.788  13.135  20.618  0.00  0.00    +0.000 A 
ATOM     13  C   UNL     1      -2.205  14.357  20.937  0.00  0.00    +0.000 A 
ATOM     14  N   UNL     1      -2.747  15.291  21.767  0.00  0.00    +0.000 NA
BRANCH   9  18
ATOM     15  C   UNL     1      -5.553  18.092  24.893  0.00  0.00    +0.000 A 
ATOM     16  C   UNL     1      -6.251  17.691  23.759  0.00  0.00    +0.000 A 
ATOM     17  C   UNL     1      -5.735  16.681  22.941  0.00  0.00    +0.000 A 
ATOM     18  C   UNL     1      -4.508  16.053  23.232  0.00  0.00    +0.000 A 
ATOM     19  C   UNL     1      -3.833  16.468  24.393  0.00  0.00    +0.000 A 
ATOM     20  C   UNL     1      -4.345  17.477  25.214  0.00  0.00    +0.000 A 
ENDBRANCH   9  18
ENDBRANCH   1  12
BRANCH   6  21
ATOM     21  C   UNL     1       1.588   9.347  19.103  0.00  0.00    +0.000 A 
ATOM     22  C   UNL     1       2.232   8.981  17.919  0.00  0.00    +0.000 A 
ATOM     23  C   UNL     1       2.801   7.704  17.768  0.00  0.00    +0.000 A 
ATOM     24  C   UNL     1       2.747   6.746  18.797  0.00  0.00    +0.000 A 
ATOM     25  C   UNL     1       2.090   7.123  19.980  0.00  0.00    +0.000 A 
ATOM     26  C   UNL     1       1.532   8.400  20.133  0.00  0.00    +0.000 A 
BRANCH  24  27
ATOM     27  N   UNL     1       3.344   5.431  18.650  0.00  0.00    +0.000 N 
BRANCH  27  28
ATOM     28  C   UNL     1       4.694   5.285  18.124  0.00  0.00    +0.000 A 
ATOM     29  C   UNL     1       5.822   5.570  18.920  0.00  0.00    +0.000 A 
ATOM     30  C   UNL     1       7.122   5.370  18.447  0.00  0.00    +0.000 A 
ATOM     31  C   UNL     1       7.327   4.931  17.145  0.00  0.00    +0.000 A 
ATOM     32  C   UNL     1       6.234   4.677  16.322  0.00  0.00    +0.000 A 
ATOM     33  C   UNL     1       4.932   4.833  16.813  0.00  0.00    +0.000 A 
ENDBRANCH  27  28
BRANCH  27  34
ATOM     34  C   UNL     1       2.607   4.242  19.048  0.00  0.00    +0.000 A 
ATOM     35  C   UNL     1       2.816   3.648  20.309  0.00  0.00    +0.000 A 
ATOM     36  C   UNL     1       2.045   2.566  20.743  0.00  0.00    +0.000 A 
ATOM     37  C   UNL     1       1.079   2.022  19.903  0.00  0.00    +0.000 A 
ATOM     38  C   UNL     1       0.882   2.561  18.635  0.00  0.00    +0.000 A 
ATOM     39  C   UNL     1       1.630   3.667  18.215  0.00  0.00    +0.000 A 
ENDBRANCH  27  34
ENDBRANCH  24  27
ENDBRANCH   6  21
TORSDOF 6
ENDMDL
MODEL 3
REMARK VINA RESULT:      -9.3      0.564      3.159
REMARK  Name = 
REMARK  6 active torsions:
REMARK  status: ('A' for Active; 'I' for Inactive)
REMARK    1  A    between atoms: C_4  and  C_5
REMARK    2  A    between atoms: C_8  and  C_9
REMARK    3  A    between atoms: N_14  and  C_15
REMARK    4  A    between atoms: C_18  and  N_19
REMARK    5  A    between atoms: N_19  and  C_20
REMARK    6  A    between atoms: N_19  and  C_26
REMARK                            x       y       z     vdW  Elec       q    Type
REMARK                         _______ _______ _______ _____ _____    ______ ____
ROOT
ATOM      1  C   UNL     1      -2.286  11.995  19.432  0.00  0.00    +0.000 A 
ATOM      2  C   UNL     1      -3.030  11.330  18.473  0.00  0.00    +0.000 A 
ATOM      3  C   UNL     1      -2.367  10.400  17.725  0.00  0.00    +0.000 A 
ATOM      4  N   UNL     1      -1.074  10.118  17.887  0.00  0.00    +0.000 NA
ATOM      5  C   UNL     1      -0.397  10.813  18.821  0.00  0.00    +0.000 A 
ATOM      6  N   UNL     1       0.961  10.539  18.998  0.00  0.00    +0.000 N 
ATOM      7  N   UNL     1      -0.958  11.763  19.588  0.00  0.00    +0.000 NA
ATOM      8  H   UNL     1       1.346  11.157  19.699  0.00  0.00    +0.000 HD
ENDROOT
BRANCH   1  12
ATOM      9  C   UNL     1      -4.044  14.908  22.022  0.00  0.00    +0.000 A 
ATOM     10  C   UNL     1      -4.867  14.009  21.351  0.00  0.00    +0.000 A 
ATOM     11  C   UNL     1      -4.298  13.041  20.523  0.00  0.00    +0.000 A 
ATOM     12  C   UNL     1      -2.909  12.973  20.342  0.00  0.00    +0.000 A 
ATOM     13  C   UNL     1      -2.170  13.900  21.069  0.00  0.00    +0.000 A 
ATOM     14  N   UNL     1      -2.695  14.858  21.882  0.00  0.00    +0.000 NA
BRANCH   9  18
ATOM     15  C   UNL     1      -5.676  17.975  24.567  0.00  0.00    +0.000 A 
ATOM     16  C   UNL     1      -4.737  17.081  25.072  0.00  0.00    +0.000 A 
ATOM     17  C   UNL     1      -4.196  16.094  24.244  0.00  0.00    +0.000 A 
ATOM     18  C   UNL     1      -4.583  15.971  22.894  0.00  0.00    +0.000 A 
ATOM     19  C   UNL     1      -5.522  16.898  22.408  0.00  0.00    +0.000 A 
ATOM     20  C   UNL     1      -6.066  17.887  23.234  0.00  0.00    +0.000 A 
ENDBRANCH   9  18
ENDBRANCH   1  12
BRANCH   6  21
ATOM     21  C   UNL     1       1.578   9.274  18.937  0.00  0.00    +0.000 A 
ATOM     22  C   UNL     1       2.217   8.868  17.763  0.00  0.00    +0.000 A 
ATOM     23  C   UNL     1       2.834   7.608  17.672  0.00  0.00    +0.000 A 
ATOM     24  C   UNL     1       2.834   6.707  18.753  0.00  0.00    +0.000 A 
ATOM     25  C   UNL     1       2.182   7.124  19.926  0.00  0.00    +0.000 A 
ATOM     26  C   UNL     1       1.577   8.384  20.018  0.00  0.00    +0.000 A 
BRANCH  24  27
ATOM     27  N   UNL     1       3.480   5.410  18.667  0.00  0.00    +0.000 N 
BRANCH  27  28
ATOM     28  C   UNL     1       2.757   4.198  19.027  0.00  0.00    +0.000 A 
ATOM     29  C   UNL     1       1.584   3.818  18.344  0.00  0.00    +0.000 A 
ATOM     30  C   UNL     1       0.920   2.622  18.636  0.00  0.00    +0.000 A 
ATOM     31  C   UNL     1       1.383   1.803  19.659  0.00  0.00    +0.000 A 
ATOM     32  C   UNL     1       2.517   2.171  20.377  0.00  0.00    +0.000 A 
ATOM     33  C   UNL     1       3.207   3.345  20.052  0.00  0.00    +0.000 A 
ENDBRANCH  27  28
BRANCH  27  34
ATOM     34  C   UNL     1       4.852   5.303  18.198  0.00  0.00    +0.000 A 
ATOM     35  C   UNL     1       5.933   5.638  19.038  0.00  0.00    +0.000 A 
ATOM     36  C   UNL     1       7.258   5.446  18.634  0.00  0.00    +0.000 A 
ATOM     37  C   UNL     1       7.530   4.959  17.360  0.00  0.00    +0.000 A 
ATOM     38  C   UNL     1       6.481   4.662  16.494  0.00  0.00    +0.000 A 
ATOM     39  C   UNL     1       5.155   4.820  16.913  0.00  0.00    +0.000 A 
ENDBRANCH  27  34
ENDBRANCH  24  27
ENDBRANCH   6  21
TORSDOF 6
ENDMDL
MODEL 4
REMARK VINA RESULT:      -9.2      0.617      2.992
REMARK  Name = 
REMARK  6 active torsions:
REMARK  status: ('A' for Active; 'I' for Inactive)
REMARK    1  A    between atoms: C_4  and  C_5
REMARK    2  A    between atoms: C_8  and  C_9
REMARK    3  A    between atoms: N_14  and  C_15
REMARK    4  A    between atoms: C_18  and  N_19
REMARK    5  A    between atoms: N_19  and  C_20
REMARK    6  A    between atoms: N_19  and  C_26
REMARK                            x       y       z     vdW  Elec       q    Type
REMARK                         _______ _______ _______ _____ _____    ______ ____
ROOT
ATOM      1  C   UNL     1      -2.172  12.437  19.898  0.00  0.00    +0.000 A 
ATOM      2  C   UNL     1      -3.039  11.804  19.023  0.00  0.00    +0.000 A 
ATOM      3  C   UNL     1      -2.495  10.854  18.207  0.00  0.00    +0.000 A 
ATOM      4  N   UNL     1      -1.203  10.523  18.231  0.00  0.00    +0.000 NA
ATOM      5  C   UNL     1      -0.405  11.187  19.087  0.00  0.00    +0.000 A 
ATOM      6  N   UNL     1       0.953  10.863  19.118  0.00  0.00    +0.000 N 
ATOM      7  N   UNL     1      -0.845  12.154  19.911  0.00  0.00    +0.000 NA
ATOM      8  H   UNL     1       1.433  11.463  19.774  0.00  0.00    +0.000 HD
ENDROOT
BRANCH   1  12
ATOM      9  C   UNL     1      -3.496  15.381  22.700  0.00  0.00    +0.000 A 
ATOM     10  C   UNL     1      -4.342  15.001  21.663  0.00  0.00    +0.000 A 
ATOM     11  C   UNL     1      -3.925  14.023  20.760  0.00  0.00    +0.000 A 
ATOM     12  C   UNL     1      -2.658  13.432  20.869  0.00  0.00    +0.000 A 
ATOM     13  C   UNL     1      -1.893  13.864  21.948  0.00  0.00    +0.000 A 
ATOM     14  N   UNL     1      -2.271  14.817  22.845  0.00  0.00    +0.000 NA
BRANCH   9  18
ATOM     15  C   UNL     1      -4.560  18.474  25.502  0.00  0.00    +0.000 A 
ATOM     16  C   UNL     1      -5.553  17.683  24.932  0.00  0.00    +0.000 A 
ATOM     17  C   UNL     1      -5.208  16.669  24.033  0.00  0.00    +0.000 A 
ATOM     18  C   UNL     1      -3.867  16.426  23.677  0.00  0.00    +0.000 A 
ATOM     19  C   UNL     1      -2.885  17.231  24.281  0.00  0.00    +0.000 A 
ATOM     20  C   UNL     1      -3.226  18.245  25.181  0.00  0.00    +0.000 A 
ENDBRANCH   9  18
ENDBRANCH   1  12
BRANCH   6  21
ATOM     21  C   UNL     1       1.513   9.577  18.991  0.00  0.00    +0.000 A 
ATOM     22  C   UNL     1       1.462   8.687  20.067  0.00  0.00    +0.000 A 
ATOM     23  C   UNL     1       2.020   7.400  19.971  0.00  0.00    +0.000 A 
ATOM     24  C   UNL     1       2.650   6.956  18.794  0.00  0.00    +0.000 A 
ATOM     25  C   UNL     1       2.703   7.862  17.722  0.00  0.00    +0.000 A 
ATOM     26  C   UNL     1       2.137   9.141  17.816  0.00  0.00    +0.000 A 
BRANCH  24  27
ATOM     27  N   UNL     1       3.218   5.624  18.686  0.00  0.00    +0.000 N 
BRANCH  27  28
ATOM     28  C   UNL     1       2.459   4.459  19.118  0.00  0.00    +0.000 A 
ATOM     29  C   UNL     1       1.638   3.748  18.220  0.00  0.00    +0.000 A 
ATOM     30  C   UNL     1       0.958   2.590  18.608  0.00  0.00    +0.000 A 
ATOM     31  C   UNL     1       1.038   2.144  19.922  0.00  0.00    +0.000 A 
ATOM     32  C   UNL     1       1.811   2.847  20.842  0.00  0.00    +0.000 A 
ATOM     33  C   UNL     1       2.528   3.980  20.440  0.00  0.00    +0.000 A 
ENDBRANCH  27  28
BRANCH  27  34
ATOM     34  C   UNL     1       4.545   5.435  18.123  0.00  0.00    +0.000 A 
ATOM     35  C   UNL     1       5.695   5.520  18.934  0.00  0.00    +0.000 A 
ATOM     36  C   UNL     1       6.968   5.243  18.426  0.00  0.00    +0.000 A 
ATOM     37  C   UNL     1       7.123   4.922  17.081  0.00  0.00    +0.000 A 
ATOM     38  C   UNL     1       6.009   4.875  16.248  0.00  0.00    +0.000 A 
ATOM     39  C   UNL     1       4.731   5.117  16.766  0.00  0.00    +0.000 A 
ENDBRANCH  27  34
ENDBRANCH  24  27
ENDBRANCH   6  21
TORSDOF 6
ENDMDL
MODEL 5
REMARK VINA RESULT:      -9.2      0.606      3.158
REMARK  Name = 
REMARK  6 active torsions:
REMARK  status: ('A' for Active; 'I' for Inactive)
REMARK    1  A    between atoms: C_4  and  C_5
REMARK    2  A    between atoms: C_8  and  C_9
REMARK    3  A    between atoms: N_14  and  C_15
REMARK    4  A    between atoms: C_18  and  N_19
REMARK    5  A    between atoms: N_19  and  C_20
REMARK    6  A    between atoms: N_19  and  C_26
REMARK                            x       y       z     vdW  Elec       q    Type
REMARK                         _______ _______ _______ _____ _____    ______ ____
ROOT
ATOM      1  C   UNL     1      -2.012  12.362  19.664  0.00  0.00    +0.000 A 
ATOM      2  C   UNL     1      -2.889  11.690  18.831  0.00  0.00    +0.000 A 
ATOM      3  C   UNL     1      -2.355  10.703  18.052  0.00  0.00    +0.000 A 
ATOM      4  N   UNL     1      -1.062  10.375  18.075  0.00  0.00    +0.000 NA
ATOM      5  C   UNL     1      -0.254  11.078  18.890  0.00  0.00    +0.000 A 
ATOM      6  N   UNL     1       1.105  10.755  18.918  0.00  0.00    +0.000 N 
ATOM      7  N   UNL     1      -0.685  12.081  19.674  0.00  0.00    +0.000 NA
ATOM      8  H   UNL     1       1.592  11.385  19.540  0.00  0.00    +0.000 HD
ENDROOT
BRANCH   1  12
ATOM      9  C   UNL     1      -3.440  15.303  22.420  0.00  0.00    +0.000 A 
ATOM     10  C   UNL     1      -2.076  15.224  22.156  0.00  0.00    +0.000 A 
ATOM     11  C   UNL     1      -1.606  14.282  21.240  0.00  0.00    +0.000 A 
ATOM     12  C   UNL     1      -2.487  13.401  20.595  0.00  0.00    +0.000 A 
ATOM     13  C   UNL     1      -3.831  13.570  20.910  0.00  0.00    +0.000 A 
ATOM     14  N   UNL     1      -4.321  14.477  21.800  0.00  0.00    +0.000 NA
BRANCH   9  18
ATOM     15  C   UNL     1      -5.096  18.044  25.299  0.00  0.00    +0.000 A 
ATOM     16  C   UNL     1      -3.718  17.880  25.211  0.00  0.00    +0.000 A 
ATOM     17  C   UNL     1      -3.178  17.000  24.268  0.00  0.00    +0.000 A 
ATOM     18  C   UNL     1      -4.000  16.261  23.395  0.00  0.00    +0.000 A 
ATOM     19  C   UNL     1      -5.388  16.460  23.496  0.00  0.00    +0.000 A 
ATOM     20  C   UNL     1      -5.932  17.338  24.438  0.00  0.00    +0.000 A 
ENDBRANCH   9  18
ENDBRANCH   1  12
BRANCH   6  21
ATOM     21  C   UNL     1       1.664   9.465  18.843  0.00  0.00    +0.000 A 
ATOM     22  C   UNL     1       1.527   8.584  19.920  0.00  0.00    +0.000 A 
ATOM     23  C   UNL     1       2.083   7.294  19.875  0.00  0.00    +0.000 A 
ATOM     24  C   UNL     1       2.795   6.836  18.751  0.00  0.00    +0.000 A 
ATOM     25  C   UNL     1       2.933   7.732  17.679  0.00  0.00    +0.000 A 
ATOM     26  C   UNL     1       2.370   9.015  17.721  0.00  0.00    +0.000 A 
BRANCH  24  27
ATOM     27  N   UNL     1       3.360   5.500  18.697  0.00  0.00    +0.000 N 
BRANCH  27  28
ATOM     28  C   UNL     1       2.599   4.354  19.173  0.00  0.00    +0.000 A 
ATOM     29  C   UNL     1       1.630   3.732  18.360  0.00  0.00    +0.000 A 
ATOM     30  C   UNL     1       0.940   2.591  18.782  0.00  0.00    +0.000 A 
ATOM     31  C   UNL     1       1.165   2.075  20.052  0.00  0.00    +0.000 A 
ATOM     32  C   UNL     1       2.088   2.689  20.893  0.00  0.00    +0.000 A 
ATOM     33  C   UNL     1       2.811   3.804  20.451  0.00  0.00    +0.000 A 
ENDBRANCH  27  28
BRANCH  27  34
ATOM     34  C   UNL     1       4.688   5.287  18.143  0.00  0.00    +0.000 A 
ATOM     35  C   UNL     1       5.842   5.506  18.922  0.00  0.00    +0.000 A 
ATOM     36  C   UNL     1       7.119   5.211  18.435  0.00  0.00    +0.000 A 
ATOM     37  C   UNL     1       7.272   4.734  17.137  0.00  0.00    +0.000 A 
ATOM     38  C   UNL     1       6.153   4.550  16.331  0.00  0.00    +0.000 A 
ATOM     39  C   UNL     1       4.872   4.812  16.832  0.00  0.00    +0.000 A 
ENDBRANCH  27  34
ENDBRANCH  24  27
ENDBRANCH   6  21
TORSDOF 6
ENDMDL
MODEL 6
REMARK VINA RESULT:      -9.2      0.636      3.245
REMARK  Name = 
REMARK  6 active torsions:
REMARK  status: ('A' for Active; 'I' for Inactive)
REMARK    1  A    between atoms: C_4  and  C_5
REMARK    2  A    between atoms: C_8  and  C_9
REMARK    3  A    between atoms: N_14  and  C_15
REMARK    4  A    between atoms: C_18  and  N_19
REMARK    5  A    between atoms: N_19  and  C_20
REMARK    6  A    between atoms: N_19  and  C_26
REMARK                            x       y       z     vdW  Elec       q    Type
REMARK                         _______ _______ _______ _____ _____    ______ ____
ROOT
ATOM      1  C   UNL     1      -2.105  12.190  19.532  0.00  0.00    +0.000 A 
ATOM      2  C   UNL     1      -2.947  11.496  18.680  0.00  0.00    +0.000 A 
ATOM      3  C   UNL     1      -2.376  10.508  17.930  0.00  0.00    +0.000 A 
ATOM      4  N   UNL     1      -1.080  10.198  17.995  0.00  0.00    +0.000 NA
ATOM      5  C   UNL     1      -0.307  10.921  18.826  0.00  0.00    +0.000 A 
ATOM      6  N   UNL     1       1.054  10.618  18.899  0.00  0.00    +0.000 N 
ATOM      7  N   UNL     1      -0.775  11.928  19.585  0.00  0.00    +0.000 NA
ATOM      8  H   UNL     1       1.514  11.261  19.528  0.00  0.00    +0.000 HD
ENDROOT
BRANCH   1  12
ATOM      9  C   UNL     1      -3.675  15.146  22.192  0.00  0.00    +0.000 A 
ATOM     10  C   UNL     1      -2.308  14.886  22.194  0.00  0.00    +0.000 A 
ATOM     11  C   UNL     1      -1.786  13.940  21.312  0.00  0.00    +0.000 A 
ATOM     12  C   UNL     1      -2.622  13.232  20.436  0.00  0.00    +0.000 A 
ATOM     13  C   UNL     1      -3.969  13.575  20.494  0.00  0.00    +0.000 A 
ATOM     14  N   UNL     1      -4.509  14.492  21.345  0.00  0.00    +0.000 NA
BRANCH   9  18
ATOM     15  C   UNL     1      -5.438  18.030  24.861  0.00  0.00    +0.000 A 
ATOM     16  C   UNL     1      -6.168  17.550  23.778  0.00  0.00    +0.000 A 
ATOM     17  C   UNL     1      -5.602  16.604  22.919  0.00  0.00    +0.000 A 
ATOM     18  C   UNL     1      -4.294  16.119  23.115  0.00  0.00    +0.000 A 
ATOM     19  C   UNL     1      -3.587  16.610  24.227  0.00  0.00    +0.000 A 
ATOM     20  C   UNL     1      -4.149  17.557  25.089  0.00  0.00    +0.000 A 
ENDBRANCH   9  18
ENDBRANCH   1  12
BRANCH   6  21
ATOM     21  C   UNL     1       1.633   9.335  18.856  0.00  0.00    +0.000 A 
ATOM     22  C   UNL     1       1.566   8.504  19.978  0.00  0.00    +0.000 A 
ATOM     23  C   UNL     1       2.142   7.222  19.966  0.00  0.00    +0.000 A 
ATOM     24  C   UNL     1       2.807   6.724  18.830  0.00  0.00    +0.000 A 
ATOM     25  C   UNL     1       2.875   7.571  17.712  0.00  0.00    +0.000 A 
ATOM     26  C   UNL     1       2.291   8.845  17.722  0.00  0.00    +0.000 A 
BRANCH  24  27
ATOM     27  N   UNL     1       3.394   5.395  18.809  0.00  0.00    +0.000 N 
BRANCH  27  28
ATOM     28  C   UNL     1       2.599   4.230  19.167  0.00  0.00    +0.000 A 
ATOM     29  C   UNL     1       2.691   3.649  20.449  0.00  0.00    +0.000 A 
ATOM     30  C   UNL     1       1.884   2.571  20.825  0.00  0.00    +0.000 A 
ATOM     31  C   UNL     1       1.002   2.011  19.909  0.00  0.00    +0.000 A 
ATOM     32  C   UNL     1       0.915   2.538  18.624  0.00  0.00    +0.000 A 
ATOM     33  C   UNL     1       1.691   3.647  18.263  0.00  0.00    +0.000 A 
ENDBRANCH  27  28
BRANCH  27  34
ATOM     34  C   UNL     1       4.779   5.211  18.406  0.00  0.00    +0.000 A 
ATOM     35  C   UNL     1       5.103   4.744  17.116  0.00  0.00    +0.000 A 
ATOM     36  C   UNL     1       6.429   4.657  16.684  0.00  0.00    +0.000 A 
ATOM     37  C   UNL     1       7.465   4.990  17.551  0.00  0.00    +0.000 A 
ATOM     38  C   UNL     1       7.174   5.412  18.845  0.00  0.00    +0.000 A 
ATOM     39  C   UNL     1       5.845   5.533  19.266  0.00  0.00    +0.000 A 
ENDBRANCH  27  34
ENDBRANCH  24  27
ENDBRANCH   6  21
TORSDOF 6
ENDMDL
MODEL 7
REMARK VINA RESULT:      -9.2      0.404      3.366
REMARK  Name = 
REMARK  6 active torsions:
REMARK  status: ('A' for Active; 'I' for Inactive)
REMARK    1  A    between atoms: C_4  and  C_5
REMARK    2  A    between atoms: C_8  and  C_9
REMARK    3  A    between atoms: N_14  and  C_15
REMARK    4  A    between atoms: C_18  and  N_19
REMARK    5  A    between atoms: N_19  and  C_20
REMARK    6  A    between atoms: N_19  and  C_26
REMARK                            x       y       z     vdW  Elec       q    Type
REMARK                         _______ _______ _______ _____ _____    ______ ____
ROOT
ATOM      1  C   UNL     1      -2.169  12.240  19.730  0.00  0.00    +0.000 A 
ATOM      2  C   UNL     1      -2.983  11.627  18.793  0.00  0.00    +0.000 A 
ATOM      3  C   UNL     1      -2.390  10.699  17.986  0.00  0.00    +0.000 A 
ATOM      4  N   UNL     1      -1.100  10.371  18.073  0.00  0.00    +0.000 NA
ATOM      5  C   UNL     1      -0.354  11.017  18.989  0.00  0.00    +0.000 A 
ATOM      6  N   UNL     1       1.002  10.695  19.088  0.00  0.00    +0.000 N 
ATOM      7  N   UNL     1      -0.843  11.962  19.810  0.00  0.00    +0.000 NA
ATOM      8  H   UNL     1       1.442  11.280  19.784  0.00  0.00    +0.000 HD
ENDROOT
BRANCH   1  12
ATOM      9  C   UNL     1      -3.664  15.117  22.517  0.00  0.00    +0.000 A 
ATOM     10  C   UNL     1      -4.493  14.666  21.495  0.00  0.00    +0.000 A 
ATOM     11  C   UNL     1      -4.019  13.709  20.596  0.00  0.00    +0.000 A 
ATOM     12  C   UNL     1      -2.712  13.210  20.696  0.00  0.00    +0.000 A 
ATOM     13  C   UNL     1      -1.968  13.707  21.762  0.00  0.00    +0.000 A 
ATOM     14  N   UNL     1      -2.400  14.641  22.653  0.00  0.00    +0.000 NA
BRANCH   9  18
ATOM     15  C   UNL     1      -4.952  18.062  25.383  0.00  0.00    +0.000 A 
ATOM     16  C   UNL     1      -3.603  17.739  25.279  0.00  0.00    +0.000 A 
ATOM     17  C   UNL     1      -3.182  16.793  24.340  0.00  0.00    +0.000 A 
ATOM     18  C   UNL     1      -4.096  16.143  23.487  0.00  0.00    +0.000 A 
ATOM     19  C   UNL     1      -5.450  16.501  23.605  0.00  0.00    +0.000 A 
ATOM     20  C   UNL     1      -5.876  17.447  24.543  0.00  0.00    +0.000 A 
ENDBRANCH   9  18
ENDBRANCH   1  12
BRANCH   6  21
ATOM     21  C   UNL     1       1.573   9.414  18.961  0.00  0.00    +0.000 A 
ATOM     22  C   UNL     1       2.149   9.027  17.748  0.00  0.00    +0.000 A 
ATOM     23  C   UNL     1       2.719   7.751  17.591  0.00  0.00    +0.000 A 
ATOM     24  C   UNL     1       2.733   6.816  18.642  0.00  0.00    +0.000 A 
ATOM     25  C   UNL     1       2.144   7.213  19.853  0.00  0.00    +0.000 A 
ATOM     26  C   UNL     1       1.586   8.489  20.011  0.00  0.00    +0.000 A 
BRANCH  24  27
ATOM     27  N   UNL     1       3.330   5.501  18.487  0.00  0.00    +0.000 N 
BRANCH  27  28
ATOM     28  C   UNL     1       2.639   4.313  18.966  0.00  0.00    +0.000 A 
ATOM     29  C   UNL     1       2.957   3.736  20.212  0.00  0.00    +0.000 A 
ATOM     30  C   UNL     1       2.254   2.635  20.712  0.00  0.00    +0.000 A 
ATOM     31  C   UNL     1       1.250   2.049  19.950  0.00  0.00    +0.000 A 
ATOM     32  C   UNL     1       0.938   2.573  18.699  0.00  0.00    +0.000 A 
ATOM     33  C   UNL     1       1.612   3.704  18.221  0.00  0.00    +0.000 A 
ENDBRANCH  27  28
BRANCH  27  34
ATOM     34  C   UNL     1       4.619   5.354  17.830  0.00  0.00    +0.000 A 
ATOM     35  C   UNL     1       4.702   4.967  16.477  0.00  0.00    +0.000 A 
ATOM     36  C   UNL     1       5.928   4.918  15.806  0.00  0.00    +0.000 A 
ATOM     37  C   UNL     1       7.105   5.208  16.490  0.00  0.00    +0.000 A 
ATOM     38  C   UNL     1       7.055   5.550  17.838  0.00  0.00    +0.000 A 
ATOM     39  C   UNL     1       5.824   5.634  18.499  0.00  0.00    +0.000 A 
ENDBRANCH  27  34
ENDBRANCH  24  27
ENDBRANCH   6  21
TORSDOF 6
ENDMDL
MODEL 8
REMARK VINA RESULT:      -9.2      0.605      1.261
REMARK  Name = 
REMARK  6 active torsions:
REMARK  status: ('A' for Active; 'I' for Inactive)
REMARK    1  A    between atoms: C_4  and  C_5
REMARK    2  A    between atoms: C_8  and  C_9
REMARK    3  A    between atoms: N_14  and  C_15
REMARK    4  A    between atoms: C_18  and  N_19
REMARK    5  A    between atoms: N_19  and  C_20
REMARK    6  A    between atoms: N_19  and  C_26
REMARK                            x       y       z     vdW  Elec       q    Type
REMARK                         _______ _______ _______ _____ _____    ______ ____
ROOT
ATOM      1  C   UNL     1      -2.075  12.226  19.747  0.00  0.00    +0.000 A 
ATOM      2  C   UNL     1      -2.872  11.645  18.776  0.00  0.00    +0.000 A 
ATOM      3  C   UNL     1      -2.274  10.717  17.972  0.00  0.00    +0.000 A 
ATOM      4  N   UNL     1      -0.994  10.362  18.093  0.00  0.00    +0.000 NA
ATOM      5  C   UNL     1      -0.264  10.977  19.041  0.00  0.00    +0.000 A 
ATOM      6  N   UNL     1       1.082  10.626  19.175  0.00  0.00    +0.000 N 
ATOM      7  N   UNL     1      -0.758  11.919  19.862  0.00  0.00    +0.000 NA
ATOM      8  H   UNL     1       1.513  11.190  19.894  0.00  0.00    +0.000 HD
ENDROOT
BRANCH   1  12
ATOM      9  C   UNL     1      -3.724  15.080  22.470  0.00  0.00    +0.000 A 
ATOM     10  C   UNL     1      -3.944  13.724  22.690  0.00  0.00    +0.000 A 
ATOM     11  C   UNL     1      -3.388  12.786  21.819  0.00  0.00    +0.000 A 
ATOM     12  C   UNL     1      -2.628  13.192  20.713  0.00  0.00    +0.000 A 
ATOM     13  C   UNL     1      -2.447  14.566  20.588  0.00  0.00    +0.000 A 
ATOM     14  N   UNL     1      -2.977  15.505  21.420  0.00  0.00    +0.000 NA
BRANCH   9  18
ATOM     15  C   UNL     1      -5.453  18.078  25.033  0.00  0.00    +0.000 A 
ATOM     16  C   UNL     1      -4.184  17.578  25.308  0.00  0.00    +0.000 A 
ATOM     17  C   UNL     1      -3.616  16.615  24.469  0.00  0.00    +0.000 A 
ATOM     18  C   UNL     1      -4.301  16.124  23.341  0.00  0.00    +0.000 A 
ATOM     19  C   UNL     1      -5.575  16.659  23.080  0.00  0.00    +0.000 A 
ATOM     20  C   UNL     1      -6.147  17.622  23.916  0.00  0.00    +0.000 A 
ENDBRANCH   9  18
ENDBRANCH   1  12
BRANCH   6  21
ATOM     21  C   UNL     1       1.631   9.335  19.045  0.00  0.00    +0.000 A 
ATOM     22  C   UNL     1       1.573   8.443  20.119  0.00  0.00    +0.000 A 
ATOM     23  C   UNL     1       2.120   7.152  20.019  0.00  0.00    +0.000 A 
ATOM     24  C   UNL     1       2.746   6.706  18.840  0.00  0.00    +0.000 A 
ATOM     25  C   UNL     1       2.805   7.614  17.770  0.00  0.00    +0.000 A 
ATOM     26  C   UNL     1       2.250   8.897  17.868  0.00  0.00    +0.000 A 
BRANCH  24  27
ATOM     27  N   UNL     1       3.302   5.369  18.729  0.00  0.00    +0.000 N 
BRANCH  27  28
ATOM     28  C   UNL     1       4.665   5.172  18.255  0.00  0.00    +0.000 A 
ATOM     29  C   UNL     1       4.923   4.629  16.980  0.00  0.00    +0.000 A 
ATOM     30  C   UNL     1       6.226   4.497  16.490  0.00  0.00    +0.000 A 
ATOM     31  C   UNL     1       7.307   4.855  17.287  0.00  0.00    +0.000 A 
ATOM     32  C   UNL     1       7.086   5.358  18.565  0.00  0.00    +0.000 A 
ATOM     33  C   UNL     1       5.779   5.532  19.037  0.00  0.00    +0.000 A 
ENDBRANCH  27  28
BRANCH  27  34
ATOM     34  C   UNL     1       2.511   4.211  19.112  0.00  0.00    +0.000 A 
ATOM     35  C   UNL     1       1.526   3.689  18.249  0.00  0.00    +0.000 A 
ATOM     36  C   UNL     1       0.828   2.519  18.562  0.00  0.00    +0.000 A 
ATOM     37  C   UNL     1       1.066   1.872  19.770  0.00  0.00    +0.000 A 
ATOM     38  C   UNL     1       2.002   2.391  20.660  0.00  0.00    +0.000 A 
ATOM     39  C   UNL     1       2.726   3.542  20.330  0.00  0.00    +0.000 A 
ENDBRANCH  27  34
ENDBRANCH  24  27
ENDBRANCH   6  21
TORSDOF 6
ENDMDL
MODEL 9
REMARK VINA RESULT:      -9.2      0.597      1.614
REMARK  Name = 
REMARK  6 active torsions:
REMARK  status: ('A' for Active; 'I' for Inactive)
REMARK    1  A    between atoms: C_4  and  C_5
REMARK    2  A    between atoms: C_8  and  C_9
REMARK    3  A    between atoms: N_14  and  C_15
REMARK    4  A    between atoms: C_18  and  N_19
REMARK    5  A    between atoms: N_19  and  C_20
REMARK    6  A    between atoms: N_19  and  C_26
REMARK                            x       y       z     vdW  Elec       q    Type
REMARK                         _______ _______ _______ _____ _____    ______ ____
ROOT
ATOM      1  C   UNL     1      -2.035  12.371  19.756  0.00  0.00    +0.000 A 
ATOM      2  C   UNL     1      -2.913  11.714  18.912  0.00  0.00    +0.000 A 
ATOM      3  C   UNL     1      -2.383  10.724  18.134  0.00  0.00    +0.000 A 
ATOM      4  N   UNL     1      -1.095  10.379  18.166  0.00  0.00    +0.000 NA
ATOM      5  C   UNL     1      -0.286  11.069  18.992  0.00  0.00    +0.000 A 
ATOM      6  N   UNL     1       1.068  10.729  19.031  0.00  0.00    +0.000 N 
ATOM      7  N   UNL     1      -0.711  12.074  19.776  0.00  0.00    +0.000 NA
ATOM      8  H   UNL     1       1.558  11.350  19.660  0.00  0.00    +0.000 HD
ENDROOT
BRANCH   1  12
ATOM      9  C   UNL     1      -3.458  15.318  22.508  0.00  0.00    +0.000 A 
ATOM     10  C   UNL     1      -2.087  15.162  22.328  0.00  0.00    +0.000 A 
ATOM     11  C   UNL     1      -1.617  14.219  21.413  0.00  0.00    +0.000 A 
ATOM     12  C   UNL     1      -2.505  13.411  20.688  0.00  0.00    +0.000 A 
ATOM     13  C   UNL     1      -3.855  13.655  20.923  0.00  0.00    +0.000 A 
ATOM     14  N   UNL     1      -4.345  14.566  21.809  0.00  0.00    +0.000 NA
BRANCH   9  18
ATOM     15  C   UNL     1      -5.069  18.179  25.294  0.00  0.00    +0.000 A 
ATOM     16  C   UNL     1      -5.913  17.532  24.399  0.00  0.00    +0.000 A 
ATOM     17  C   UNL     1      -5.394  16.593  23.503  0.00  0.00    +0.000 A 
ATOM     18  C   UNL     1      -4.020  16.282  23.475  0.00  0.00    +0.000 A 
ATOM     19  C   UNL     1      -3.194  16.940  24.403  0.00  0.00    +0.000 A 
ATOM     20  C   UNL     1      -3.709  17.881  25.301  0.00  0.00    +0.000 A 
ENDBRANCH   9  18
ENDBRANCH   1  12
BRANCH   6  21
ATOM     21  C   UNL     1       1.612   9.432  18.955  0.00  0.00    +0.000 A 
ATOM     22  C   UNL     1       2.264   9.019  17.790  0.00  0.00    +0.000 A 
ATOM     23  C   UNL     1       2.809   7.728  17.683  0.00  0.00    +0.000 A 
ATOM     24  C   UNL     1       2.721   6.801  18.739  0.00  0.00    +0.000 A 
ATOM     25  C   UNL     1       2.056   7.225  19.901  0.00  0.00    +0.000 A 
ATOM     26  C   UNL     1       1.523   8.517  20.009  0.00  0.00    +0.000 A 
BRANCH  24  27
ATOM     27  N   UNL     1       3.292   5.470  18.638  0.00  0.00    +0.000 N 
BRANCH  27  28
ATOM     28  C   UNL     1       4.627   5.277  18.090  0.00  0.00    +0.000 A 
ATOM     29  C   UNL     1       5.777   5.572  18.849  0.00  0.00    +0.000 A 
ATOM     30  C   UNL     1       7.063   5.328  18.357  0.00  0.00    +0.000 A 
ATOM     31  C   UNL     1       7.232   4.833  17.069  0.00  0.00    +0.000 A 
ATOM     32  C   UNL     1       6.116   4.567  16.281  0.00  0.00    +0.000 A 
ATOM     33  C   UNL     1       4.828   4.769  16.793  0.00  0.00    +0.000 A 
ENDBRANCH  27  28
BRANCH  27  34
ATOM     34  C   UNL     1       2.545   4.314  19.105  0.00  0.00    +0.000 A 
ATOM     35  C   UNL     1       1.558   3.714  18.297  0.00  0.00    +0.000 A 
ATOM     36  C   UNL     1       0.902   2.544  18.692  0.00  0.00    +0.000 A 
ATOM     37  C   UNL     1       1.186   1.975  19.929  0.00  0.00    +0.000 A 
ATOM     38  C   UNL     1       2.125   2.572  20.766  0.00  0.00    +0.000 A 
ATOM     39  C   UNL     1       2.806   3.723  20.354  0.00  0.00    +0.000 A 
ENDBRANCH  27  34
ENDBRANCH  24  27
ENDBRANCH   6  21
TORSDOF 6
ENDMDL
