MODEL 1
REMARK VINA RESULT:     -10.0      0.000      0.000
REMARK  Name = 
REMARK  6 active torsions:
REMARK  status: ('A' for Active; 'I' for Inactive)
REMARK    1  A    between atoms: C_2  and  O_3
REMARK    2  A    between atoms: C_2  and  C_4
REMARK    3  A    between atoms: C_6  and  C_7
REMARK    4  A    between atoms: C_10  and  C_11
REMARK    5  A    between atoms: C_20  and  N_21
REMARK    6  A    between atoms: C_23  and  C_24
REMARK                            x       y       z     vdW  Elec       q    Type
REMARK                         _______ _______ _______ _____ _____    ______ ____
ROOT
ATOM      1  C   UNL     1       2.640   4.272  20.471  0.00  0.00    +0.000 A 
ATOM      2  C   UNL     1       2.032   5.530  20.595  0.00  0.00    +0.000 A 
ATOM      3  C   UNL     1       2.511   6.642  19.885  0.00  0.00    +0.000 A 
ATOM      4  C   UNL     1       3.672   6.470  19.115  0.00  0.00    +0.000 A 
ATOM      5  C   UNL     1       4.237   5.207  18.915  0.00  0.00    +0.000 A 
ATOM      6  C   UNL     1       3.717   4.097  19.598  0.00  0.00    +0.000 A 
ENDROOT
BRANCH   3   7
ATOM      7  C   UNL     1       1.759   7.913  19.824  0.00  0.00    +0.000 A 
ATOM      8  C   UNL     1       0.992   8.381  20.894  0.00  0.00    +0.000 A 
ATOM      9  C   UNL     1       0.198   9.528  20.768  0.00  0.00    +0.000 A 
ATOM     10  C   UNL     1       0.135  10.250  19.568  0.00  0.00    +0.000 A 
ATOM     11  C   UNL     1       0.947   9.818  18.515  0.00  0.00    +0.000 A 
ATOM     12  C   UNL     1       1.726   8.667  18.636  0.00  0.00    +0.000 A 
BRANCH  10  13
ATOM     13  C   UNL     1      -0.736  11.487  19.373  0.00  0.00    +0.000 C 
ATOM     14  C   UNL     1      -0.120  12.611  18.520  0.00  0.00    +0.000 C 
ATOM     15  C   UNL     1       0.939  13.412  19.285  0.00  0.00    +0.000 C 
ATOM     16  N   UNL     1       0.420  13.961  20.538  0.00  0.00    +0.000 NA
ATOM     17  C   UNL     1      -0.111  12.902  21.399  0.00  0.00    +0.000 C 
ATOM     18  C   UNL     1      -1.216  12.108  20.703  0.00  0.00    +0.000 C 
ATOM     19  H   UNL     1      -0.323  14.627  20.329  0.00  0.00    +0.000 HD
ENDBRANCH  10  13
ENDBRANCH   3   7
BRANCH   5  20
ATOM     20  N   UNL     1       5.259   5.040  17.949  0.00  0.00    +0.000 N 
ATOM     21  C   UNL     1       5.184   5.220  16.591  0.00  0.00    +0.000 A 
ATOM     22  C   UNL     1       6.385   4.756  16.117  0.00  0.00    +0.000 A 
ATOM     23  N   UNL     1       7.171   4.367  17.160  0.00  0.00    +0.000 NA
ATOM     24  N   UNL     1       6.487   4.569  18.280  0.00  0.00    +0.000 NA
BRANCH  22  25
ATOM     25  C   UNL     1       6.747   4.684  14.686  0.00  0.00    +0.000 A 
ATOM     26  C   UNL     1       6.171   3.856  13.745  0.00  0.00    +0.000 A 
ATOM     27  C   UNL     1       6.830   4.115  12.518  0.00  0.00    +0.000 A 
ATOM     28  C   UNL     1       7.761   5.090  12.783  0.00  0.00    +0.000 A 
ATOM     29  O   UNL     1       7.714   5.448  14.092  0.00  0.00    +0.000 OA
ENDBRANCH  22  25
ENDBRANCH   5  20
BRANCH   1  31
ATOM     30  O   UNL     1       2.631   2.478  22.034  0.00  0.00    +0.000 OA
ATOM     31  C   UNL     1       2.025   3.134  21.207  0.00  0.00    +0.000 C 
BRANCH  31  32
ATOM     32  O   UNL     1       0.756   2.867  20.838  0.00  0.00    +0.000 OA
ATOM     33  H   UNL     1       0.354   3.494  20.211  0.00  0.00    +0.000 HD
ENDBRANCH  31  32
ENDBRANCH   1  31
TORSDOF 6
ENDMDL
MODEL 2
REMARK VINA RESULT:      -9.9      0.491      1.029
REMARK  Name = 
REMARK  6 active torsions:
REMARK  status: ('A' for Active; 'I' for Inactive)
REMARK    1  A    between atoms: C_2  and  O_3
REMARK    2  A    between atoms: C_2  and  C_4
REMARK    3  A    between atoms: C_6  and  C_7
REMARK    4  A    between atoms: C_10  and  C_11
REMARK    5  A    between atoms: C_20  and  N_21
REMARK    6  A    between atoms: C_23  and  C_24
REMARK                            x       y       z     vdW  Elec       q    Type
REMARK                         _______ _______ _______ _____ _____    ______ ____
ROOT
ATOM      1  C   UNL     1       2.630   4.316  20.465  0.00  0.00    +0.000 A 
ATOM      2  C   UNL     1       2.016   5.573  20.566  0.00  0.00    +0.000 A 
ATOM      3  C   UNL     1       2.492   6.674  19.837  0.00  0.00    +0.000 A 
ATOM      4  C   UNL     1       3.655   6.494  19.072  0.00  0.00    +0.000 A 
ATOM      5  C   UNL     1       4.227   5.229  18.897  0.00  0.00    +0.000 A 
ATOM      6  C   UNL     1       3.709   4.130  19.598  0.00  0.00    +0.000 A 
ENDROOT
BRANCH   3   7
ATOM      7  C   UNL     1       1.734   7.941  19.750  0.00  0.00    +0.000 A 
ATOM      8  C   UNL     1       1.696   8.711  18.585  0.00  0.00    +0.000 A 
ATOM      9  C   UNL     1       1.068   9.963  18.566  0.00  0.00    +0.000 A 
ATOM     10  C   UNL     1       0.455  10.495  19.709  0.00  0.00    +0.000 A 
ATOM     11  C   UNL     1       0.440   9.701  20.859  0.00  0.00    +0.000 A 
ATOM     12  C   UNL     1       1.080   8.461  20.883  0.00  0.00    +0.000 A 
BRANCH  10  13
ATOM     13  C   UNL     1      -0.216  11.865  19.747  0.00  0.00    +0.000 C 
ATOM     14  C   UNL     1      -0.015  12.744  18.499  0.00  0.00    +0.000 C 
ATOM     15  C   UNL     1       1.382  13.370  18.444  0.00  0.00    +0.000 C 
ATOM     16  N   UNL     1       1.693  14.136  19.651  0.00  0.00    +0.000 NA
ATOM     17  C   UNL     1       1.576  13.303  20.851  0.00  0.00    +0.000 C 
ATOM     18  C   UNL     1       0.179  12.700  20.985  0.00  0.00    +0.000 C 
ATOM     19  H   UNL     1       1.048  14.922  19.725  0.00  0.00    +0.000 HD
ENDBRANCH  10  13
ENDBRANCH   3   7
BRANCH   5  20
ATOM     20  N   UNL     1       5.251   5.049  17.936  0.00  0.00    +0.000 N 
ATOM     21  C   UNL     1       5.187   5.232  16.579  0.00  0.00    +0.000 A 
ATOM     22  C   UNL     1       6.384   4.752  16.111  0.00  0.00    +0.000 A 
ATOM     23  N   UNL     1       7.158   4.351  17.158  0.00  0.00    +0.000 NA
ATOM     24  N   UNL     1       6.471   4.561  18.274  0.00  0.00    +0.000 NA
BRANCH  22  25
ATOM     25  C   UNL     1       6.753   4.677  14.682  0.00  0.00    +0.000 A 
ATOM     26  C   UNL     1       6.176   3.854  13.737  0.00  0.00    +0.000 A 
ATOM     27  C   UNL     1       6.844   4.107  12.515  0.00  0.00    +0.000 A 
ATOM     28  C   UNL     1       7.781   5.075  12.785  0.00  0.00    +0.000 A 
ATOM     29  O   UNL     1       7.730   5.433  14.094  0.00  0.00    +0.000 OA
ENDBRANCH  22  25
ENDBRANCH   5  20
BRANCH   1  31
ATOM     30  O   UNL     1       2.632   2.532  22.040  0.00  0.00    +0.000 OA
ATOM     31  C   UNL     1       2.018   3.189  21.221  0.00  0.00    +0.000 C 
BRANCH  31  32
ATOM     32  O   UNL     1       0.740   2.932  20.877  0.00  0.00    +0.000 OA
ATOM     33  H   UNL     1       0.593   2.121  20.359  0.00  0.00    +0.000 HD
ENDBRANCH  31  32
ENDBRANCH   1  31
TORSDOF 6
ENDMDL
MODEL 3
REMARK VINA RESULT:      -9.9      0.911      1.655
REMARK  Name = 
REMARK  6 active torsions:
REMARK  status: ('A' for Active; 'I' for Inactive)
REMARK    1  A    between atoms: C_2  and  O_3
REMARK    2  A    between atoms: C_2  and  C_4
REMARK    3  A    between atoms: C_6  and  C_7
REMARK    4  A    between atoms: C_10  and  C_11
REMARK    5  A    between atoms: C_20  and  N_21
REMARK    6  A    between atoms: C_23  and  C_24
REMARK                            x       y       z     vdW  Elec       q    Type
REMARK                         _______ _______ _______ _____ _____    ______ ____
ROOT
ATOM      1  C   UNL     1       2.363   4.535  20.391  0.00  0.00    +0.000 A 
ATOM      2  C   UNL     1       1.828   5.830  20.471  0.00  0.00    +0.000 A 
ATOM      3  C   UNL     1       2.398   6.897  19.760  0.00  0.00    +0.000 A 
ATOM      4  C   UNL     1       3.572   6.641  19.034  0.00  0.00    +0.000 A 
ATOM      5  C   UNL     1       4.067   5.342  18.877  0.00  0.00    +0.000 A 
ATOM      6  C   UNL     1       3.457   4.280  19.560  0.00  0.00    +0.000 A 
ENDROOT
BRANCH   3   7
ATOM      7  C   UNL     1       1.727   8.209  19.649  0.00  0.00    +0.000 A 
ATOM      8  C   UNL     1       1.721   8.949  18.463  0.00  0.00    +0.000 A 
ATOM      9  C   UNL     1       1.178  10.239  18.418  0.00  0.00    +0.000 A 
ATOM     10  C   UNL     1       0.623  10.843  19.554  0.00  0.00    +0.000 A 
ATOM     11  C   UNL     1       0.573  10.083  20.727  0.00  0.00    +0.000 A 
ATOM     12  C   UNL     1       1.129   8.803  20.775  0.00  0.00    +0.000 A 
BRANCH  10  13
ATOM     13  C   UNL     1       0.047  12.255  19.563  0.00  0.00    +0.000 C 
ATOM     14  C   UNL     1      -0.957  12.562  20.689  0.00  0.00    +0.000 C 
ATOM     15  C   UNL     1      -2.334  11.944  20.430  0.00  0.00    +0.000 C 
ATOM     16  N   UNL     1      -2.890  12.352  19.140  0.00  0.00    +0.000 NA
ATOM     17  C   UNL     1      -1.984  12.009  18.041  0.00  0.00    +0.000 C 
ATOM     18  C   UNL     1      -0.609  12.651  18.221  0.00  0.00    +0.000 C 
ATOM     19  H   UNL     1      -3.044  13.359  19.145  0.00  0.00    +0.000 HD
ENDBRANCH  10  13
ENDBRANCH   3   7
BRANCH   5  20
ATOM     20  N   UNL     1       5.110   5.096  17.952  0.00  0.00    +0.000 N 
ATOM     21  C   UNL     1       5.114   5.313  16.597  0.00  0.00    +0.000 A 
ATOM     22  C   UNL     1       6.283   4.742  16.163  0.00  0.00    +0.000 A 
ATOM     23  N   UNL     1       6.978   4.251  17.227  0.00  0.00    +0.000 NA
ATOM     24  N   UNL     1       6.269   4.496  18.322  0.00  0.00    +0.000 NA
BRANCH  22  25
ATOM     25  C   UNL     1       6.701   4.667  14.747  0.00  0.00    +0.000 A 
ATOM     26  C   UNL     1       6.158   3.841  13.784  0.00  0.00    +0.000 A 
ATOM     27  C   UNL     1       6.866   4.096  12.585  0.00  0.00    +0.000 A 
ATOM     28  C   UNL     1       7.791   5.066  12.886  0.00  0.00    +0.000 A 
ATOM     29  O   UNL     1       7.695   5.425  14.192  0.00  0.00    +0.000 OA
ENDBRANCH  22  25
ENDBRANCH   5  20
BRANCH   1  31
ATOM     30  O   UNL     1       2.112   2.920  22.119  0.00  0.00    +0.000 OA
ATOM     31  C   UNL     1       1.655   3.452  21.125  0.00  0.00    +0.000 C 
BRANCH  31  32
ATOM     32  O   UNL     1       0.490   3.080  20.558  0.00  0.00    +0.000 OA
ATOM     33  H   UNL     1       0.341   2.120  20.481  0.00  0.00    +0.000 HD
ENDBRANCH  31  32
ENDBRANCH   1  31
TORSDOF 6
ENDMDL
MODEL 4
REMARK VINA RESULT:      -9.3      0.762      1.253
REMARK  Name = 
REMARK  6 active torsions:
REMARK  status: ('A' for Active; 'I' for Inactive)
REMARK    1  A    between atoms: C_2  and  O_3
REMARK    2  A    between atoms: C_2  and  C_4
REMARK    3  A    between atoms: C_6  and  C_7
REMARK    4  A    between atoms: C_10  and  C_11
REMARK    5  A    between atoms: C_20  and  N_21
REMARK    6  A    between atoms: C_23  and  C_24
REMARK                            x       y       z     vdW  Elec       q    Type
REMARK                         _______ _______ _______ _____ _____    ______ ____
ROOT
ATOM      1  C   UNL     1       2.604   4.425  20.352  0.00  0.00    +0.000 A 
ATOM      2  C   UNL     1       2.020   5.699  20.419  0.00  0.00    +0.000 A 
ATOM      3  C   UNL     1       2.482   6.753  19.615  0.00  0.00    +0.000 A 
ATOM      4  C   UNL     1       3.603   6.511  18.807  0.00  0.00    +0.000 A 
ATOM      5  C   UNL     1       4.142   5.227  18.667  0.00  0.00    +0.000 A 
ATOM      6  C   UNL     1       3.637   4.175  19.446  0.00  0.00    +0.000 A 
ENDROOT
BRANCH   3   7
ATOM      7  C   UNL     1       1.745   8.030  19.502  0.00  0.00    +0.000 A 
ATOM      8  C   UNL     1       1.802   8.827  18.355  0.00  0.00    +0.000 A 
ATOM      9  C   UNL     1       1.189  10.085  18.318  0.00  0.00    +0.000 A 
ATOM     10  C   UNL     1       0.498  10.600  19.424  0.00  0.00    +0.000 A 
ATOM     11  C   UNL     1       0.390   9.780  20.552  0.00  0.00    +0.000 A 
ATOM     12  C   UNL     1       1.014   8.532  20.594  0.00  0.00    +0.000 A 
BRANCH  10  13
ATOM     13  C   UNL     1      -0.160  11.975  19.444  0.00  0.00    +0.000 C 
ATOM     14  C   UNL     1       0.798  13.178  19.378  0.00  0.00    +0.000 C 
ATOM     15  C   UNL     1       1.504  13.437  20.712  0.00  0.00    +0.000 C 
ATOM     16  N   UNL     1       0.557  13.612  21.814  0.00  0.00    +0.000 NA
ATOM     17  C   UNL     1      -0.324  12.449  21.943  0.00  0.00    +0.000 C 
ATOM     18  C   UNL     1      -1.099  12.181  20.654  0.00  0.00    +0.000 C 
ATOM     19  H   UNL     1      -0.007  14.443  21.642  0.00  0.00    +0.000 HD
ENDBRANCH  10  13
ENDBRANCH   3   7
BRANCH   5  20
ATOM     20  N   UNL     1       5.115   4.979  17.670  0.00  0.00    +0.000 N 
ATOM     21  C   UNL     1       4.963   5.004  16.307  0.00  0.00    +0.000 A 
ATOM     22  C   UNL     1       6.151   4.520  15.821  0.00  0.00    +0.000 A 
ATOM     23  N   UNL     1       7.003   4.271  16.855  0.00  0.00    +0.000 NA
ATOM     24  N   UNL     1       6.374   4.580  17.982  0.00  0.00    +0.000 NA
BRANCH  22  25
ATOM     25  C   UNL     1       6.439   4.298  14.389  0.00  0.00    +0.000 A 
ATOM     26  C   UNL     1       7.419   4.931  13.651  0.00  0.00    +0.000 A 
ATOM     27  C   UNL     1       7.328   4.420  12.333  0.00  0.00    +0.000 A 
ATOM     28  C   UNL     1       6.307   3.501  12.349  0.00  0.00    +0.000 A 
ATOM     29  O   UNL     1       5.766   3.414  13.591  0.00  0.00    +0.000 OA
ENDBRANCH  22  25
ENDBRANCH   5  20
BRANCH   1  31
ATOM     30  O   UNL     1       2.621   2.789  22.079  0.00  0.00    +0.000 OA
ATOM     31  C   UNL     1       2.008   3.351  21.191  0.00  0.00    +0.000 C 
BRANCH  31  32
ATOM     32  O   UNL     1       0.748   3.022  20.842  0.00  0.00    +0.000 OA
ATOM     33  H   UNL     1       0.659   2.409  20.091  0.00  0.00    +0.000 HD
ENDBRANCH  31  32
ENDBRANCH   1  31
TORSDOF 6
ENDMDL
MODEL 5
REMARK VINA RESULT:      -9.2      1.027      1.339
REMARK  Name = 
REMARK  6 active torsions:
REMARK  status: ('A' for Active; 'I' for Inactive)
REMARK    1  A    between atoms: C_2  and  O_3
REMARK    2  A    between atoms: C_2  and  C_4
REMARK    3  A    between atoms: C_6  and  C_7
REMARK    4  A    between atoms: C_10  and  C_11
REMARK    5  A    between atoms: C_20  and  N_21
REMARK    6  A    between atoms: C_23  and  C_24
REMARK                            x       y       z     vdW  Elec       q    Type
REMARK                         _______ _______ _______ _____ _____    ______ ____
ROOT
ATOM      1  C   UNL     1       2.319   4.172  19.559  0.00  0.00    +0.000 A 
ATOM      2  C   UNL     1       1.808   5.405  19.992  0.00  0.00    +0.000 A 
ATOM      3  C   UNL     1       2.402   6.615  19.600  0.00  0.00    +0.000 A 
ATOM      4  C   UNL     1       3.576   6.545  18.833  0.00  0.00    +0.000 A 
ATOM      5  C   UNL     1       4.047   5.329  18.326  0.00  0.00    +0.000 A 
ATOM      6  C   UNL     1       3.413   4.133  18.691  0.00  0.00    +0.000 A 
ENDROOT
BRANCH   3   7
ATOM      7  C   UNL     1       1.756   7.920  19.853  0.00  0.00    +0.000 A 
ATOM      8  C   UNL     1       1.182   8.245  21.085  0.00  0.00    +0.000 A 
ATOM      9  C   UNL     1       0.476   9.441  21.261  0.00  0.00    +0.000 A 
ATOM     10  C   UNL     1       0.311  10.359  20.214  0.00  0.00    +0.000 A 
ATOM     11  C   UNL     1       0.935  10.064  18.998  0.00  0.00    +0.000 A 
ATOM     12  C   UNL     1       1.625   8.865  18.818  0.00  0.00    +0.000 A 
BRANCH  10  13
ATOM     13  C   UNL     1      -0.473  11.660  20.348  0.00  0.00    +0.000 C 
ATOM     14  C   UNL     1      -1.806  11.720  19.581  0.00  0.00    +0.000 C 
ATOM     15  C   UNL     1      -1.607  11.931  18.077  0.00  0.00    +0.000 C 
ATOM     16  N   UNL     1      -0.809  13.122  17.786  0.00  0.00    +0.000 NA
ATOM     17  C   UNL     1       0.495  13.060  18.449  0.00  0.00    +0.000 C 
ATOM     18  C   UNL     1       0.353  12.908  19.963  0.00  0.00    +0.000 C 
ATOM     19  H   UNL     1      -1.311  13.949  18.110  0.00  0.00    +0.000 HD
ENDBRANCH  10  13
ENDBRANCH   3   7
BRANCH   5  20
ATOM     20  N   UNL     1       5.090   5.326  17.369  0.00  0.00    +0.000 N 
ATOM     21  C   UNL     1       5.002   5.134  16.014  0.00  0.00    +0.000 A 
ATOM     22  C   UNL     1       6.305   5.048  15.594  0.00  0.00    +0.000 A 
ATOM     23  N   UNL     1       7.142   5.239  16.652  0.00  0.00    +0.000 NA
ATOM     24  N   UNL     1       6.394   5.437  17.731  0.00  0.00    +0.000 NA
BRANCH  22  25
ATOM     25  C   UNL     1       6.717   4.775  14.202  0.00  0.00    +0.000 A 
ATOM     26  C   UNL     1       6.179   3.815  13.370  0.00  0.00    +0.000 A 
ATOM     27  C   UNL     1       6.880   3.901  12.143  0.00  0.00    +0.000 A 
ATOM     28  C   UNL     1       7.797   4.912  12.296  0.00  0.00    +0.000 A 
ATOM     29  O   UNL     1       7.702   5.454  13.538  0.00  0.00    +0.000 OA
ENDBRANCH  22  25
ENDBRANCH   5  20
BRANCH   1  31
ATOM     30  O   UNL     1       1.944   1.824  19.649  0.00  0.00    +0.000 OA
ATOM     31  C   UNL     1       1.587   2.943  19.968  0.00  0.00    +0.000 C 
BRANCH  31  32
ATOM     32  O   UNL     1       0.466   3.185  20.677  0.00  0.00    +0.000 OA
ATOM     33  H   UNL     1       0.118   2.437  21.193  0.00  0.00    +0.000 HD
ENDBRANCH  31  32
ENDBRANCH   1  31
TORSDOF 6
ENDMDL
MODEL 6
REMARK VINA RESULT:      -8.9      0.968      1.040
REMARK  Name = 
REMARK  6 active torsions:
REMARK  status: ('A' for Active; 'I' for Inactive)
REMARK    1  A    between atoms: C_2  and  O_3
REMARK    2  A    between atoms: C_2  and  C_4
REMARK    3  A    between atoms: C_6  and  C_7
REMARK    4  A    between atoms: C_10  and  C_11
REMARK    5  A    between atoms: C_20  and  N_21
REMARK    6  A    between atoms: C_23  and  C_24
REMARK                            x       y       z     vdW  Elec       q    Type
REMARK                         _______ _______ _______ _____ _____    ______ ____
ROOT
ATOM      1  C   UNL     1       2.254   4.310  20.177  0.00  0.00    +0.000 A 
ATOM      2  C   UNL     1       1.932   5.673  20.259  0.00  0.00    +0.000 A 
ATOM      3  C   UNL     1       2.536   6.615  19.411  0.00  0.00    +0.000 A 
ATOM      4  C   UNL     1       3.536   6.156  18.539  0.00  0.00    +0.000 A 
ATOM      5  C   UNL     1       3.806   4.792  18.387  0.00  0.00    +0.000 A 
ATOM      6  C   UNL     1       3.158   3.861  19.212  0.00  0.00    +0.000 A 
ENDROOT
BRANCH   3   7
ATOM      7  C   UNL     1       2.055   8.009  19.323  0.00  0.00    +0.000 A 
ATOM      8  C   UNL     1       1.303   8.607  20.338  0.00  0.00    +0.000 A 
ATOM      9  C   UNL     1       0.762   9.889  20.179  0.00  0.00    +0.000 A 
ATOM     10  C   UNL     1       0.947  10.624  18.999  0.00  0.00    +0.000 A 
ATOM     11  C   UNL     1       1.749  10.052  18.006  0.00  0.00    +0.000 A 
ATOM     12  C   UNL     1       2.274   8.769  18.159  0.00  0.00    +0.000 A 
BRANCH  10  13
ATOM     13  C   UNL     1       0.355  12.010  18.766  0.00  0.00    +0.000 C 
ATOM     14  C   UNL     1       1.352  13.099  18.331  0.00  0.00    +0.000 C 
ATOM     15  C   UNL     1       2.212  13.603  19.493  0.00  0.00    +0.000 C 
ATOM     16  N   UNL     1       1.404  14.084  20.613  0.00  0.00    +0.000 NA
ATOM     17  C   UNL     1       0.493  13.043  21.093  0.00  0.00    +0.000 C 
ATOM     18  C   UNL     1      -0.432  12.545  19.983  0.00  0.00    +0.000 C 
ATOM     19  H   UNL     1       0.860  14.892  20.311  0.00  0.00    +0.000 HD
ENDBRANCH  10  13
ENDBRANCH   3   7
BRANCH   5  20
ATOM     20  N   UNL     1       4.647   4.356  17.335  0.00  0.00    +0.000 N 
ATOM     21  C   UNL     1       5.330   5.117  16.421  0.00  0.00    +0.000 A 
ATOM     22  C   UNL     1       5.836   4.206  15.528  0.00  0.00    +0.000 A 
ATOM     23  N   UNL     1       5.515   2.944  15.928  0.00  0.00    +0.000 NA
ATOM     24  N   UNL     1       4.812   3.040  17.049  0.00  0.00    +0.000 NA
BRANCH  22  25
ATOM     25  C   UNL     1       6.599   4.563  14.314  0.00  0.00    +0.000 A 
ATOM     26  C   UNL     1       6.395   4.052  13.048  0.00  0.00    +0.000 A 
ATOM     27  C   UNL     1       7.353   4.663  12.204  0.00  0.00    +0.000 A 
ATOM     28  C   UNL     1       8.078   5.515  13.002  0.00  0.00    +0.000 A 
ATOM     29  O   UNL     1       7.625   5.467  14.281  0.00  0.00    +0.000 OA
ENDBRANCH  22  25
ENDBRANCH   5  20
BRANCH   1  31
ATOM     30  O   UNL     1       1.947   3.010  22.146  0.00  0.00    +0.000 OA
ATOM     31  C   UNL     1       1.516   3.374  21.068  0.00  0.00    +0.000 C 
BRANCH  31  32
ATOM     32  O   UNL     1       0.354   2.929  20.549  0.00  0.00    +0.000 OA
ATOM     33  H   UNL     1      -0.130   3.557  19.984  0.00  0.00    +0.000 HD
ENDBRANCH  31  32
ENDBRANCH   1  31
TORSDOF 6
ENDMDL
MODEL 7
REMARK VINA RESULT:      -8.9      1.105      1.441
REMARK  Name = 
REMARK  6 active torsions:
REMARK  status: ('A' for Active; 'I' for Inactive)
REMARK    1  A    between atoms: C_2  and  O_3
REMARK    2  A    between atoms: C_2  and  C_4
REMARK    3  A    between atoms: C_6  and  C_7
REMARK    4  A    between atoms: C_10  and  C_11
REMARK    5  A    between atoms: C_20  and  N_21
REMARK    6  A    between atoms: C_23  and  C_24
REMARK                            x       y       z     vdW  Elec       q    Type
REMARK                         _______ _______ _______ _____ _____    ______ ____
ROOT
ATOM      1  C   UNL     1       2.484   4.338  20.270  0.00  0.00    +0.000 A 
ATOM      2  C   UNL     1       2.117   5.692  20.329  0.00  0.00    +0.000 A 
ATOM      3  C   UNL     1       2.647   6.628  19.427  0.00  0.00    +0.000 A 
ATOM      4  C   UNL     1       3.621   6.179  18.522  0.00  0.00    +0.000 A 
ATOM      5  C   UNL     1       3.933   4.821  18.396  0.00  0.00    +0.000 A 
ATOM      6  C   UNL     1       3.359   3.893  19.277  0.00  0.00    +0.000 A 
ENDROOT
BRANCH   3   7
ATOM      7  C   UNL     1       2.112   8.001  19.322  0.00  0.00    +0.000 A 
ATOM      8  C   UNL     1       1.362   8.592  20.343  0.00  0.00    +0.000 A 
ATOM      9  C   UNL     1       0.770   9.849  20.171  0.00  0.00    +0.000 A 
ATOM     10  C   UNL     1       0.900  10.565  18.973  0.00  0.00    +0.000 A 
ATOM     11  C   UNL     1       1.699  10.004  17.972  0.00  0.00    +0.000 A 
ATOM     12  C   UNL     1       2.275   8.744  18.138  0.00  0.00    +0.000 A 
BRANCH  10  13
ATOM     13  C   UNL     1       0.251  11.923  18.726  0.00  0.00    +0.000 C 
ATOM     14  C   UNL     1       0.110  12.832  19.961  0.00  0.00    +0.000 C 
ATOM     15  C   UNL     1      -1.032  12.394  20.883  0.00  0.00    +0.000 C 
ATOM     16  N   UNL     1      -2.311  12.306  20.178  0.00  0.00    +0.000 NA
ATOM     17  C   UNL     1      -2.223  11.392  19.036  0.00  0.00    +0.000 C 
ATOM     18  C   UNL     1      -1.136  11.819  18.052  0.00  0.00    +0.000 C 
ATOM     19  H   UNL     1      -2.574  13.233  19.846  0.00  0.00    +0.000 HD
ENDBRANCH  10  13
ENDBRANCH   3   7
BRANCH   5  20
ATOM     20  N   UNL     1       4.741   4.383  17.318  0.00  0.00    +0.000 N 
ATOM     21  C   UNL     1       5.443   5.143  16.417  0.00  0.00    +0.000 A 
ATOM     22  C   UNL     1       5.897   4.241  15.489  0.00  0.00    +0.000 A 
ATOM     23  N   UNL     1       5.528   2.981  15.854  0.00  0.00    +0.000 NA
ATOM     24  N   UNL     1       4.845   3.071  16.988  0.00  0.00    +0.000 NA
BRANCH  22  25
ATOM     25  C   UNL     1       6.658   4.603  14.275  0.00  0.00    +0.000 A 
ATOM     26  C   UNL     1       6.475   4.072  13.015  0.00  0.00    +0.000 A 
ATOM     27  C   UNL     1       7.422   4.698  12.169  0.00  0.00    +0.000 A 
ATOM     28  C   UNL     1       8.118   5.580  12.960  0.00  0.00    +0.000 A 
ATOM     29  O   UNL     1       7.659   5.535  14.237  0.00  0.00    +0.000 OA
ENDBRANCH  22  25
ENDBRANCH   5  20
BRANCH   1  31
ATOM     30  O   UNL     1       2.385   2.951  22.200  0.00  0.00    +0.000 OA
ATOM     31  C   UNL     1       1.823   3.405  21.221  0.00  0.00    +0.000 C 
BRANCH  31  32
ATOM     32  O   UNL     1       0.565   3.068  20.870  0.00  0.00    +0.000 OA
ATOM     33  H   UNL     1       0.145   2.371  21.405  0.00  0.00    +0.000 HD
ENDBRANCH  31  32
ENDBRANCH   1  31
TORSDOF 6
ENDMDL
MODEL 8
REMARK VINA RESULT:      -8.8      1.592      2.162
REMARK  Name = 
REMARK  6 active torsions:
REMARK  status: ('A' for Active; 'I' for Inactive)
REMARK    1  A    between atoms: C_2  and  O_3
REMARK    2  A    between atoms: C_2  and  C_4
REMARK    3  A    between atoms: C_6  and  C_7
REMARK    4  A    between atoms: C_10  and  C_11
REMARK    5  A    between atoms: C_20  and  N_21
REMARK    6  A    between atoms: C_23  and  C_24
REMARK                            x       y       z     vdW  Elec       q    Type
REMARK                         _______ _______ _______ _____ _____    ______ ____
ROOT
ATOM      1  C   UNL     1       4.008   4.120  19.300  0.00  0.00    +0.000 A 
ATOM      2  C   UNL     1       3.294   5.289  19.604  0.00  0.00    +0.000 A 
ATOM      3  C   UNL     1       3.283   6.383  18.725  0.00  0.00    +0.000 A 
ATOM      4  C   UNL     1       4.082   6.300  17.574  0.00  0.00    +0.000 A 
ATOM      5  C   UNL     1       4.731   5.113  17.217  0.00  0.00    +0.000 A 
ATOM      6  C   UNL     1       4.693   4.013  18.087  0.00  0.00    +0.000 A 
ENDROOT
BRANCH   3   7
ATOM      7  C   UNL     1       2.366   7.527  18.912  0.00  0.00    +0.000 A 
ATOM      8  C   UNL     1       2.056   8.414  17.878  0.00  0.00    +0.000 A 
ATOM      9  C   UNL     1       1.277   9.554  18.113  0.00  0.00    +0.000 A 
ATOM     10  C   UNL     1       0.778   9.855  19.387  0.00  0.00    +0.000 A 
ATOM     11  C   UNL     1       1.036   8.937  20.411  0.00  0.00    +0.000 A 
ATOM     12  C   UNL     1       1.826   7.810  20.180  0.00  0.00    +0.000 A 
BRANCH  10  13
ATOM     13  C   UNL     1      -0.049  11.097  19.699  0.00  0.00    +0.000 C 
ATOM     14  C   UNL     1      -0.117  12.154  18.582  0.00  0.00    +0.000 C 
ATOM     15  C   UNL     1       1.173  12.975  18.474  0.00  0.00    +0.000 C 
ATOM     16  N   UNL     1       1.533  13.609  19.742  0.00  0.00    +0.000 NA
ATOM     17  C   UNL     1       1.671  12.615  20.810  0.00  0.00    +0.000 C 
ATOM     18  C   UNL     1       0.389  11.807  20.999  0.00  0.00    +0.000 C 
ATOM     19  H   UNL     1       0.809  14.278  20.000  0.00  0.00    +0.000 HD
ENDBRANCH  10  13
ENDBRANCH   3   7
BRANCH   5  20
ATOM     20  N   UNL     1       5.329   4.997  15.939  0.00  0.00    +0.000 N 
ATOM     21  C   UNL     1       5.116   4.036  14.984  0.00  0.00    +0.000 A 
ATOM     22  C   UNL     1       6.066   4.287  14.028  0.00  0.00    +0.000 A 
ATOM     23  N   UNL     1       6.784   5.393  14.372  0.00  0.00    +0.000 NA
ATOM     24  N   UNL     1       6.310   5.839  15.529  0.00  0.00    +0.000 NA
BRANCH  22  25
ATOM     25  C   UNL     1       6.275   3.461  12.820  0.00  0.00    +0.000 A 
ATOM     26  C   UNL     1       5.316   2.699  12.183  0.00  0.00    +0.000 A 
ATOM     27  C   UNL     1       5.957   2.074  11.085  0.00  0.00    +0.000 A 
ATOM     28  C   UNL     1       7.264   2.500  11.113  0.00  0.00    +0.000 A 
ATOM     29  O   UNL     1       7.465   3.345  12.156  0.00  0.00    +0.000 OA
ENDBRANCH  22  25
ENDBRANCH   5  20
BRANCH   1  31
ATOM     30  O   UNL     1       2.988   2.861  21.042  0.00  0.00    +0.000 OA
ATOM     31  C   UNL     1       3.909   2.985  20.257  0.00  0.00    +0.000 C 
BRANCH  31  32
ATOM     32  O   UNL     1       4.957   2.138  20.210  0.00  0.00    +0.000 OA
ATOM     33  H   UNL     1       4.895   1.418  19.557  0.00  0.00    +0.000 HD
ENDBRANCH  31  32
ENDBRANCH   1  31
TORSDOF 6
ENDMDL
MODEL 9
REMARK VINA RESULT:      -8.8      1.223      1.777
REMARK  Name = 
REMARK  6 active torsions:
REMARK  status: ('A' for Active; 'I' for Inactive)
REMARK    1  A    between atoms: C_2  and  O_3
REMARK    2  A    between atoms: C_2  and  C_4
REMARK    3  A    between atoms: C_6  and  C_7
REMARK    4  A    between atoms: C_10  and  C_11
REMARK    5  A    between atoms: C_20  and  N_21
REMARK    6  A    between atoms: C_23  and  C_24
REMARK                            x       y       z     vdW  Elec       q    Type
REMARK                         _______ _______ _______ _____ _____    ______ ____
ROOT
ATOM      1  C   UNL     1       2.325   4.609  19.997  0.00  0.00    +0.000 A 
ATOM      2  C   UNL     1       1.876   5.932  20.125  0.00  0.00    +0.000 A 
ATOM      3  C   UNL     1       2.486   6.978  19.416  0.00  0.00    +0.000 A 
ATOM      4  C   UNL     1       3.616   6.667  18.642  0.00  0.00    +0.000 A 
ATOM      5  C   UNL     1       4.022   5.344  18.439  0.00  0.00    +0.000 A 
ATOM      6  C   UNL     1       3.370   4.305  19.121  0.00  0.00    +0.000 A 
ENDROOT
BRANCH   3   7
ATOM      7  C   UNL     1       1.896   8.332  19.358  0.00  0.00    +0.000 A 
ATOM      8  C   UNL     1       1.158   8.872  20.414  0.00  0.00    +0.000 A 
ATOM      9  C   UNL     1       0.513  10.108  20.288  0.00  0.00    +0.000 A 
ATOM     10  C   UNL     1       0.575  10.853  19.103  0.00  0.00    +0.000 A 
ATOM     11  C   UNL     1       1.362  10.343  18.065  0.00  0.00    +0.000 A 
ATOM     12  C   UNL     1       1.991   9.103  18.185  0.00  0.00    +0.000 A 
BRANCH  10  13
ATOM     13  C   UNL     1      -0.133  12.189  18.906  0.00  0.00    +0.000 C 
ATOM     14  C   UNL     1      -0.874  12.741  20.137  0.00  0.00    +0.000 C 
ATOM     15  C   UNL     1      -2.198  12.016  20.397  0.00  0.00    +0.000 C 
ATOM     16  N   UNL     1      -3.081  12.039  19.231  0.00  0.00    +0.000 NA
ATOM     17  C   UNL     1      -2.423  11.455  18.059  0.00  0.00    +0.000 C 
ATOM     18  C   UNL     1      -1.123  12.182  17.720  0.00  0.00    +0.000 C 
ATOM     19  H   UNL     1      -3.338  13.004  19.024  0.00  0.00    +0.000 HD
ENDBRANCH  10  13
ENDBRANCH   3   7
BRANCH   5  20
ATOM     20  N   UNL     1       5.013   5.055  17.470  0.00  0.00    +0.000 N 
ATOM     21  C   UNL     1       4.899   5.075  16.103  0.00  0.00    +0.000 A 
ATOM     22  C   UNL     1       6.082   4.547  15.653  0.00  0.00    +0.000 A 
ATOM     23  N   UNL     1       6.896   4.275  16.712  0.00  0.00    +0.000 NA
ATOM     24  N   UNL     1       6.248   4.614  17.819  0.00  0.00    +0.000 NA
BRANCH  22  25
ATOM     25  C   UNL     1       6.402   4.305  14.231  0.00  0.00    +0.000 A 
ATOM     26  C   UNL     1       7.372   4.954  13.495  0.00  0.00    +0.000 A 
ATOM     27  C   UNL     1       7.320   4.413  12.188  0.00  0.00    +0.000 A 
ATOM     28  C   UNL     1       6.329   3.462  12.206  0.00  0.00    +0.000 A 
ATOM     29  O   UNL     1       5.770   3.383  13.441  0.00  0.00    +0.000 OA
ENDBRANCH  22  25
ENDBRANCH   5  20
BRANCH   1  31
ATOM     30  O   UNL     1       0.632   2.957  20.253  0.00  0.00    +0.000 OA
ATOM     31  C   UNL     1       1.577   3.554  20.733  0.00  0.00    +0.000 C 
BRANCH  31  32
ATOM     32  O   UNL     1       2.009   3.360  21.996  0.00  0.00    +0.000 OA
ATOM     33  H   UNL     1       2.806   2.810  22.094  0.00  0.00    +0.000 HD
ENDBRANCH  31  32
ENDBRANCH   1  31
TORSDOF 6
ENDMDL
