MODEL 1
REMARK VINA RESULT:      -9.2      0.000      0.000
REMARK  Name = 
REMARK  6 active torsions:
REMARK  status: ('A' for Active; 'I' for Inactive)
REMARK    1  A    between atoms: C_2  and  C_3
REMARK    2  A    between atoms: C_5  and  C_6
REMARK    3  A    between atoms: C_7  and  C_8
REMARK    4  A    between atoms: C_16  and  N_17
REMARK    5  A    between atoms: N_17  and  C_18
REMARK    6  A    between atoms: C_18  and  C_19
REMARK                            x       y       z     vdW  Elec       q    Type
REMARK                         _______ _______ _______ _____ _____    ______ ____
ROOT
ATOM      1  C   UNL     1       6.771   5.462  16.213  0.00  0.00    +0.000 A 
ATOM      2  N   UNL     1       7.647   6.515  16.388  0.00  0.00    +0.000 NA
ATOM      3  C   UNL     1       7.501   6.880  17.657  0.00  0.00    +0.000 A 
ATOM      4  O   UNL     1       6.528   6.121  18.294  0.00  0.00    +0.000 OA
ATOM      5  C   UNL     1       6.076   5.217  17.376  0.00  0.00    +0.000 A 
ENDROOT
BRANCH   1   7
ATOM      6  N   UNL     1       6.463   4.293  13.924  0.00  0.00    +0.000 NA
ATOM      7  C   UNL     1       6.623   4.804  14.952  0.00  0.00    +0.000 C 
ENDBRANCH   1   7
BRANCH   3   8
ATOM      8  C   UNL     1       8.225   7.889  18.363  0.00  0.00    +0.000 C 
ATOM      9  C   UNL     1       8.320   9.155  17.920  0.00  0.00    +0.000 C 
BRANCH   9  10
ATOM     10  C   UNL     1       9.054  10.240  18.608  0.00  0.00    +0.000 A 
ATOM     11  C   UNL     1       9.141  10.325  20.008  0.00  0.00    +0.000 A 
ATOM     12  C   UNL     1       9.884  11.341  20.620  0.00  0.00    +0.000 A 
ATOM     13  C   UNL     1      10.554  12.274  19.838  0.00  0.00    +0.000 A 
ATOM     14  F   UNL     1      11.268  13.243  20.426  0.00  0.00    +0.000 F 
ATOM     15  C   UNL     1      10.495  12.204  18.454  0.00  0.00    +0.000 A 
ATOM     16  C   UNL     1       9.753  11.188  17.840  0.00  0.00    +0.000 A 
ENDBRANCH   9  10
ENDBRANCH   3   8
BRANCH   5  17
ATOM     17  N   UNL     1       5.118   4.373  17.817  0.00  0.00    +0.000 N 
ATOM     18  H   UNL     1       5.353   3.400  17.992  0.00  0.00    +0.000 HD
BRANCH  17  19
ATOM     19  C   UNL     1       3.700   4.687  17.823  0.00  0.00    +0.000 C 
BRANCH  19  20
ATOM     20  C   UNL     1       2.990   4.126  19.045  0.00  0.00    +0.000 A 
ATOM     21  C   UNL     1       1.636   4.446  19.260  0.00  0.00    +0.000 A 
ATOM     22  C   UNL     1       0.929   3.898  20.335  0.00  0.00    +0.000 A 
ATOM     23  C   UNL     1       1.569   3.018  21.196  0.00  0.00    +0.000 A 
ATOM     24  F   UNL     1       0.893   2.490  22.224  0.00  0.00    +0.000 F 
ATOM     25  C   UNL     1       2.899   2.669  20.998  0.00  0.00    +0.000 A 
ATOM     26  C   UNL     1       3.606   3.214  19.920  0.00  0.00    +0.000 A 
ENDBRANCH  19  20
ENDBRANCH  17  19
ENDBRANCH   5  17
TORSDOF 6
ENDMDL
MODEL 2
REMARK VINA RESULT:      -9.1      0.838      1.414
REMARK  Name = 
REMARK  6 active torsions:
REMARK  status: ('A' for Active; 'I' for Inactive)
REMARK    1  A    between atoms: C_2  and  C_3
REMARK    2  A    between atoms: C_5  and  C_6
REMARK    3  A    between atoms: C_7  and  C_8
REMARK    4  A    between atoms: C_16  and  N_17
REMARK    5  A    between atoms: N_17  and  C_18
REMARK    6  A    between atoms: C_18  and  C_19
REMARK                            x       y       z     vdW  Elec       q    Type
REMARK                         _______ _______ _______ _____ _____    ______ ____
ROOT
ATOM      1  C   UNL     1       6.464   5.519  15.904  0.00  0.00    +0.000 A 
ATOM      2  N   UNL     1       7.557   6.312  16.194  0.00  0.00    +0.000 NA
ATOM      3  C   UNL     1       7.227   6.963  17.305  0.00  0.00    +0.000 A 
ATOM      4  O   UNL     1       5.940   6.644  17.716  0.00  0.00    +0.000 OA
ATOM      5  C   UNL     1       5.465   5.721  16.829  0.00  0.00    +0.000 A 
ENDROOT
BRANCH   1   7
ATOM      6  N   UNL     1       6.371   3.960  13.840  0.00  0.00    +0.000 NA
ATOM      7  C   UNL     1       6.429   4.674  14.751  0.00  0.00    +0.000 C 
ENDBRANCH   1   7
BRANCH   3   8
ATOM      8  C   UNL     1       8.038   7.867  18.058  0.00  0.00    +0.000 C 
ATOM      9  C   UNL     1       8.188   9.159  17.717  0.00  0.00    +0.000 C 
BRANCH   9  10
ATOM     10  C   UNL     1       9.011  10.139  18.459  0.00  0.00    +0.000 A 
ATOM     11  C   UNL     1       9.792  11.114  17.816  0.00  0.00    +0.000 A 
ATOM     12  C   UNL     1      10.521  12.053  18.556  0.00  0.00    +0.000 A 
ATOM     13  C   UNL     1      10.467  12.030  19.944  0.00  0.00    +0.000 A 
ATOM     14  F   UNL     1      11.162  12.932  20.650  0.00  0.00    +0.000 F 
ATOM     15  C   UNL     1       9.693  11.087  20.604  0.00  0.00    +0.000 A 
ATOM     16  C   UNL     1       8.963  10.147  19.865  0.00  0.00    +0.000 A 
ENDBRANCH   9  10
ENDBRANCH   3   8
BRANCH   5  17
ATOM     17  N   UNL     1       4.212   5.277  17.071  0.00  0.00    +0.000 N 
ATOM     18  H   UNL     1       3.823   4.541  16.489  0.00  0.00    +0.000 HD
BRANCH  17  19
ATOM     19  C   UNL     1       3.268   5.950  17.947  0.00  0.00    +0.000 C 
BRANCH  19  20
ATOM     20  C   UNL     1       2.617   4.995  18.934  0.00  0.00    +0.000 A 
ATOM     21  C   UNL     1       2.869   5.152  20.310  0.00  0.00    +0.000 A 
ATOM     22  C   UNL     1       2.239   4.338  21.255  0.00  0.00    +0.000 A 
ATOM     23  C   UNL     1       1.342   3.367  20.831  0.00  0.00    +0.000 A 
ATOM     24  F   UNL     1       0.735   2.587  21.736  0.00  0.00    +0.000 F 
ATOM     25  C   UNL     1       1.059   3.200  19.481  0.00  0.00    +0.000 A 
ATOM     26  C   UNL     1       1.687   4.019  18.536  0.00  0.00    +0.000 A 
ENDBRANCH  19  20
ENDBRANCH  17  19
ENDBRANCH   5  17
TORSDOF 6
ENDMDL
MODEL 3
REMARK VINA RESULT:      -9.1      1.281      1.490
REMARK  Name = 
REMARK  6 active torsions:
REMARK  status: ('A' for Active; 'I' for Inactive)
REMARK    1  A    between atoms: C_2  and  C_3
REMARK    2  A    between atoms: C_5  and  C_6
REMARK    3  A    between atoms: C_7  and  C_8
REMARK    4  A    between atoms: C_16  and  N_17
REMARK    5  A    between atoms: N_17  and  C_18
REMARK    6  A    between atoms: C_18  and  C_19
REMARK                            x       y       z     vdW  Elec       q    Type
REMARK                         _______ _______ _______ _____ _____    ______ ____
ROOT
ATOM      1  C   UNL     1       6.421   5.838  16.385  0.00  0.00    +0.000 A 
ATOM      2  N   UNL     1       7.647   6.363  16.745  0.00  0.00    +0.000 NA
ATOM      3  C   UNL     1       7.363   7.432  17.480  0.00  0.00    +0.000 A 
ATOM      4  O   UNL     1       5.993   7.635  17.571  0.00  0.00    +0.000 OA
ATOM      5  C   UNL     1       5.400   6.616  16.883  0.00  0.00    +0.000 A 
ENDROOT
BRANCH   1   7
ATOM      6  N   UNL     1       6.186   3.754  14.867  0.00  0.00    +0.000 NA
ATOM      7  C   UNL     1       6.310   4.674  15.559  0.00  0.00    +0.000 C 
ENDBRANCH   1   7
BRANCH   3   8
ATOM      8  C   UNL     1       8.281   8.297  18.149  0.00  0.00    +0.000 C 
ATOM      9  C   UNL     1       8.354   9.615  17.890  0.00  0.00    +0.000 C 
BRANCH   9  10
ATOM     10  C   UNL     1       9.282  10.558  18.552  0.00  0.00    +0.000 A 
ATOM     11  C   UNL     1       9.347  10.701  19.949  0.00  0.00    +0.000 A 
ATOM     12  C   UNL     1      10.272  11.571  20.538  0.00  0.00    +0.000 A 
ATOM     13  C   UNL     1      11.146  12.296  19.738  0.00  0.00    +0.000 A 
ATOM     14  F   UNL     1      12.033  13.124  20.304  0.00  0.00    +0.000 F 
ATOM     15  C   UNL     1      11.112  12.162  18.357  0.00  0.00    +0.000 A 
ATOM     16  C   UNL     1      10.188  11.292  17.766  0.00  0.00    +0.000 A 
ENDBRANCH   9  10
ENDBRANCH   3   8
BRANCH   5  17
ATOM     17  N   UNL     1       4.050   6.637  16.865  0.00  0.00    +0.000 N 
ATOM     18  H   UNL     1       3.562   6.562  15.977  0.00  0.00    +0.000 HD
BRANCH  17  19
ATOM     19  C   UNL     1       3.228   7.017  18.002  0.00  0.00    +0.000 C 
BRANCH  19  20
ATOM     20  C   UNL     1       2.543   5.821  18.642  0.00  0.00    +0.000 A 
ATOM     21  C   UNL     1       2.310   5.825  20.031  0.00  0.00    +0.000 A 
ATOM     22  C   UNL     1       1.624   4.776  20.648  0.00  0.00    +0.000 A 
ATOM     23  C   UNL     1       1.156   3.719  19.880  0.00  0.00    +0.000 A 
ATOM     24  F   UNL     1       0.496   2.714  20.470  0.00  0.00    +0.000 F 
ATOM     25  C   UNL     1       1.355   3.696  18.505  0.00  0.00    +0.000 A 
ATOM     26  C   UNL     1       2.037   4.749  17.886  0.00  0.00    +0.000 A 
ENDBRANCH  19  20
ENDBRANCH  17  19
ENDBRANCH   5  17
TORSDOF 6
ENDMDL
MODEL 4
REMARK VINA RESULT:      -9.0      1.290      1.510
REMARK  Name = 
REMARK  6 active torsions:
REMARK  status: ('A' for Active; 'I' for Inactive)
REMARK    1  A    between atoms: C_2  and  C_3
REMARK    2  A    between atoms: C_5  and  C_6
REMARK    3  A    between atoms: C_7  and  C_8
REMARK    4  A    between atoms: C_16  and  N_17
REMARK    5  A    between atoms: N_17  and  C_18
REMARK    6  A    between atoms: C_18  and  C_19
REMARK                            x       y       z     vdW  Elec       q    Type
REMARK                         _______ _______ _______ _____ _____    ______ ____
ROOT
ATOM      1  C   UNL     1       7.010   5.629  16.468  0.00  0.00    +0.000 A 
ATOM      2  N   UNL     1       7.613   6.868  16.554  0.00  0.00    +0.000 NA
ATOM      3  C   UNL     1       7.699   7.122  17.856  0.00  0.00    +0.000 A 
ATOM      4  O   UNL     1       7.133   6.103  18.609  0.00  0.00    +0.000 OA
ATOM      5  C   UNL     1       6.706   5.154  17.724  0.00  0.00    +0.000 A 
ENDROOT
BRANCH   1   7
ATOM      6  N   UNL     1       6.498   4.558  14.168  0.00  0.00    +0.000 NA
ATOM      7  C   UNL     1       6.722   5.014  15.209  0.00  0.00    +0.000 C 
ENDBRANCH   1   7
BRANCH   3   8
ATOM      8  C   UNL     1       8.303   8.253  18.484  0.00  0.00    +0.000 C 
ATOM      9  C   UNL     1       8.371   9.460  17.893  0.00  0.00    +0.000 C 
BRANCH   9  10
ATOM     10  C   UNL     1       8.981  10.664  18.496  0.00  0.00    +0.000 A 
ATOM     11  C   UNL     1       9.786  10.610  19.646  0.00  0.00    +0.000 A 
ATOM     12  C   UNL     1      10.383  11.768  20.159  0.00  0.00    +0.000 A 
ATOM     13  C   UNL     1      10.188  12.986  19.521  0.00  0.00    +0.000 A 
ATOM     14  F   UNL     1      10.764  14.092  20.011  0.00  0.00    +0.000 F 
ATOM     15  C   UNL     1       9.409  13.065  18.375  0.00  0.00    +0.000 A 
ATOM     16  C   UNL     1       8.811  11.908  17.861  0.00  0.00    +0.000 A 
ENDBRANCH   9  10
ENDBRANCH   3   8
BRANCH   5  17
ATOM     17  N   UNL     1       6.126   4.066  18.277  0.00  0.00    +0.000 N 
ATOM     18  H   UNL     1       6.115   3.191  17.761  0.00  0.00    +0.000 HD
BRANCH  17  19
ATOM     19  C   UNL     1       5.282   4.108  19.459  0.00  0.00    +0.000 C 
BRANCH  19  20
ATOM     20  C   UNL     1       3.908   3.509  19.208  0.00  0.00    +0.000 A 
ATOM     21  C   UNL     1       2.960   3.506  20.248  0.00  0.00    +0.000 A 
ATOM     22  C   UNL     1       1.664   3.025  20.039  0.00  0.00    +0.000 A 
ATOM     23  C   UNL     1       1.305   2.552  18.785  0.00  0.00    +0.000 A 
ATOM     24  F   UNL     1       0.063   2.092  18.582  0.00  0.00    +0.000 F 
ATOM     25  C   UNL     1       2.214   2.558  17.734  0.00  0.00    +0.000 A 
ATOM     26  C   UNL     1       3.509   3.044  17.942  0.00  0.00    +0.000 A 
ENDBRANCH  19  20
ENDBRANCH  17  19
ENDBRANCH   5  17
TORSDOF 6
ENDMDL
MODEL 5
REMARK VINA RESULT:      -9.0      1.389      1.649
REMARK  Name = 
REMARK  6 active torsions:
REMARK  status: ('A' for Active; 'I' for Inactive)
REMARK    1  A    between atoms: C_2  and  C_3
REMARK    2  A    between atoms: C_5  and  C_6
REMARK    3  A    between atoms: C_7  and  C_8
REMARK    4  A    between atoms: C_16  and  N_17
REMARK    5  A    between atoms: N_17  and  C_18
REMARK    6  A    between atoms: C_18  and  C_19
REMARK                            x       y       z     vdW  Elec       q    Type
REMARK                         _______ _______ _______ _____ _____    ______ ____
ROOT
ATOM      1  C   UNL     1       6.909   5.306  16.473  0.00  0.00    +0.000 A 
ATOM      2  N   UNL     1       7.579   6.513  16.538  0.00  0.00    +0.000 NA
ATOM      3  C   UNL     1       7.626   6.813  17.831  0.00  0.00    +0.000 A 
ATOM      4  O   UNL     1       6.973   5.858  18.598  0.00  0.00    +0.000 OA
ATOM      5  C   UNL     1       6.529   4.900  17.732  0.00  0.00    +0.000 A 
ENDROOT
BRANCH   1   7
ATOM      6  N   UNL     1       6.465   4.118  14.217  0.00  0.00    +0.000 NA
ATOM      7  C   UNL     1       6.639   4.658  15.227  0.00  0.00    +0.000 C 
ENDBRANCH   1   7
BRANCH   3   8
ATOM      8  C   UNL     1       8.267   7.934  18.441  0.00  0.00    +0.000 C 
ATOM      9  C   UNL     1       8.212   9.172  17.919  0.00  0.00    +0.000 C 
BRANCH   9  10
ATOM     10  C   UNL     1       8.854  10.368  18.507  0.00  0.00    +0.000 A 
ATOM     11  C   UNL     1       9.533  10.335  19.737  0.00  0.00    +0.000 A 
ATOM     12  C   UNL     1      10.167  11.478  20.238  0.00  0.00    +0.000 A 
ATOM     13  C   UNL     1      10.134  12.661  19.509  0.00  0.00    +0.000 A 
ATOM     14  F   UNL     1      10.745  13.753  19.988  0.00  0.00    +0.000 F 
ATOM     15  C   UNL     1       9.483  12.717  18.285  0.00  0.00    +0.000 A 
ATOM     16  C   UNL     1       8.849  11.574  17.783  0.00  0.00    +0.000 A 
ENDBRANCH   9  10
ENDBRANCH   3   8
BRANCH   5  17
ATOM     17  N   UNL     1       5.867   3.868  18.300  0.00  0.00    +0.000 N 
ATOM     18  H   UNL     1       6.393   3.114  18.731  0.00  0.00    +0.000 HD
BRANCH  17  19
ATOM     19  C   UNL     1       4.446   3.619  18.122  0.00  0.00    +0.000 C 
BRANCH  19  20
ATOM     20  C   UNL     1       3.587   4.554  18.957  0.00  0.00    +0.000 A 
ATOM     21  C   UNL     1       3.362   5.868  18.505  0.00  0.00    +0.000 A 
ATOM     22  C   UNL     1       2.525   6.738  19.210  0.00  0.00    +0.000 A 
ATOM     23  C   UNL     1       1.898   6.296  20.367  0.00  0.00    +0.000 A 
ATOM     24  F   UNL     1       1.094   7.127  21.042  0.00  0.00    +0.000 F 
ATOM     25  C   UNL     1       2.087   4.999  20.828  0.00  0.00    +0.000 A 
ATOM     26  C   UNL     1       2.921   4.127  20.120  0.00  0.00    +0.000 A 
ENDBRANCH  19  20
ENDBRANCH  17  19
ENDBRANCH   5  17
TORSDOF 6
ENDMDL
MODEL 6
REMARK VINA RESULT:      -8.9      1.238      1.849
REMARK  Name = 
REMARK  6 active torsions:
REMARK  status: ('A' for Active; 'I' for Inactive)
REMARK    1  A    between atoms: C_2  and  C_3
REMARK    2  A    between atoms: C_5  and  C_6
REMARK    3  A    between atoms: C_7  and  C_8
REMARK    4  A    between atoms: C_16  and  N_17
REMARK    5  A    between atoms: N_17  and  C_18
REMARK    6  A    between atoms: C_18  and  C_19
REMARK                            x       y       z     vdW  Elec       q    Type
REMARK                         _______ _______ _______ _____ _____    ______ ____
ROOT
ATOM      1  C   UNL     1       6.783   5.751  16.616  0.00  0.00    +0.000 A 
ATOM      2  N   UNL     1       7.482   6.942  16.654  0.00  0.00    +0.000 NA
ATOM      3  C   UNL     1       7.782   7.127  17.935  0.00  0.00    +0.000 A 
ATOM      4  O   UNL     1       7.264   6.113  18.728  0.00  0.00    +0.000 OA
ATOM      5  C   UNL     1       6.640   5.238  17.885  0.00  0.00    +0.000 A 
ENDROOT
BRANCH   1   7
ATOM      6  N   UNL     1       5.834   4.746  14.428  0.00  0.00    +0.000 NA
ATOM      7  C   UNL     1       6.264   5.218  15.394  0.00  0.00    +0.000 C 
ENDBRANCH   1   7
BRANCH   3   8
ATOM      8  C   UNL     1       8.555   8.185  18.504  0.00  0.00    +0.000 C 
ATOM      9  C   UNL     1       8.401   9.470  18.140  0.00  0.00    +0.000 C 
BRANCH   9  10
ATOM     10  C   UNL     1       9.170  10.605  18.697  0.00  0.00    +0.000 A 
ATOM     11  C   UNL     1       9.589  11.693  17.912  0.00  0.00    +0.000 A 
ATOM     12  C   UNL     1      10.275  12.769  18.487  0.00  0.00    +0.000 A 
ATOM     13  C   UNL     1      10.540  12.771  19.851  0.00  0.00    +0.000 A 
ATOM     14  F   UNL     1      11.193  13.804  20.400  0.00  0.00    +0.000 F 
ATOM     15  C   UNL     1      10.125  11.715  20.650  0.00  0.00    +0.000 A 
ATOM     16  C   UNL     1       9.438  10.638  20.077  0.00  0.00    +0.000 A 
ENDBRANCH   9  10
ENDBRANCH   3   8
BRANCH   5  17
ATOM     17  N   UNL     1       6.073   4.166  18.480  0.00  0.00    +0.000 N 
ATOM     18  H   UNL     1       6.135   3.256  18.031  0.00  0.00    +0.000 HD
BRANCH  17  19
ATOM     19  C   UNL     1       5.151   4.251  19.600  0.00  0.00    +0.000 C 
BRANCH  19  20
ATOM     20  C   UNL     1       3.775   3.705  19.257  0.00  0.00    +0.000 A 
ATOM     21  C   UNL     1       3.617   2.322  19.051  0.00  0.00    +0.000 A 
ATOM     22  C   UNL     1       2.357   1.771  18.799  0.00  0.00    +0.000 A 
ATOM     23  C   UNL     1       1.243   2.600  18.762  0.00  0.00    +0.000 A 
ATOM     24  F   UNL     1       0.035   2.074  18.524  0.00  0.00    +0.000 F 
ATOM     25  C   UNL     1       1.366   3.966  18.980  0.00  0.00    +0.000 A 
ATOM     26  C   UNL     1       2.627   4.517  19.237  0.00  0.00    +0.000 A 
ENDBRANCH  19  20
ENDBRANCH  17  19
ENDBRANCH   5  17
TORSDOF 6
ENDMDL
MODEL 7
REMARK VINA RESULT:      -8.8      1.310      1.760
REMARK  Name = 
REMARK  6 active torsions:
REMARK  status: ('A' for Active; 'I' for Inactive)
REMARK    1  A    between atoms: C_2  and  C_3
REMARK    2  A    between atoms: C_5  and  C_6
REMARK    3  A    between atoms: C_7  and  C_8
REMARK    4  A    between atoms: C_16  and  N_17
REMARK    5  A    between atoms: N_17  and  C_18
REMARK    6  A    between atoms: C_18  and  C_19
REMARK                            x       y       z     vdW  Elec       q    Type
REMARK                         _______ _______ _______ _____ _____    ______ ____
ROOT
ATOM      1  C   UNL     1       6.394   5.850  16.335  0.00  0.00    +0.000 A 
ATOM      2  N   UNL     1       7.621   6.432  16.588  0.00  0.00    +0.000 NA
ATOM      3  C   UNL     1       7.372   7.394  17.470  0.00  0.00    +0.000 A 
ATOM      4  O   UNL     1       6.017   7.476  17.761  0.00  0.00    +0.000 OA
ATOM      5  C   UNL     1       5.404   6.488  17.046  0.00  0.00    +0.000 A 
ENDROOT
BRANCH   1   7
ATOM      6  N   UNL     1       6.143   3.870  14.687  0.00  0.00    +0.000 NA
ATOM      7  C   UNL     1       6.247   4.772  15.406  0.00  0.00    +0.000 C 
ENDBRANCH   1   7
BRANCH   3   8
ATOM      8  C   UNL     1       8.315   8.258  18.106  0.00  0.00    +0.000 C 
ATOM      9  C   UNL     1       8.341   9.586  17.891  0.00  0.00    +0.000 C 
BRANCH   9  10
ATOM     10  C   UNL     1       9.291  10.527  18.522  0.00  0.00    +0.000 A 
ATOM     11  C   UNL     1      10.142  11.360  17.775  0.00  0.00    +0.000 A 
ATOM     12  C   UNL     1      10.994  12.270  18.411  0.00  0.00    +0.000 A 
ATOM     13  C   UNL     1      10.997  12.362  19.797  0.00  0.00    +0.000 A 
ATOM     14  F   UNL     1      11.811  13.236  20.403  0.00  0.00    +0.000 F 
ATOM     15  C   UNL     1      10.157  11.561  20.558  0.00  0.00    +0.000 A 
ATOM     16  C   UNL     1       9.303  10.650  19.923  0.00  0.00    +0.000 A 
ENDBRANCH   9  10
ENDBRANCH   3   8
BRANCH   5  17
ATOM     17  N   UNL     1       4.065   6.402  17.208  0.00  0.00    +0.000 N 
ATOM     18  H   UNL     1       3.454   6.623  16.427  0.00  0.00    +0.000 HD
BRANCH  17  19
ATOM     19  C   UNL     1       3.410   6.262  18.497  0.00  0.00    +0.000 C 
BRANCH  19  20
ATOM     20  C   UNL     1       2.648   4.953  18.618  0.00  0.00    +0.000 A 
ATOM     21  C   UNL     1       1.737   4.783  19.677  0.00  0.00    +0.000 A 
ATOM     22  C   UNL     1       0.968   3.621  19.786  0.00  0.00    +0.000 A 
ATOM     23  C   UNL     1       1.096   2.624  18.829  0.00  0.00    +0.000 A 
ATOM     24  F   UNL     1       0.358   1.512  18.930  0.00  0.00    +0.000 F 
ATOM     25  C   UNL     1       1.973   2.771  17.762  0.00  0.00    +0.000 A 
ATOM     26  C   UNL     1       2.740   3.936  17.650  0.00  0.00    +0.000 A 
ENDBRANCH  19  20
ENDBRANCH  17  19
ENDBRANCH   5  17
TORSDOF 6
ENDMDL
MODEL 8
REMARK VINA RESULT:      -8.5      1.886      2.167
REMARK  Name = 
REMARK  6 active torsions:
REMARK  status: ('A' for Active; 'I' for Inactive)
REMARK    1  A    between atoms: C_2  and  C_3
REMARK    2  A    between atoms: C_5  and  C_6
REMARK    3  A    between atoms: C_7  and  C_8
REMARK    4  A    between atoms: C_16  and  N_17
REMARK    5  A    between atoms: N_17  and  C_18
REMARK    6  A    between atoms: C_18  and  C_19
REMARK                            x       y       z     vdW  Elec       q    Type
REMARK                         _______ _______ _______ _____ _____    ______ ____
ROOT
ATOM      1  C   UNL     1       6.877   5.947  16.741  0.00  0.00    +0.000 A 
ATOM      2  N   UNL     1       7.370   7.237  16.780  0.00  0.00    +0.000 NA
ATOM      3  C   UNL     1       7.841   7.391  18.012  0.00  0.00    +0.000 A 
ATOM      4  O   UNL     1       7.629   6.254  18.781  0.00  0.00    +0.000 OA
ATOM      5  C   UNL     1       7.027   5.339  17.966  0.00  0.00    +0.000 A 
ENDROOT
BRANCH   1   7
ATOM      6  N   UNL     1       5.729   5.010  14.619  0.00  0.00    +0.000 NA
ATOM      7  C   UNL     1       6.260   5.410  15.568  0.00  0.00    +0.000 C 
ENDBRANCH   1   7
BRANCH   3   8
ATOM      8  C   UNL     1       8.515   8.529  18.552  0.00  0.00    +0.000 C 
ATOM      9  C   UNL     1       8.511   9.728  17.943  0.00  0.00    +0.000 C 
BRANCH   9  10
ATOM     10  C   UNL     1       9.188  10.939  18.455  0.00  0.00    +0.000 A 
ATOM     11  C   UNL     1      10.052  10.912  19.563  0.00  0.00    +0.000 A 
ATOM     12  C   UNL     1      10.710  12.072  19.989  0.00  0.00    +0.000 A 
ATOM     13  C   UNL     1      10.517  13.266  19.304  0.00  0.00    +0.000 A 
ATOM     14  F   UNL     1      11.150  14.374  19.711  0.00  0.00    +0.000 F 
ATOM     15  C   UNL     1       9.680  13.317  18.199  0.00  0.00    +0.000 A 
ATOM     16  C   UNL     1       9.022  12.157  17.772  0.00  0.00    +0.000 A 
ENDBRANCH   9  10
ENDBRANCH   3   8
BRANCH   5  17
ATOM     17  N   UNL     1       6.745   4.149  18.541  0.00  0.00    +0.000 N 
ATOM     18  H   UNL     1       7.218   3.312  18.212  0.00  0.00    +0.000 HD
BRANCH  17  19
ATOM     19  C   UNL     1       5.620   3.924  19.432  0.00  0.00    +0.000 C 
BRANCH  19  20
ATOM     20  C   UNL     1       4.285   4.174  18.751  0.00  0.00    +0.000 A 
ATOM     21  C   UNL     1       3.781   3.214  17.853  0.00  0.00    +0.000 A 
ATOM     22  C   UNL     1       2.528   3.374  17.256  0.00  0.00    +0.000 A 
ATOM     23  C   UNL     1       1.763   4.492  17.561  0.00  0.00    +0.000 A 
ATOM     24  F   UNL     1       0.561   4.646  16.992  0.00  0.00    +0.000 F 
ATOM     25  C   UNL     1       2.226   5.448  18.456  0.00  0.00    +0.000 A 
ATOM     26  C   UNL     1       3.479   5.285  19.058  0.00  0.00    +0.000 A 
ENDBRANCH  19  20
ENDBRANCH  17  19
ENDBRANCH   5  17
TORSDOF 6
ENDMDL
MODEL 9
REMARK VINA RESULT:      -8.5      1.809      1.997
REMARK  Name = 
REMARK  6 active torsions:
REMARK  status: ('A' for Active; 'I' for Inactive)
REMARK    1  A    between atoms: C_2  and  C_3
REMARK    2  A    between atoms: C_5  and  C_6
REMARK    3  A    between atoms: C_7  and  C_8
REMARK    4  A    between atoms: C_16  and  N_17
REMARK    5  A    between atoms: N_17  and  C_18
REMARK    6  A    between atoms: C_18  and  C_19
REMARK                            x       y       z     vdW  Elec       q    Type
REMARK                         _______ _______ _______ _____ _____    ______ ____
ROOT
ATOM      1  C   UNL     1       6.623   5.895  16.496  0.00  0.00    +0.000 A 
ATOM      2  N   UNL     1       6.937   7.229  16.322  0.00  0.00    +0.000 NA
ATOM      3  C   UNL     1       7.453   7.617  17.483  0.00  0.00    +0.000 A 
ATOM      4  O   UNL     1       7.444   6.586  18.412  0.00  0.00    +0.000 OA
ATOM      5  C   UNL     1       6.926   5.493  17.777  0.00  0.00    +0.000 A 
ENDROOT
BRANCH   1   7
ATOM      6  N   UNL     1       5.491   4.522  14.616  0.00  0.00    +0.000 NA
ATOM      7  C   UNL     1       6.017   5.119  15.458  0.00  0.00    +0.000 C 
ENDBRANCH   1   7
BRANCH   3   8
ATOM      8  C   UNL     1       7.995   8.897  17.810  0.00  0.00    +0.000 C 
ATOM      9  C   UNL     1       8.847   9.083  18.834  0.00  0.00    +0.000 C 
BRANCH   9  10
ATOM     10  C   UNL     1       9.440  10.382  19.217  0.00  0.00    +0.000 A 
ATOM     11  C   UNL     1       9.500  10.825  20.549  0.00  0.00    +0.000 A 
ATOM     12  C   UNL     1      10.111  12.041  20.874  0.00  0.00    +0.000 A 
ATOM     13  C   UNL     1      10.677  12.820  19.872  0.00  0.00    +0.000 A 
ATOM     14  F   UNL     1      11.265  13.982  20.185  0.00  0.00    +0.000 F 
ATOM     15  C   UNL     1      10.644  12.399  18.550  0.00  0.00    +0.000 A 
ATOM     16  C   UNL     1      10.033  11.183  18.223  0.00  0.00    +0.000 A 
ENDBRANCH   9  10
ENDBRANCH   3   8
BRANCH   5  17
ATOM     17  N   UNL     1       6.843   4.373  18.527  0.00  0.00    +0.000 N 
ATOM     18  H   UNL     1       7.427   3.574  18.297  0.00  0.00    +0.000 HD
BRANCH  17  19
ATOM     19  C   UNL     1       5.792   4.121  19.498  0.00  0.00    +0.000 C 
BRANCH  19  20
ATOM     20  C   UNL     1       4.406   4.177  18.875  0.00  0.00    +0.000 A 
ATOM     21  C   UNL     1       3.556   5.254  19.187  0.00  0.00    +0.000 A 
ATOM     22  C   UNL     1       2.300   5.378  18.585  0.00  0.00    +0.000 A 
ATOM     23  C   UNL     1       1.891   4.430  17.657  0.00  0.00    +0.000 A 
ATOM     24  F   UNL     1       0.689   4.548  17.078  0.00  0.00    +0.000 F 
ATOM     25  C   UNL     1       2.716   3.366  17.316  0.00  0.00    +0.000 A 
ATOM     26  C   UNL     1       3.974   3.244  17.915  0.00  0.00    +0.000 A 
ENDBRANCH  19  20
ENDBRANCH  17  19
ENDBRANCH   5  17
TORSDOF 6
ENDMDL
