MODEL 1
REMARK VINA RESULT:      -9.7      0.000      0.000
REMARK  Name = 
REMARK  7 active torsions:
REMARK  status: ('A' for Active; 'I' for Inactive)
REMARK    1  A    between atoms: C_1  and  O_2
REMARK    2  A    between atoms: O_2  and  C_3
REMARK    3  A    between atoms: N_5  and  C_6
REMARK    4  A    between atoms: C_17  and  C_18
REMARK    5  A    between atoms: C_20  and  C_21
REMARK    6  A    between atoms: C_22  and  C_23
REMARK    7  A    between atoms: C_26  and  C_27
REMARK                            x       y       z     vdW  Elec       q    Type
REMARK                         _______ _______ _______ _____ _____    ______ ____
ROOT
ATOM      1  C   UNL     1       7.209   6.167  17.821  0.00  0.00    +0.000 C 
ATOM      2  C   UNL     1       6.069   6.818  17.018  0.00  0.00    +0.000 C 
ATOM      3  C   UNL     1       4.954   5.842  16.698  0.00  0.00    +0.000 C 
ATOM      4  C   UNL     1       4.477   5.216  18.015  0.00  0.00    +0.000 C 
ATOM      5  C   UNL     1       5.537   4.271  18.556  0.00  0.00    +0.000 C 
ATOM      6  C   UNL     1       6.800   5.106  18.877  0.00  0.00    +0.000 C 
ATOM      7  C   UNL     1       5.000   3.587  19.825  0.00  0.00    +0.000 C 
ATOM      8  C   UNL     1       3.740   2.766  19.571  0.00  0.00    +0.000 C 
ATOM      9  C   UNL     1       2.866   2.545  20.779  0.00  0.00    +0.000 C 
ATOM     10  O   UNL     1       3.247   2.399  21.928  0.00  0.00    +0.000 OA
ATOM     11  O   UNL     1       1.569   2.400  20.378  0.00  0.00    +0.000 OA
ATOM     12  C   UNL     1       1.384   3.169  19.192  0.00  0.00    +0.000 C 
ATOM     13  C   UNL     1       0.336   2.553  18.277  0.00  0.00    +0.000 C 
ATOM     14  C   UNL     1       2.763   3.297  18.532  0.00  0.00    +0.000 C 
ATOM     15  C   UNL     1       3.047   4.672  17.895  0.00  0.00    +0.000 C 
ENDROOT
BRANCH   1  18
ATOM     16  C   UNL     1       8.061   8.507  18.016  0.00  0.00    +0.000 C 
ATOM     17  O   UNL     1       7.353   8.992  17.144  0.00  0.00    +0.000 OA
ATOM     18  N   UNL     1       8.049   7.202  18.421  0.00  0.00    +0.000 N 
ATOM     19  H   UNL     1       8.715   6.962  19.142  0.00  0.00    +0.000 HD
BRANCH  16  21
ATOM     20  C   UNL     1       9.095  10.566  18.354  0.00  0.00    +0.000 C 
ATOM     21  O   UNL     1       8.999   9.188  18.719  0.00  0.00    +0.000 OA
ENDBRANCH  16  21
ENDBRANCH   1  18
BRANCH  15  22
ATOM     22  C   UNL     1       2.207   5.798  18.446  0.00  0.00    +0.000 C 
ATOM     23  C   UNL     1       2.699   6.741  19.262  0.00  0.00    +0.000 C 
BRANCH  23  24
ATOM     24  C   UNL     1       1.886   7.773  19.882  0.00  0.00    +0.000 A 
ATOM     25  C   UNL     1       1.418   7.698  21.187  0.00  0.00    +0.000 A 
ATOM     26  C   UNL     1       0.629   8.740  21.672  0.00  0.00    +0.000 A 
ATOM     27  C   UNL     1       0.341   9.846  20.861  0.00  0.00    +0.000 A 
ATOM     28  C   UNL     1       0.913   9.830  19.588  0.00  0.00    +0.000 A 
ATOM     29  N   UNL     1       1.669   8.834  19.084  0.00  0.00    +0.000 NA
BRANCH  27  30
ATOM     30  C   UNL     1      -0.513  10.959  21.308  0.00  0.00    +0.000 A 
ATOM     31  C   UNL     1      -1.040  10.988  22.616  0.00  0.00    +0.000 A 
ATOM     32  C   UNL     1      -1.864  12.025  23.051  0.00  0.00    +0.000 A 
ATOM     33  C   UNL     1      -2.166  13.074  22.190  0.00  0.00    +0.000 A 
ATOM     34  C   UNL     1      -1.644  13.071  20.905  0.00  0.00    +0.000 A 
ATOM     35  F   UNL     1      -1.927  14.081  20.074  0.00  0.00    +0.000 F 
ATOM     36  C   UNL     1      -0.832  12.031  20.459  0.00  0.00    +0.000 A 
ENDBRANCH  27  30
ENDBRANCH  23  24
ENDBRANCH  15  22
TORSDOF 5
ENDMDL
MODEL 2
REMARK VINA RESULT:      -9.6      5.111     10.569
REMARK  Name = 
REMARK  7 active torsions:
REMARK  status: ('A' for Active; 'I' for Inactive)
REMARK    1  A    between atoms: C_1  and  O_2
REMARK    2  A    between atoms: O_2  and  C_3
REMARK    3  A    between atoms: N_5  and  C_6
REMARK    4  A    between atoms: C_17  and  C_18
REMARK    5  A    between atoms: C_20  and  C_21
REMARK    6  A    between atoms: C_22  and  C_23
REMARK    7  A    between atoms: C_26  and  C_27
REMARK                            x       y       z     vdW  Elec       q    Type
REMARK                         _______ _______ _______ _____ _____    ______ ____
ROOT
ATOM      1  C   UNL     1      -4.379  11.398  18.210  0.00  0.00    +0.000 C 
ATOM      2  C   UNL     1      -3.255  10.784  17.357  0.00  0.00    +0.000 C 
ATOM      3  C   UNL     1      -2.003  11.640  17.343  0.00  0.00    +0.000 C 
ATOM      4  C   UNL     1      -1.583  11.892  18.795  0.00  0.00    +0.000 C 
ATOM      5  C   UNL     1      -2.566  12.837  19.467  0.00  0.00    +0.000 C 
ATOM      6  C   UNL     1      -3.947  12.138  19.504  0.00  0.00    +0.000 C 
ATOM      7  C   UNL     1      -2.074  13.147  20.891  0.00  0.00    +0.000 C 
ATOM      8  C   UNL     1      -0.706  13.819  20.915  0.00  0.00    +0.000 C 
ATOM      9  C   UNL     1       0.069  13.647  22.197  0.00  0.00    +0.000 C 
ATOM     10  O   UNL     1      -0.400  13.593  23.321  0.00  0.00    +0.000 OA
ATOM     11  O   UNL     1       1.407  13.693  21.926  0.00  0.00    +0.000 OA
ATOM     12  C   UNL     1       1.609  13.181  20.611  0.00  0.00    +0.000 C 
ATOM     13  C   UNL     1       2.808  13.827  19.932  0.00  0.00    +0.000 C 
ATOM     14  C   UNL     1       0.294  13.394  19.849  0.00  0.00    +0.000 C 
ATOM     15  C   UNL     1      -0.092  12.244  18.898  0.00  0.00    +0.000 C 
ENDROOT
BRANCH   1  18
ATOM     16  C   UNL     1      -6.724  10.659  18.650  0.00  0.00    +0.000 C 
ATOM     17  O   UNL     1      -7.248  11.755  18.519  0.00  0.00    +0.000 OA
ATOM     18  N   UNL     1      -5.392  10.387  18.501  0.00  0.00    +0.000 N 
ATOM     19  H   UNL     1      -5.121   9.428  18.666  0.00  0.00    +0.000 HD
BRANCH  16  21
ATOM     20  C   UNL     1      -7.560   9.368  20.399  0.00  0.00    +0.000 C 
ATOM     21  O   UNL     1      -7.379   9.522  18.989  0.00  0.00    +0.000 OA
ENDBRANCH  16  21
ENDBRANCH   1  18
BRANCH  15  22
ATOM     22  C   UNL     1       0.548  10.918  19.232  0.00  0.00    +0.000 C 
ATOM     23  C   UNL     1       1.237  10.197  18.338  0.00  0.00    +0.000 C 
BRANCH  23  24
ATOM     24  C   UNL     1       1.773   8.874  18.610  0.00  0.00    +0.000 A 
ATOM     25  C   UNL     1       2.585   8.179  17.723  0.00  0.00    +0.000 A 
ATOM     26  C   UNL     1       3.025   6.907  18.083  0.00  0.00    +0.000 A 
ATOM     27  C   UNL     1       2.672   6.359  19.323  0.00  0.00    +0.000 A 
ATOM     28  C   UNL     1       1.897   7.176  20.148  0.00  0.00    +0.000 A 
ATOM     29  N   UNL     1       1.444   8.404  19.826  0.00  0.00    +0.000 NA
BRANCH  27  30
ATOM     30  C   UNL     1       3.080   5.008  19.741  0.00  0.00    +0.000 A 
ATOM     31  C   UNL     1       4.229   4.397  19.196  0.00  0.00    +0.000 A 
ATOM     32  C   UNL     1       4.621   3.111  19.569  0.00  0.00    +0.000 A 
ATOM     33  C   UNL     1       3.882   2.411  20.515  0.00  0.00    +0.000 A 
ATOM     34  C   UNL     1       2.758   3.002  21.074  0.00  0.00    +0.000 A 
ATOM     35  F   UNL     1       2.046   2.335  21.989  0.00  0.00    +0.000 F 
ATOM     36  C   UNL     1       2.353   4.280  20.696  0.00  0.00    +0.000 A 
ENDBRANCH  27  30
ENDBRANCH  23  24
ENDBRANCH  15  22
TORSDOF 5
ENDMDL
MODEL 3
REMARK VINA RESULT:      -9.6      0.758      1.065
REMARK  Name = 
REMARK  7 active torsions:
REMARK  status: ('A' for Active; 'I' for Inactive)
REMARK    1  A    between atoms: C_1  and  O_2
REMARK    2  A    between atoms: O_2  and  C_3
REMARK    3  A    between atoms: N_5  and  C_6
REMARK    4  A    between atoms: C_17  and  C_18
REMARK    5  A    between atoms: C_20  and  C_21
REMARK    6  A    between atoms: C_22  and  C_23
REMARK    7  A    between atoms: C_26  and  C_27
REMARK                            x       y       z     vdW  Elec       q    Type
REMARK                         _______ _______ _______ _____ _____    ______ ____
ROOT
ATOM      1  C   UNL     1       7.258   6.185  17.928  0.00  0.00    +0.000 C 
ATOM      2  C   UNL     1       6.149   6.821  17.072  0.00  0.00    +0.000 C 
ATOM      3  C   UNL     1       5.046   5.840  16.728  0.00  0.00    +0.000 C 
ATOM      4  C   UNL     1       4.520   5.237  18.036  0.00  0.00    +0.000 C 
ATOM      5  C   UNL     1       5.557   4.301  18.633  0.00  0.00    +0.000 C 
ATOM      6  C   UNL     1       6.809   5.141  18.986  0.00  0.00    +0.000 C 
ATOM      7  C   UNL     1       4.973   3.639  19.892  0.00  0.00    +0.000 C 
ATOM      8  C   UNL     1       3.723   2.814  19.605  0.00  0.00    +0.000 C 
ATOM      9  C   UNL     1       2.804   2.614  20.784  0.00  0.00    +0.000 C 
ATOM     10  O   UNL     1       3.142   2.487  21.948  0.00  0.00    +0.000 OA
ATOM     11  O   UNL     1       1.523   2.462  20.336  0.00  0.00    +0.000 OA
ATOM     12  C   UNL     1       1.383   3.211  19.132  0.00  0.00    +0.000 C 
ATOM     13  C   UNL     1       0.369   2.580  18.189  0.00  0.00    +0.000 C 
ATOM     14  C   UNL     1       2.786   3.327  18.522  0.00  0.00    +0.000 C 
ATOM     15  C   UNL     1       3.094   4.691  17.872  0.00  0.00    +0.000 C 
ENDROOT
BRANCH   1  18
ATOM     16  C   UNL     1       8.149   8.513  18.077  0.00  0.00    +0.000 C 
ATOM     17  O   UNL     1       7.521   8.969  17.133  0.00  0.00    +0.000 OA
ATOM     18  N   UNL     1       8.075   7.229  18.541  0.00  0.00    +0.000 N 
ATOM     19  H   UNL     1       8.680   7.010  19.321  0.00  0.00    +0.000 HD
BRANCH  16  21
ATOM     20  C   UNL     1       9.149  10.583  18.447  0.00  0.00    +0.000 C 
ATOM     21  O   UNL     1       9.048   9.207  18.818  0.00  0.00    +0.000 OA
ENDBRANCH  16  21
ENDBRANCH   1  18
BRANCH  15  22
ATOM     22  C   UNL     1       2.235   5.827  18.372  0.00  0.00    +0.000 C 
ATOM     23  C   UNL     1       2.736   6.886  19.021  0.00  0.00    +0.000 C 
BRANCH  23  24
ATOM     24  C   UNL     1       1.917   7.939  19.598  0.00  0.00    +0.000 A 
ATOM     25  C   UNL     1       1.492   7.941  20.920  0.00  0.00    +0.000 A 
ATOM     26  C   UNL     1       0.692   8.994  21.359  0.00  0.00    +0.000 A 
ATOM     27  C   UNL     1       0.351  10.037  20.486  0.00  0.00    +0.000 A 
ATOM     28  C   UNL     1       0.883   9.949  19.199  0.00  0.00    +0.000 A 
ATOM     29  N   UNL     1       1.648   8.938  18.738  0.00  0.00    +0.000 NA
BRANCH  27  30
ATOM     30  C   UNL     1      -0.518  11.156  20.886  0.00  0.00    +0.000 A 
ATOM     31  C   UNL     1      -1.345  11.803  19.944  0.00  0.00    +0.000 A 
ATOM     32  C   UNL     1      -2.162  12.875  20.302  0.00  0.00    +0.000 A 
ATOM     33  C   UNL     1      -2.186  13.315  21.620  0.00  0.00    +0.000 A 
ATOM     34  C   UNL     1      -1.392  12.681  22.564  0.00  0.00    +0.000 A 
ATOM     35  F   UNL     1      -1.415  13.097  23.835  0.00  0.00    +0.000 F 
ATOM     36  C   UNL     1      -0.563  11.618  22.210  0.00  0.00    +0.000 A 
ENDBRANCH  27  30
ENDBRANCH  23  24
ENDBRANCH  15  22
TORSDOF 5
ENDMDL
MODEL 4
REMARK VINA RESULT:      -9.5      1.286      1.633
REMARK  Name = 
REMARK  7 active torsions:
REMARK  status: ('A' for Active; 'I' for Inactive)
REMARK    1  A    between atoms: C_1  and  O_2
REMARK    2  A    between atoms: O_2  and  C_3
REMARK    3  A    between atoms: N_5  and  C_6
REMARK    4  A    between atoms: C_17  and  C_18
REMARK    5  A    between atoms: C_20  and  C_21
REMARK    6  A    between atoms: C_22  and  C_23
REMARK    7  A    between atoms: C_26  and  C_27
REMARK                            x       y       z     vdW  Elec       q    Type
REMARK                         _______ _______ _______ _____ _____    ______ ____
ROOT
ATOM      1  C   UNL     1       7.000   5.622  16.519  0.00  0.00    +0.000 C 
ATOM      2  C   UNL     1       5.742   6.182  15.831  0.00  0.00    +0.000 C 
ATOM      3  C   UNL     1       4.587   5.200  15.844  0.00  0.00    +0.000 C 
ATOM      4  C   UNL     1       4.337   4.778  17.297  0.00  0.00    +0.000 C 
ATOM      5  C   UNL     1       5.470   3.891  17.785  0.00  0.00    +0.000 C 
ATOM      6  C   UNL     1       6.772   4.730  17.769  0.00  0.00    +0.000 C 
ATOM      7  C   UNL     1       5.153   3.406  19.210  0.00  0.00    +0.000 C 
ATOM      8  C   UNL     1       3.867   2.591  19.288  0.00  0.00    +0.000 C 
ATOM      9  C   UNL     1       3.207   2.564  20.643  0.00  0.00    +0.000 C 
ATOM     10  O   UNL     1       3.776   2.571  21.722  0.00  0.00    +0.000 OA
ATOM     11  O   UNL     1       1.861   2.398  20.487  0.00  0.00    +0.000 OA
ATOM     12  C   UNL     1       1.481   2.997  19.251  0.00  0.00    +0.000 C 
ATOM     13  C   UNL     1       0.293   2.287  18.621  0.00  0.00    +0.000 C 
ATOM     14  C   UNL     1       2.731   2.996  18.360  0.00  0.00    +0.000 C 
ATOM     15  C   UNL     1       2.906   4.259  17.495  0.00  0.00    +0.000 C 
ENDROOT
BRANCH   1  18
ATOM     16  C   UNL     1       7.566   7.886  17.408  0.00  0.00    +0.000 C 
ATOM     17  O   UNL     1       6.444   8.172  17.801  0.00  0.00    +0.000 OA
ATOM     18  N   UNL     1       7.930   6.708  16.818  0.00  0.00    +0.000 N 
ATOM     19  H   UNL     1       8.897   6.643  16.532  0.00  0.00    +0.000 HD
BRANCH  16  21
ATOM     20  C   UNL     1       8.567   9.660  18.537  0.00  0.00    +0.000 C 
ATOM     21  O   UNL     1       8.643   8.707  17.474  0.00  0.00    +0.000 OA
ENDBRANCH  16  21
ENDBRANCH   1  18
BRANCH  15  22
ATOM     22  C   UNL     1       2.172   5.474  18.011  0.00  0.00    +0.000 C 
ATOM     23  C   UNL     1       2.803   6.570  18.454  0.00  0.00    +0.000 C 
BRANCH  23  24
ATOM     24  C   UNL     1       2.120   7.708  19.047  0.00  0.00    +0.000 A 
ATOM     25  C   UNL     1       1.792   8.857  18.341  0.00  0.00    +0.000 A 
ATOM     26  C   UNL     1       1.154   9.895  19.019  0.00  0.00    +0.000 A 
ATOM     27  C   UNL     1       0.833   9.762  20.376  0.00  0.00    +0.000 A 
ATOM     28  C   UNL     1       1.166   8.539  20.961  0.00  0.00    +0.000 A 
ATOM     29  N   UNL     1       1.794   7.521  20.339  0.00  0.00    +0.000 NA
BRANCH  27  30
ATOM     30  C   UNL     1       0.191  10.836  21.151  0.00  0.00    +0.000 A 
ATOM     31  C   UNL     1       0.558  12.185  20.961  0.00  0.00    +0.000 A 
ATOM     32  C   UNL     1      -0.029  13.214  21.696  0.00  0.00    +0.000 A 
ATOM     33  C   UNL     1      -1.016  12.920  22.630  0.00  0.00    +0.000 A 
ATOM     34  C   UNL     1      -1.401  11.601  22.820  0.00  0.00    +0.000 A 
ATOM     35  F   UNL     1      -2.354  11.312  23.713  0.00  0.00    +0.000 F 
ATOM     36  C   UNL     1      -0.809  10.566  22.098  0.00  0.00    +0.000 A 
ENDBRANCH  27  30
ENDBRANCH  23  24
ENDBRANCH  15  22
TORSDOF 5
ENDMDL
MODEL 5
REMARK VINA RESULT:      -9.5      1.175      1.562
REMARK  Name = 
REMARK  7 active torsions:
REMARK  status: ('A' for Active; 'I' for Inactive)
REMARK    1  A    between atoms: C_1  and  O_2
REMARK    2  A    between atoms: O_2  and  C_3
REMARK    3  A    between atoms: N_5  and  C_6
REMARK    4  A    between atoms: C_17  and  C_18
REMARK    5  A    between atoms: C_20  and  C_21
REMARK    6  A    between atoms: C_22  and  C_23
REMARK    7  A    between atoms: C_26  and  C_27
REMARK                            x       y       z     vdW  Elec       q    Type
REMARK                         _______ _______ _______ _____ _____    ______ ____
ROOT
ATOM      1  C   UNL     1       7.570   6.720  17.969  0.00  0.00    +0.000 C 
ATOM      2  C   UNL     1       6.427   7.474  17.266  0.00  0.00    +0.000 C 
ATOM      3  C   UNL     1       5.307   6.551  16.828  0.00  0.00    +0.000 C 
ATOM      4  C   UNL     1       4.837   5.758  18.053  0.00  0.00    +0.000 C 
ATOM      5  C   UNL     1       5.896   4.747  18.458  0.00  0.00    +0.000 C 
ATOM      6  C   UNL     1       7.164   5.529  18.878  0.00  0.00    +0.000 C 
ATOM      7  C   UNL     1       5.365   3.902  19.629  0.00  0.00    +0.000 C 
ATOM      8  C   UNL     1       4.101   3.125  19.276  0.00  0.00    +0.000 C 
ATOM      9  C   UNL     1       3.234   2.748  20.450  0.00  0.00    +0.000 C 
ATOM     10  O   UNL     1       3.622   2.450  21.567  0.00  0.00    +0.000 OA
ATOM     11  O   UNL     1       1.934   2.661  20.041  0.00  0.00    +0.000 OA
ATOM     12  C   UNL     1       1.744   3.580  18.969  0.00  0.00    +0.000 C 
ATOM     13  C   UNL     1       0.688   3.094  17.988  0.00  0.00    +0.000 C 
ATOM     14  C   UNL     1       3.120   3.791  18.323  0.00  0.00    +0.000 C 
ATOM     15  C   UNL     1       3.403   5.238  17.871  0.00  0.00    +0.000 C 
ENDROOT
BRANCH   1  18
ATOM     16  C   UNL     1       8.439   9.010  18.457  0.00  0.00    +0.000 C 
ATOM     17  O   UNL     1       7.738   9.606  17.653  0.00  0.00    +0.000 OA
ATOM     18  N   UNL     1       8.417   7.664  18.695  0.00  0.00    +0.000 N 
ATOM     19  H   UNL     1       9.080   7.330  19.380  0.00  0.00    +0.000 HD
BRANCH  16  21
ATOM     20  C   UNL     1       9.358  11.018  19.198  0.00  0.00    +0.000 C 
ATOM     21  O   UNL     1       9.382   9.589  19.241  0.00  0.00    +0.000 OA
ENDBRANCH  16  21
ENDBRANCH   1  18
BRANCH  15  22
ATOM     22  C   UNL     1       2.571   6.283  18.572  0.00  0.00    +0.000 C 
ATOM     23  C   UNL     1       2.548   7.569  18.193  0.00  0.00    +0.000 C 
BRANCH  23  24
ATOM     24  C   UNL     1       1.833   8.609  18.914  0.00  0.00    +0.000 A 
ATOM     25  C   UNL     1       1.452   9.814  18.341  0.00  0.00    +0.000 A 
ATOM     26  C   UNL     1       0.788  10.747  19.135  0.00  0.00    +0.000 A 
ATOM     27  C   UNL     1       0.494  10.457  20.474  0.00  0.00    +0.000 A 
ATOM     28  C   UNL     1       0.881   9.191  20.919  0.00  0.00    +0.000 A 
ATOM     29  N   UNL     1       1.535   8.272  20.182  0.00  0.00    +0.000 NA
BRANCH  27  30
ATOM     30  C   UNL     1      -0.175  11.416  21.368  0.00  0.00    +0.000 A 
ATOM     31  C   UNL     1       0.226  12.768  21.410  0.00  0.00    +0.000 A 
ATOM     32  C   UNL     1      -0.386  13.687  22.262  0.00  0.00    +0.000 A 
ATOM     33  C   UNL     1      -1.432  13.279  23.081  0.00  0.00    +0.000 A 
ATOM     34  C   UNL     1      -1.852  11.957  23.042  0.00  0.00    +0.000 A 
ATOM     35  F   UNL     1      -2.861  11.560  23.824  0.00  0.00    +0.000 F 
ATOM     36  C   UNL     1      -1.235  11.030  22.203  0.00  0.00    +0.000 A 
ENDBRANCH  27  30
ENDBRANCH  23  24
ENDBRANCH  15  22
TORSDOF 5
ENDMDL
MODEL 6
REMARK VINA RESULT:      -9.4      1.123      1.341
REMARK  Name = 
REMARK  7 active torsions:
REMARK  status: ('A' for Active; 'I' for Inactive)
REMARK    1  A    between atoms: C_1  and  O_2
REMARK    2  A    between atoms: O_2  and  C_3
REMARK    3  A    between atoms: N_5  and  C_6
REMARK    4  A    between atoms: C_17  and  C_18
REMARK    5  A    between atoms: C_20  and  C_21
REMARK    6  A    between atoms: C_22  and  C_23
REMARK    7  A    between atoms: C_26  and  C_27
REMARK                            x       y       z     vdW  Elec       q    Type
REMARK                         _______ _______ _______ _____ _____    ______ ____
ROOT
ATOM      1  C   UNL     1       6.948   5.691  16.429  0.00  0.00    +0.000 C 
ATOM      2  C   UNL     1       5.667   6.246  15.780  0.00  0.00    +0.000 C 
ATOM      3  C   UNL     1       4.528   5.246  15.798  0.00  0.00    +0.000 C 
ATOM      4  C   UNL     1       4.316   4.792  17.247  0.00  0.00    +0.000 C 
ATOM      5  C   UNL     1       5.473   3.912  17.692  0.00  0.00    +0.000 C 
ATOM      6  C   UNL     1       6.761   4.771  17.665  0.00  0.00    +0.000 C 
ATOM      7  C   UNL     1       5.194   3.395  19.114  0.00  0.00    +0.000 C 
ATOM      8  C   UNL     1       3.923   2.558  19.203  0.00  0.00    +0.000 C 
ATOM      9  C   UNL     1       3.294   2.495  20.572  0.00  0.00    +0.000 C 
ATOM     10  O   UNL     1       3.886   2.489  21.638  0.00  0.00    +0.000 OA
ATOM     11  O   UNL     1       1.947   2.311  20.442  0.00  0.00    +0.000 OA
ATOM     12  C   UNL     1       1.531   2.929  19.228  0.00  0.00    +0.000 C 
ATOM     13  C   UNL     1       0.340   2.213  18.609  0.00  0.00    +0.000 C 
ATOM     14  C   UNL     1       2.760   2.964  18.310  0.00  0.00    +0.000 C 
ATOM     15  C   UNL     1       2.897   4.248  17.466  0.00  0.00    +0.000 C 
ENDROOT
BRANCH   1  18
ATOM     16  C   UNL     1       7.520   7.908  17.426  0.00  0.00    +0.000 C 
ATOM     17  O   UNL     1       6.426   8.129  17.925  0.00  0.00    +0.000 OA
ATOM     18  N   UNL     1       7.869   6.785  16.729  0.00  0.00    +0.000 N 
ATOM     19  H   UNL     1       8.811   6.772  16.365  0.00  0.00    +0.000 HD
BRANCH  16  21
ATOM     20  C   UNL     1       8.660   9.505  18.682  0.00  0.00    +0.000 C 
ATOM     21  O   UNL     1       8.576   8.758  17.466  0.00  0.00    +0.000 OA
ENDBRANCH  16  21
ENDBRANCH   1  18
BRANCH  15  22
ATOM     22  C   UNL     1       2.158   5.440  18.023  0.00  0.00    +0.000 C 
ATOM     23  C   UNL     1       2.775   6.569  18.397  0.00  0.00    +0.000 C 
BRANCH  23  24
ATOM     24  C   UNL     1       2.096   7.688  19.027  0.00  0.00    +0.000 A 
ATOM     25  C   UNL     1       1.730   8.843  18.348  0.00  0.00    +0.000 A 
ATOM     26  C   UNL     1       1.099   9.861  19.060  0.00  0.00    +0.000 A 
ATOM     27  C   UNL     1       0.823   9.705  20.425  0.00  0.00    +0.000 A 
ATOM     28  C   UNL     1       1.191   8.479  20.982  0.00  0.00    +0.000 A 
ATOM     29  N   UNL     1       1.813   7.479  20.325  0.00  0.00    +0.000 NA
BRANCH  27  30
ATOM     30  C   UNL     1       0.190  10.759  21.235  0.00  0.00    +0.000 A 
ATOM     31  C   UNL     1      -0.693  10.435  22.285  0.00  0.00    +0.000 A 
ATOM     32  C   UNL     1      -1.314  11.421  23.052  0.00  0.00    +0.000 A 
ATOM     33  C   UNL     1      -1.049  12.761  22.797  0.00  0.00    +0.000 A 
ATOM     34  C   UNL     1      -0.170  13.100  21.779  0.00  0.00    +0.000 A 
ATOM     35  F   UNL     1       0.093  14.388  21.533  0.00  0.00    +0.000 F 
ATOM     36  C   UNL     1       0.443  12.120  21.000  0.00  0.00    +0.000 A 
ENDBRANCH  27  30
ENDBRANCH  23  24
ENDBRANCH  15  22
TORSDOF 5
ENDMDL
MODEL 7
REMARK VINA RESULT:      -9.3      1.218      1.733
REMARK  Name = 
REMARK  7 active torsions:
REMARK  status: ('A' for Active; 'I' for Inactive)
REMARK    1  A    between atoms: C_1  and  O_2
REMARK    2  A    between atoms: O_2  and  C_3
REMARK    3  A    between atoms: N_5  and  C_6
REMARK    4  A    between atoms: C_17  and  C_18
REMARK    5  A    between atoms: C_20  and  C_21
REMARK    6  A    between atoms: C_22  and  C_23
REMARK    7  A    between atoms: C_26  and  C_27
REMARK                            x       y       z     vdW  Elec       q    Type
REMARK                         _______ _______ _______ _____ _____    ______ ____
ROOT
ATOM      1  C   UNL     1       8.197   7.585  18.223  0.00  0.00    +0.000 C 
ATOM      2  C   UNL     1       7.023   8.246  17.479  0.00  0.00    +0.000 C 
ATOM      3  C   UNL     1       6.106   7.232  16.824  0.00  0.00    +0.000 C 
ATOM      4  C   UNL     1       5.650   6.239  17.899  0.00  0.00    +0.000 C 
ATOM      5  C   UNL     1       6.810   5.348  18.313  0.00  0.00    +0.000 C 
ATOM      6  C   UNL     1       7.896   6.248  18.951  0.00  0.00    +0.000 C 
ATOM      7  C   UNL     1       6.307   4.302  19.322  0.00  0.00    +0.000 C 
ATOM      8  C   UNL     1       5.218   3.400  18.752  0.00  0.00    +0.000 C 
ATOM      9  C   UNL     1       4.312   2.765  19.776  0.00  0.00    +0.000 C 
ATOM     10  O   UNL     1       4.634   2.394  20.892  0.00  0.00    +0.000 OA
ATOM     11  O   UNL     1       3.086   2.542  19.217  0.00  0.00    +0.000 OA
ATOM     12  C   UNL     1       2.859   3.546  18.232  0.00  0.00    +0.000 C 
ATOM     13  C   UNL     1       1.989   3.035  17.094  0.00  0.00    +0.000 C 
ATOM     14  C   UNL     1       4.241   4.028  17.770  0.00  0.00    +0.000 C 
ATOM     15  C   UNL     1       4.338   5.544  17.506  0.00  0.00    +0.000 C 
ENDROOT
BRANCH   1  18
ATOM     16  C   UNL     1       9.013   9.865  18.833  0.00  0.00    +0.000 C 
ATOM     17  O   UNL     1       8.669  10.423  17.801  0.00  0.00    +0.000 OA
ATOM     18  N   UNL     1       8.815   8.546  19.133  0.00  0.00    +0.000 N 
ATOM     19  H   UNL     1       9.182   8.241  20.023  0.00  0.00    +0.000 HD
BRANCH  16  21
ATOM     20  C   UNL     1      10.533  11.526  19.430  0.00  0.00    +0.000 C 
ATOM     21  O   UNL     1       9.674  10.464  19.853  0.00  0.00    +0.000 OA
ENDBRANCH  16  21
ENDBRANCH   1  18
BRANCH  15  22
ATOM     22  C   UNL     1       3.291   6.368  18.214  0.00  0.00    +0.000 C 
ATOM     23  C   UNL     1       2.931   7.593  17.806  0.00  0.00    +0.000 C 
BRANCH  23  24
ATOM     24  C   UNL     1       2.001   8.442  18.531  0.00  0.00    +0.000 A 
ATOM     25  C   UNL     1       1.284   9.473  17.937  0.00  0.00    +0.000 A 
ATOM     26  C   UNL     1       0.434  10.237  18.735  0.00  0.00    +0.000 A 
ATOM     27  C   UNL     1       0.293   9.947  20.099  0.00  0.00    +0.000 A 
ATOM     28  C   UNL     1       1.025   8.854  20.566  0.00  0.00    +0.000 A 
ATOM     29  N   UNL     1       1.865   8.104  19.825  0.00  0.00    +0.000 NA
BRANCH  27  30
ATOM     30  C   UNL     1      -0.564  10.740  20.996  0.00  0.00    +0.000 A 
ATOM     31  C   UNL     1      -0.614  10.467  22.379  0.00  0.00    +0.000 A 
ATOM     32  C   UNL     1      -1.432  11.198  23.241  0.00  0.00    +0.000 A 
ATOM     33  C   UNL     1      -2.208  12.237  22.740  0.00  0.00    +0.000 A 
ATOM     34  C   UNL     1      -2.160  12.530  21.385  0.00  0.00    +0.000 A 
ATOM     35  F   UNL     1      -2.901  13.532  20.899  0.00  0.00    +0.000 F 
ATOM     36  C   UNL     1      -1.356  11.795  20.517  0.00  0.00    +0.000 A 
ENDBRANCH  27  30
ENDBRANCH  23  24
ENDBRANCH  15  22
TORSDOF 5
ENDMDL
MODEL 8
REMARK VINA RESULT:      -9.2      0.975      1.060
REMARK  Name = 
REMARK  7 active torsions:
REMARK  status: ('A' for Active; 'I' for Inactive)
REMARK    1  A    between atoms: C_1  and  O_2
REMARK    2  A    between atoms: O_2  and  C_3
REMARK    3  A    between atoms: N_5  and  C_6
REMARK    4  A    between atoms: C_17  and  C_18
REMARK    5  A    between atoms: C_20  and  C_21
REMARK    6  A    between atoms: C_22  and  C_23
REMARK    7  A    between atoms: C_26  and  C_27
REMARK                            x       y       z     vdW  Elec       q    Type
REMARK                         _______ _______ _______ _____ _____    ______ ____
ROOT
ATOM      1  C   UNL     1       7.838   7.148  18.079  0.00  0.00    +0.000 C 
ATOM      2  C   UNL     1       6.615   7.842  17.452  0.00  0.00    +0.000 C 
ATOM      3  C   UNL     1       5.598   6.854  16.916  0.00  0.00    +0.000 C 
ATOM      4  C   UNL     1       5.224   5.893  18.050  0.00  0.00    +0.000 C 
ATOM      5  C   UNL     1       6.389   4.966  18.354  0.00  0.00    +0.000 C 
ATOM      6  C   UNL     1       7.568   5.832  18.858  0.00  0.00    +0.000 C 
ATOM      7  C   UNL     1       5.959   3.953  19.429  0.00  0.00    +0.000 C 
ATOM      8  C   UNL     1       4.784   3.085  18.992  0.00  0.00    +0.000 C 
ATOM      9  C   UNL     1       3.970   2.498  20.117  0.00  0.00    +0.000 C 
ATOM     10  O   UNL     1       4.395   2.130  21.199  0.00  0.00    +0.000 OA
ATOM     11  O   UNL     1       2.684   2.313  19.696  0.00  0.00    +0.000 OA
ATOM     12  C   UNL     1       2.389   3.312  18.723  0.00  0.00    +0.000 C 
ATOM     13  C   UNL     1       1.386   2.819  17.692  0.00  0.00    +0.000 C 
ATOM     14  C   UNL     1       3.730   3.736  18.109  0.00  0.00    +0.000 C 
ATOM     15  C   UNL     1       3.854   5.243  17.810  0.00  0.00    +0.000 C 
ENDROOT
BRANCH   1  18
ATOM     16  C   UNL     1       8.734   9.421  18.595  0.00  0.00    +0.000 C 
ATOM     17  O   UNL     1       8.241   9.993  17.633  0.00  0.00    +0.000 OA
ATOM     18  N   UNL     1       8.583   8.097  18.902  0.00  0.00    +0.000 N 
ATOM     19  H   UNL     1       9.077   7.780  19.724  0.00  0.00    +0.000 HD
BRANCH  16  21
ATOM     20  C   UNL     1       9.342  11.418  19.627  0.00  0.00    +0.000 C 
ATOM     21  O   UNL     1       9.539  10.007  19.515  0.00  0.00    +0.000 OA
ENDBRANCH  16  21
ENDBRANCH   1  18
BRANCH  15  22
ATOM     22  C   UNL     1       2.918   6.116  18.610  0.00  0.00    +0.000 C 
ATOM     23  C   UNL     1       2.598   7.365  18.246  0.00  0.00    +0.000 C 
BRANCH  23  24
ATOM     24  C   UNL     1       1.781   8.255  19.053  0.00  0.00    +0.000 A 
ATOM     25  C   UNL     1       1.575   8.081  20.415  0.00  0.00    +0.000 A 
ATOM     26  C   UNL     1       0.755   8.987  21.084  0.00  0.00    +0.000 A 
ATOM     27  C   UNL     1       0.175  10.061  20.395  0.00  0.00    +0.000 A 
ATOM     28  C   UNL     1       0.499  10.159  19.041  0.00  0.00    +0.000 A 
ATOM     29  N   UNL     1       1.278   9.293  18.361  0.00  0.00    +0.000 NA
BRANCH  27  30
ATOM     30  C   UNL     1      -0.726  11.029  21.043  0.00  0.00    +0.000 A 
ATOM     31  C   UNL     1      -0.784  11.137  22.448  0.00  0.00    +0.000 A 
ATOM     32  C   UNL     1      -1.642  12.036  23.079  0.00  0.00    +0.000 A 
ATOM     33  C   UNL     1      -2.453  12.868  22.315  0.00  0.00    +0.000 A 
ATOM     34  C   UNL     1      -2.399  12.788  20.931  0.00  0.00    +0.000 A 
ATOM     35  F   UNL     1      -3.173  13.589  20.191  0.00  0.00    +0.000 F 
ATOM     36  C   UNL     1      -1.553  11.881  20.295  0.00  0.00    +0.000 A 
ENDBRANCH  27  30
ENDBRANCH  23  24
ENDBRANCH  15  22
TORSDOF 5
ENDMDL
MODEL 9
REMARK VINA RESULT:      -9.1      4.968     10.646
REMARK  Name = 
REMARK  7 active torsions:
REMARK  status: ('A' for Active; 'I' for Inactive)
REMARK    1  A    between atoms: C_1  and  O_2
REMARK    2  A    between atoms: O_2  and  C_3
REMARK    3  A    between atoms: N_5  and  C_6
REMARK    4  A    between atoms: C_17  and  C_18
REMARK    5  A    between atoms: C_20  and  C_21
REMARK    6  A    between atoms: C_22  and  C_23
REMARK    7  A    between atoms: C_26  and  C_27
REMARK                            x       y       z     vdW  Elec       q    Type
REMARK                         _______ _______ _______ _____ _____    ______ ____
ROOT
ATOM      1  C   UNL     1      -3.088  13.501  21.511  0.00  0.00    +0.000 C 
ATOM      2  C   UNL     1      -2.801  12.575  20.316  0.00  0.00    +0.000 C 
ATOM      3  C   UNL     1      -1.696  13.105  19.423  0.00  0.00    +0.000 C 
ATOM      4  C   UNL     1      -0.460  13.359  20.295  0.00  0.00    +0.000 C 
ATOM      5  C   UNL     1      -0.696  14.557  21.198  0.00  0.00    +0.000 C 
ATOM      6  C   UNL     1      -1.866  14.212  22.152  0.00  0.00    +0.000 C 
ATOM      7  C   UNL     1       0.588  14.848  21.995  0.00  0.00    +0.000 C 
ATOM      8  C   UNL     1       1.780  15.174  21.103  0.00  0.00    +0.000 C 
ATOM      9  C   UNL     1       3.131  14.921  21.723  0.00  0.00    +0.000 C 
ATOM     10  O   UNL     1       3.424  15.064  22.898  0.00  0.00    +0.000 OA
ATOM     11  O   UNL     1       4.031  14.626  20.739  0.00  0.00    +0.000 OA
ATOM     12  C   UNL     1       3.331  13.984  19.677  0.00  0.00    +0.000 C 
ATOM     13  C   UNL     1       3.967  14.273  18.325  0.00  0.00    +0.000 C 
ATOM     14  C   UNL     1       1.871  14.445  19.771  0.00  0.00    +0.000 C 
ATOM     15  C   UNL     1       0.829  13.352  19.461  0.00  0.00    +0.000 C 
ENDROOT
BRANCH   1  18
ATOM     16  C   UNL     1      -5.211  12.927  22.695  0.00  0.00    +0.000 C 
ATOM     17  O   UNL     1      -5.950  13.624  22.014  0.00  0.00    +0.000 OA
ATOM     18  N   UNL     1      -3.862  12.784  22.522  0.00  0.00    +0.000 N 
ATOM     19  H   UNL     1      -3.397  12.183  23.187  0.00  0.00    +0.000 HD
BRANCH  16  21
ATOM     20  C   UNL     1      -4.751  12.317  24.895  0.00  0.00    +0.000 C 
ATOM     21  O   UNL     1      -5.608  12.186  23.759  0.00  0.00    +0.000 OA
ENDBRANCH  16  21
ENDBRANCH   1  18
BRANCH  15  22
ATOM     22  C   UNL     1       1.338  11.941  19.632  0.00  0.00    +0.000 C 
ATOM     23  C   UNL     1       1.118  10.974  18.731  0.00  0.00    +0.000 C 
BRANCH  23  24
ATOM     24  C   UNL     1       1.511   9.589  18.924  0.00  0.00    +0.000 A 
ATOM     25  C   UNL     1       2.141   8.828  17.947  0.00  0.00    +0.000 A 
ATOM     26  C   UNL     1       2.454   7.501  18.237  0.00  0.00    +0.000 A 
ATOM     27  C   UNL     1       2.157   6.963  19.496  0.00  0.00    +0.000 A 
ATOM     28  C   UNL     1       1.573   7.841  20.410  0.00  0.00    +0.000 A 
ATOM     29  N   UNL     1       1.245   9.125  20.158  0.00  0.00    +0.000 NA
BRANCH  27  30
ATOM     30  C   UNL     1       2.434   5.560  19.846  0.00  0.00    +0.000 A 
ATOM     31  C   UNL     1       3.605   4.917  19.393  0.00  0.00    +0.000 A 
ATOM     32  C   UNL     1       3.876   3.584  19.701  0.00  0.00    +0.000 A 
ATOM     33  C   UNL     1       2.987   2.865  20.491  0.00  0.00    +0.000 A 
ATOM     34  C   UNL     1       1.838   3.484  20.960  0.00  0.00    +0.000 A 
ATOM     35  F   UNL     1       0.982   2.798  21.725  0.00  0.00    +0.000 F 
ATOM     36  C   UNL     1       1.555   4.811  20.644  0.00  0.00    +0.000 A 
ENDBRANCH  27  30
ENDBRANCH  23  24
ENDBRANCH  15  22
TORSDOF 5
ENDMDL
