MODEL 1
REMARK VINA RESULT:      -6.7      0.000      0.000
REMARK  Name = 
REMARK  12 active torsions:
REMARK  status: ('A' for Active; 'I' for Inactive)
REMARK    1  A    between atoms: C_1  and  O_2
REMARK    2  A    between atoms: O_2  and  C_3
REMARK    3  A    between atoms: C_4  and  C_5
REMARK    4  A    between atoms: C_5  and  C_6
REMARK    5  A    between atoms: C_6  and  C_7
REMARK    6  A    between atoms: C_7  and  C_8
REMARK    7  A    between atoms: C_16  and  C_17
REMARK    8  A    between atoms: C_17  and  C_18
REMARK    9  A    between atoms: C_18  and  C_19
REMARK   10  A    between atoms: C_18  and  N_20
REMARK   11  A    between atoms: C_21  and  O_22
REMARK   12  A    between atoms: O_22  and  C_23
REMARK                            x       y       z     vdW  Elec       q    Type
REMARK                         _______ _______ _______ _____ _____    ______ ____
ROOT
ATOM      1  C   UNL     1       3.151   3.960  18.819  0.00  0.00    +0.000 A 
ATOM      2  C   UNL     1       3.705   4.651  17.734  0.00  0.00    +0.000 A 
ATOM      3  C   UNL     1       3.574   6.043  17.707  0.00  0.00    +0.000 A 
ATOM      4  C   UNL     1       2.849   6.720  18.689  0.00  0.00    +0.000 A 
ATOM      5  C   UNL     1       2.187   6.020  19.706  0.00  0.00    +0.000 A 
ATOM      6  C   UNL     1       2.285   4.619  19.718  0.00  0.00    +0.000 A 
ENDROOT
BRANCH   1   8
ATOM      7  C   UNL     1       4.454   2.427  19.983  0.00  0.00    +0.000 C 
ATOM      8  O   UNL     1       3.416   2.624  19.016  0.00  0.00    +0.000 OA
ENDBRANCH   1   8
BRANCH   6   9
ATOM      9  O   UNL     1       1.567   3.918  20.655  0.00  0.00    +0.000 OA
ATOM     10  C   UNL     1       0.492   3.173  20.067  0.00  0.00    +0.000 C 
ENDBRANCH   6   9
BRANCH   2  11
ATOM     11  C   UNL     1       4.382   3.931  16.584  0.00  0.00    +0.000 C 
BRANCH  11  12
ATOM     12  C   UNL     1       4.997   4.930  15.606  0.00  0.00    +0.000 C 
BRANCH  12  13
ATOM     13  C   UNL     1       6.510   4.770  15.463  0.00  0.00    +0.000 C 
BRANCH  13  14
ATOM     14  C   UNL     1       7.163   5.449  16.642  0.00  0.00    +0.000 A 
ATOM     15  C   UNL     1       7.542   4.698  17.764  0.00  0.00    +0.000 A 
ATOM     16  C   UNL     1       7.987   5.337  18.921  0.00  0.00    +0.000 A 
ATOM     17  C   UNL     1       8.059   6.727  18.965  0.00  0.00    +0.000 A 
ATOM     18  C   UNL     1       7.703   7.481  17.847  0.00  0.00    +0.000 A 
ATOM     19  C   UNL     1       7.258   6.846  16.689  0.00  0.00    +0.000 A 
ENDBRANCH  13  14
ENDBRANCH  12  13
ENDBRANCH  11  12
ENDBRANCH   2  11
BRANCH   5  20
ATOM     20  C   UNL     1       1.415   6.816  20.740  0.00  0.00    +0.000 C 
BRANCH  20  21
ATOM     21  C   UNL     1       1.695   8.335  20.741  0.00  0.00    +0.000 C 
ATOM     22  C   UNL     1       0.609   9.150  20.033  0.00  0.00    +0.000 C 
BRANCH  21  23
ATOM     23  N   UNL     1       1.814   8.814  22.129  0.00  0.00    +0.000 NA
ATOM     24  H   UNL     1       0.951   9.283  22.404  0.00  0.00    +0.000 HD
ATOM     25  H   UNL     1       2.539   9.528  22.169  0.00  0.00    +0.000 HD
ENDBRANCH  21  23
ENDBRANCH  20  21
ENDBRANCH   5  20
TORSDOF 9
ENDMDL
MODEL 2
REMARK VINA RESULT:      -6.5      0.517      1.132
REMARK  Name = 
REMARK  12 active torsions:
REMARK  status: ('A' for Active; 'I' for Inactive)
REMARK    1  A    between atoms: C_1  and  O_2
REMARK    2  A    between atoms: O_2  and  C_3
REMARK    3  A    between atoms: C_4  and  C_5
REMARK    4  A    between atoms: C_5  and  C_6
REMARK    5  A    between atoms: C_6  and  C_7
REMARK    6  A    between atoms: C_7  and  C_8
REMARK    7  A    between atoms: C_16  and  C_17
REMARK    8  A    between atoms: C_17  and  C_18
REMARK    9  A    between atoms: C_18  and  C_19
REMARK   10  A    between atoms: C_18  and  N_20
REMARK   11  A    between atoms: C_21  and  O_22
REMARK   12  A    between atoms: O_22  and  C_23
REMARK                            x       y       z     vdW  Elec       q    Type
REMARK                         _______ _______ _______ _____ _____    ______ ____
ROOT
ATOM      1  C   UNL     1       2.855   3.846  18.675  0.00  0.00    +0.000 A 
ATOM      2  C   UNL     1       3.694   4.553  17.804  0.00  0.00    +0.000 A 
ATOM      3  C   UNL     1       3.797   5.937  17.971  0.00  0.00    +0.000 A 
ATOM      4  C   UNL     1       3.032   6.608  18.927  0.00  0.00    +0.000 A 
ATOM      5  C   UNL     1       2.099   5.922  19.714  0.00  0.00    +0.000 A 
ATOM      6  C   UNL     1       1.965   4.537  19.526  0.00  0.00    +0.000 A 
ENDROOT
BRANCH   1   8
ATOM      7  C   UNL     1       3.995   1.960  19.414  0.00  0.00    +0.000 C 
ATOM      8  O   UNL     1       2.861   2.471  18.703  0.00  0.00    +0.000 OA
ENDBRANCH   1   8
BRANCH   6   9
ATOM      9  O   UNL     1       0.991   3.869  20.226  0.00  0.00    +0.000 OA
ATOM     10  C   UNL     1       1.494   3.293  21.438  0.00  0.00    +0.000 C 
ENDBRANCH   6   9
BRANCH   2  11
ATOM     11  C   UNL     1       4.434   3.869  16.670  0.00  0.00    +0.000 C 
BRANCH  11  12
ATOM     12  C   UNL     1       5.061   4.899  15.734  0.00  0.00    +0.000 C 
BRANCH  12  13
ATOM     13  C   UNL     1       6.588   4.858  15.737  0.00  0.00    +0.000 C 
BRANCH  13  14
ATOM     14  C   UNL     1       7.072   5.636  16.937  0.00  0.00    +0.000 A 
ATOM     15  C   UNL     1       7.226   7.027  16.855  0.00  0.00    +0.000 A 
ATOM     16  C   UNL     1       7.833   7.729  17.896  0.00  0.00    +0.000 A 
ATOM     17  C   UNL     1       8.286   7.049  19.025  0.00  0.00    +0.000 A 
ATOM     18  C   UNL     1       8.118   5.668  19.123  0.00  0.00    +0.000 A 
ATOM     19  C   UNL     1       7.512   4.962  18.084  0.00  0.00    +0.000 A 
ENDBRANCH  13  14
ENDBRANCH  12  13
ENDBRANCH  11  12
ENDBRANCH   2  11
BRANCH   5  20
ATOM     20  C   UNL     1       1.299   6.712  20.731  0.00  0.00    +0.000 C 
BRANCH  20  21
ATOM     21  C   UNL     1       1.621   8.221  20.790  0.00  0.00    +0.000 C 
ATOM     22  C   UNL     1       0.511   9.100  20.207  0.00  0.00    +0.000 C 
BRANCH  21  23
ATOM     23  N   UNL     1       1.854   8.622  22.189  0.00  0.00    +0.000 NA
ATOM     24  H   UNL     1       0.960   8.790  22.649  0.00  0.00    +0.000 HD
ATOM     25  H   UNL     1       2.340   9.517  22.197  0.00  0.00    +0.000 HD
ENDBRANCH  21  23
ENDBRANCH  20  21
ENDBRANCH   5  20
TORSDOF 9
ENDMDL
MODEL 3
REMARK VINA RESULT:      -6.4      3.886      7.501
REMARK  Name = 
REMARK  12 active torsions:
REMARK  status: ('A' for Active; 'I' for Inactive)
REMARK    1  A    between atoms: C_1  and  O_2
REMARK    2  A    between atoms: O_2  and  C_3
REMARK    3  A    between atoms: C_4  and  C_5
REMARK    4  A    between atoms: C_5  and  C_6
REMARK    5  A    between atoms: C_6  and  C_7
REMARK    6  A    between atoms: C_7  and  C_8
REMARK    7  A    between atoms: C_16  and  C_17
REMARK    8  A    between atoms: C_17  and  C_18
REMARK    9  A    between atoms: C_18  and  C_19
REMARK   10  A    between atoms: C_18  and  N_20
REMARK   11  A    between atoms: C_21  and  O_22
REMARK   12  A    between atoms: O_22  and  C_23
REMARK                            x       y       z     vdW  Elec       q    Type
REMARK                         _______ _______ _______ _____ _____    ______ ____
ROOT
ATOM      1  C   UNL     1       6.719   5.315  16.208  0.00  0.00    +0.000 A 
ATOM      2  C   UNL     1       5.454   5.063  16.754  0.00  0.00    +0.000 A 
ATOM      3  C   UNL     1       4.567   4.273  16.017  0.00  0.00    +0.000 A 
ATOM      4  C   UNL     1       4.900   3.810  14.742  0.00  0.00    +0.000 A 
ATOM      5  C   UNL     1       6.113   4.166  14.141  0.00  0.00    +0.000 A 
ATOM      6  C   UNL     1       6.994   4.989  14.862  0.00  0.00    +0.000 A 
ENDROOT
BRANCH   1   8
ATOM      7  C   UNL     1       7.479   7.312  17.124  0.00  0.00    +0.000 C 
ATOM      8  O   UNL     1       7.708   5.907  16.959  0.00  0.00    +0.000 OA
ENDBRANCH   1   8
BRANCH   6   9
ATOM      9  O   UNL     1       8.144   5.419  14.248  0.00  0.00    +0.000 OA
ATOM     10  C   UNL     1       7.940   5.712  12.860  0.00  0.00    +0.000 C 
ENDBRANCH   6   9
BRANCH   2  11
ATOM     11  C   UNL     1       5.016   5.663  18.076  0.00  0.00    +0.000 C 
BRANCH  11  12
ATOM     12  C   UNL     1       3.725   6.461  17.906  0.00  0.00    +0.000 C 
BRANCH  12  13
ATOM     13  C   UNL     1       2.915   6.568  19.197  0.00  0.00    +0.000 C 
BRANCH  13  14
ATOM     14  C   UNL     1       2.111   5.299  19.349  0.00  0.00    +0.000 A 
ATOM     15  C   UNL     1       1.836   4.791  20.626  0.00  0.00    +0.000 A 
ATOM     16  C   UNL     1       1.246   3.536  20.771  0.00  0.00    +0.000 A 
ATOM     17  C   UNL     1       0.924   2.783  19.644  0.00  0.00    +0.000 A 
ATOM     18  C   UNL     1       1.175   3.290  18.369  0.00  0.00    +0.000 A 
ATOM     19  C   UNL     1       1.766   4.544  18.220  0.00  0.00    +0.000 A 
ENDBRANCH  13  14
ENDBRANCH  12  13
ENDBRANCH  11  12
ENDBRANCH   2  11
BRANCH   5  20
ATOM     20  C   UNL     1       6.411   3.632  12.753  0.00  0.00    +0.000 C 
BRANCH  20  21
ATOM     21  C   UNL     1       5.349   2.669  12.179  0.00  0.00    +0.000 C 
ATOM     22  C   UNL     1       4.359   3.356  11.234  0.00  0.00    +0.000 C 
BRANCH  21  23
ATOM     23  N   UNL     1       6.015   1.575  11.451  0.00  0.00    +0.000 NA
ATOM     24  H   UNL     1       6.577   1.962  10.693  0.00  0.00    +0.000 HD
ATOM     25  H   UNL     1       5.305   1.000  11.001  0.00  0.00    +0.000 HD
ENDBRANCH  21  23
ENDBRANCH  20  21
ENDBRANCH   5  20
TORSDOF 9
ENDMDL
MODEL 4
REMARK VINA RESULT:      -6.3      3.894      7.508
REMARK  Name = 
REMARK  12 active torsions:
REMARK  status: ('A' for Active; 'I' for Inactive)
REMARK    1  A    between atoms: C_1  and  O_2
REMARK    2  A    between atoms: O_2  and  C_3
REMARK    3  A    between atoms: C_4  and  C_5
REMARK    4  A    between atoms: C_5  and  C_6
REMARK    5  A    between atoms: C_6  and  C_7
REMARK    6  A    between atoms: C_7  and  C_8
REMARK    7  A    between atoms: C_16  and  C_17
REMARK    8  A    between atoms: C_17  and  C_18
REMARK    9  A    between atoms: C_18  and  C_19
REMARK   10  A    between atoms: C_18  and  N_20
REMARK   11  A    between atoms: C_21  and  O_22
REMARK   12  A    between atoms: O_22  and  C_23
REMARK                            x       y       z     vdW  Elec       q    Type
REMARK                         _______ _______ _______ _____ _____    ______ ____
ROOT
ATOM      1  C   UNL     1       6.695   5.318  16.164  0.00  0.00    +0.000 A 
ATOM      2  C   UNL     1       5.411   5.110  16.684  0.00  0.00    +0.000 A 
ATOM      3  C   UNL     1       4.518   4.336  15.937  0.00  0.00    +0.000 A 
ATOM      4  C   UNL     1       4.865   3.846  14.677  0.00  0.00    +0.000 A 
ATOM      5  C   UNL     1       6.101   4.159  14.098  0.00  0.00    +0.000 A 
ATOM      6  C   UNL     1       6.989   4.967  14.828  0.00  0.00    +0.000 A 
ENDROOT
BRANCH   1   8
ATOM      7  C   UNL     1       7.467   7.297  17.108  0.00  0.00    +0.000 C 
ATOM      8  O   UNL     1       7.683   5.892  16.929  0.00  0.00    +0.000 OA
ENDBRANCH   1   8
BRANCH   6   9
ATOM      9  O   UNL     1       8.165   5.355  14.235  0.00  0.00    +0.000 OA
ATOM     10  C   UNL     1       7.973   5.781  12.880  0.00  0.00    +0.000 C 
ENDBRANCH   6   9
BRANCH   2  11
ATOM     11  C   UNL     1       4.961   5.740  17.988  0.00  0.00    +0.000 C 
BRANCH  11  12
ATOM     12  C   UNL     1       3.711   6.591  17.775  0.00  0.00    +0.000 C 
BRANCH  12  13
ATOM     13  C   UNL     1       2.826   6.674  19.017  0.00  0.00    +0.000 C 
BRANCH  13  14
ATOM     14  C   UNL     1       2.295   5.290  19.303  0.00  0.00    +0.000 A 
ATOM     15  C   UNL     1       1.773   4.509  18.262  0.00  0.00    +0.000 A 
ATOM     16  C   UNL     1       1.127   3.305  18.543  0.00  0.00    +0.000 A 
ATOM     17  C   UNL     1       1.001   2.872  19.861  0.00  0.00    +0.000 A 
ATOM     18  C   UNL     1       1.535   3.633  20.900  0.00  0.00    +0.000 A 
ATOM     19  C   UNL     1       2.182   4.837  20.624  0.00  0.00    +0.000 A 
ENDBRANCH  13  14
ENDBRANCH  12  13
ENDBRANCH  11  12
ENDBRANCH   2  11
BRANCH   5  20
ATOM     20  C   UNL     1       6.414   3.598  12.725  0.00  0.00    +0.000 C 
BRANCH  20  21
ATOM     21  C   UNL     1       5.357   2.626  12.157  0.00  0.00    +0.000 C 
ATOM     22  C   UNL     1       4.356   3.303  11.218  0.00  0.00    +0.000 C 
BRANCH  21  23
ATOM     23  N   UNL     1       6.029   1.538  11.425  0.00  0.00    +0.000 NA
ATOM     24  H   UNL     1       6.527   1.923  10.623  0.00  0.00    +0.000 HD
ATOM     25  H   UNL     1       5.321   0.917  11.038  0.00  0.00    +0.000 HD
ENDBRANCH  21  23
ENDBRANCH  20  21
ENDBRANCH   5  20
TORSDOF 9
ENDMDL
MODEL 5
REMARK VINA RESULT:      -6.3      2.749      7.224
REMARK  Name = 
REMARK  12 active torsions:
REMARK  status: ('A' for Active; 'I' for Inactive)
REMARK    1  A    between atoms: C_1  and  O_2
REMARK    2  A    between atoms: O_2  and  C_3
REMARK    3  A    between atoms: C_4  and  C_5
REMARK    4  A    between atoms: C_5  and  C_6
REMARK    5  A    between atoms: C_6  and  C_7
REMARK    6  A    between atoms: C_7  and  C_8
REMARK    7  A    between atoms: C_16  and  C_17
REMARK    8  A    between atoms: C_17  and  C_18
REMARK    9  A    between atoms: C_18  and  C_19
REMARK   10  A    between atoms: C_18  and  N_20
REMARK   11  A    between atoms: C_21  and  O_22
REMARK   12  A    between atoms: O_22  and  C_23
REMARK                            x       y       z     vdW  Elec       q    Type
REMARK                         _______ _______ _______ _____ _____    ______ ____
ROOT
ATOM      1  C   UNL     1       2.866   5.135  20.012  0.00  0.00    +0.000 A 
ATOM      2  C   UNL     1       2.298   6.403  19.832  0.00  0.00    +0.000 A 
ATOM      3  C   UNL     1       2.694   7.148  18.718  0.00  0.00    +0.000 A 
ATOM      4  C   UNL     1       3.681   6.680  17.849  0.00  0.00    +0.000 A 
ATOM      5  C   UNL     1       4.343   5.470  18.095  0.00  0.00    +0.000 A 
ATOM      6  C   UNL     1       3.974   4.734  19.234  0.00  0.00    +0.000 A 
ENDROOT
BRANCH   1   8
ATOM      7  C   UNL     1       1.168   3.637  20.532  0.00  0.00    +0.000 C 
ATOM      8  O   UNL     1       2.379   4.270  20.963  0.00  0.00    +0.000 OA
ENDBRANCH   1   8
BRANCH   6   9
ATOM      9  O   UNL     1       4.677   3.594  19.536  0.00  0.00    +0.000 OA
ATOM     10  C   UNL     1       4.086   2.424  18.955  0.00  0.00    +0.000 C 
ENDBRANCH   6   9
BRANCH   2  11
ATOM     11  C   UNL     1       1.323   6.994  20.832  0.00  0.00    +0.000 C 
BRANCH  11  12
ATOM     12  C   UNL     1       1.356   8.521  20.782  0.00  0.00    +0.000 C 
BRANCH  12  13
ATOM     13  C   UNL     1       1.156   9.167  22.152  0.00  0.00    +0.000 C 
BRANCH  13  14
ATOM     14  C   UNL     1       0.023  10.158  22.039  0.00  0.00    +0.000 A 
ATOM     15  C   UNL     1      -0.108  10.946  20.887  0.00  0.00    +0.000 A 
ATOM     16  C   UNL     1      -1.044  11.979  20.844  0.00  0.00    +0.000 A 
ATOM     17  C   UNL     1      -1.855  12.230  21.949  0.00  0.00    +0.000 A 
ATOM     18  C   UNL     1      -1.745  11.438  23.091  0.00  0.00    +0.000 A 
ATOM     19  C   UNL     1      -0.811  10.404  23.138  0.00  0.00    +0.000 A 
ENDBRANCH  13  14
ENDBRANCH  12  13
ENDBRANCH  11  12
ENDBRANCH   2  11
BRANCH   5  20
ATOM     20  C   UNL     1       5.407   5.020  17.114  0.00  0.00    +0.000 C 
BRANCH  20  21
ATOM     21  C   UNL     1       6.492   6.072  16.796  0.00  0.00    +0.000 C 
ATOM     22  C   UNL     1       7.405   6.377  17.986  0.00  0.00    +0.000 C 
BRANCH  21  23
ATOM     23  N   UNL     1       7.322   5.601  15.673  0.00  0.00    +0.000 NA
ATOM     24  H   UNL     1       8.225   5.284  16.025  0.00  0.00    +0.000 HD
ATOM     25  H   UNL     1       7.526   6.389  15.062  0.00  0.00    +0.000 HD
ENDBRANCH  21  23
ENDBRANCH  20  21
ENDBRANCH   5  20
TORSDOF 9
ENDMDL
MODEL 6
REMARK VINA RESULT:      -6.3      2.704      6.684
REMARK  Name = 
REMARK  12 active torsions:
REMARK  status: ('A' for Active; 'I' for Inactive)
REMARK    1  A    between atoms: C_1  and  O_2
REMARK    2  A    between atoms: O_2  and  C_3
REMARK    3  A    between atoms: C_4  and  C_5
REMARK    4  A    between atoms: C_5  and  C_6
REMARK    5  A    between atoms: C_6  and  C_7
REMARK    6  A    between atoms: C_7  and  C_8
REMARK    7  A    between atoms: C_16  and  C_17
REMARK    8  A    between atoms: C_17  and  C_18
REMARK    9  A    between atoms: C_18  and  C_19
REMARK   10  A    between atoms: C_18  and  N_20
REMARK   11  A    between atoms: C_21  and  O_22
REMARK   12  A    between atoms: O_22  and  C_23
REMARK                            x       y       z     vdW  Elec       q    Type
REMARK                         _______ _______ _______ _____ _____    ______ ____
ROOT
ATOM      1  C   UNL     1       4.164   6.246  17.736  0.00  0.00    +0.000 A 
ATOM      2  C   UNL     1       3.117   6.989  18.296  0.00  0.00    +0.000 A 
ATOM      3  C   UNL     1       2.427   6.438  19.379  0.00  0.00    +0.000 A 
ATOM      4  C   UNL     1       2.719   5.155  19.844  0.00  0.00    +0.000 A 
ATOM      5  C   UNL     1       3.678   4.358  19.207  0.00  0.00    +0.000 A 
ATOM      6  C   UNL     1       4.350   4.892  18.095  0.00  0.00    +0.000 A 
ENDROOT
BRANCH   1   8
ATOM      7  C   UNL     1       6.274   7.156  17.390  0.00  0.00    +0.000 C 
ATOM      8  O   UNL     1       5.013   6.805  16.809  0.00  0.00    +0.000 OA
ENDBRANCH   1   8
BRANCH   6   9
ATOM      9  O   UNL     1       5.226   4.090  17.407  0.00  0.00    +0.000 OA
ATOM     10  C   UNL     1       4.807   3.866  16.054  0.00  0.00    +0.000 C 
ENDBRANCH   6   9
BRANCH   2  11
ATOM     11  C   UNL     1       2.690   8.329  17.727  0.00  0.00    +0.000 C 
BRANCH  11  12
ATOM     12  C   UNL     1       1.330   8.744  18.283  0.00  0.00    +0.000 C 
BRANCH  12  13
ATOM     13  C   UNL     1       1.330  10.153  18.871  0.00  0.00    +0.000 C 
BRANCH  13  14
ATOM     14  C   UNL     1       0.625  10.102  20.205  0.00  0.00    +0.000 A 
ATOM     15  C   UNL     1      -0.321  11.081  20.537  0.00  0.00    +0.000 A 
ATOM     16  C   UNL     1      -0.849  11.140  21.826  0.00  0.00    +0.000 A 
ATOM     17  C   UNL     1      -0.439  10.222  22.790  0.00  0.00    +0.000 A 
ATOM     18  C   UNL     1       0.487   9.232  22.463  0.00  0.00    +0.000 A 
ATOM     19  C   UNL     1       1.017   9.169  21.175  0.00  0.00    +0.000 A 
ENDBRANCH  13  14
ENDBRANCH  12  13
ENDBRANCH  11  12
ENDBRANCH   2  11
BRANCH   5  20
ATOM     20  C   UNL     1       3.944   2.972  19.761  0.00  0.00    +0.000 C 
BRANCH  20  21
ATOM     21  C   UNL     1       3.210   1.824  19.036  0.00  0.00    +0.000 C 
ATOM     22  C   UNL     1       2.107   2.312  18.093  0.00  0.00    +0.000 C 
BRANCH  21  23
ATOM     23  N   UNL     1       4.178   1.031  18.258  0.00  0.00    +0.000 NA
ATOM     24  H   UNL     1       3.908   1.030  17.275  0.00  0.00    +0.000 HD
ATOM     25  H   UNL     1       4.125   0.060  18.559  0.00  0.00    +0.000 HD
ENDBRANCH  21  23
ENDBRANCH  20  21
ENDBRANCH   5  20
TORSDOF 9
ENDMDL
MODEL 7
REMARK VINA RESULT:      -6.3      2.669      6.052
REMARK  Name = 
REMARK  12 active torsions:
REMARK  status: ('A' for Active; 'I' for Inactive)
REMARK    1  A    between atoms: C_1  and  O_2
REMARK    2  A    between atoms: O_2  and  C_3
REMARK    3  A    between atoms: C_4  and  C_5
REMARK    4  A    between atoms: C_5  and  C_6
REMARK    5  A    between atoms: C_6  and  C_7
REMARK    6  A    between atoms: C_7  and  C_8
REMARK    7  A    between atoms: C_16  and  C_17
REMARK    8  A    between atoms: C_17  and  C_18
REMARK    9  A    between atoms: C_18  and  C_19
REMARK   10  A    between atoms: C_18  and  N_20
REMARK   11  A    between atoms: C_21  and  O_22
REMARK   12  A    between atoms: O_22  and  C_23
REMARK                            x       y       z     vdW  Elec       q    Type
REMARK                         _______ _______ _______ _____ _____    ______ ____
ROOT
ATOM      1  C   UNL     1       4.697   3.584  18.966  0.00  0.00    +0.000 A 
ATOM      2  C   UNL     1       3.388   3.565  18.465  0.00  0.00    +0.000 A 
ATOM      3  C   UNL     1       3.196   3.894  17.120  0.00  0.00    +0.000 A 
ATOM      4  C   UNL     1       4.262   4.303  16.316  0.00  0.00    +0.000 A 
ATOM      5  C   UNL     1       5.550   4.446  16.846  0.00  0.00    +0.000 A 
ATOM      6  C   UNL     1       5.743   4.151  18.206  0.00  0.00    +0.000 A 
ENDROOT
BRANCH   1   8
ATOM      7  C   UNL     1       4.954   1.646  20.223  0.00  0.00    +0.000 C 
ATOM      8  O   UNL     1       4.984   3.078  20.212  0.00  0.00    +0.000 OA
ENDBRANCH   1   8
BRANCH   6   9
ATOM      9  O   UNL     1       6.980   4.374  18.759  0.00  0.00    +0.000 OA
ATOM     10  C   UNL     1       7.091   5.685  19.328  0.00  0.00    +0.000 C 
ENDBRANCH   6   9
BRANCH   2  11
ATOM     11  C   UNL     1       2.195   3.254  19.347  0.00  0.00    +0.000 C 
BRANCH  11  12
ATOM     12  C   UNL     1       1.412   4.527  19.666  0.00  0.00    +0.000 C 
BRANCH  12  13
ATOM     13  C   UNL     1       2.202   5.515  20.522  0.00  0.00    +0.000 C 
BRANCH  13  14
ATOM     14  C   UNL     1       2.110   6.873  19.870  0.00  0.00    +0.000 A 
ATOM     15  C   UNL     1       1.454   7.924  20.525  0.00  0.00    +0.000 A 
ATOM     16  C   UNL     1       1.215   9.127  19.862  0.00  0.00    +0.000 A 
ATOM     17  C   UNL     1       1.632   9.289  18.542  0.00  0.00    +0.000 A 
ATOM     18  C   UNL     1       2.303   8.256  17.889  0.00  0.00    +0.000 A 
ATOM     19  C   UNL     1       2.543   7.052  18.549  0.00  0.00    +0.000 A 
ENDBRANCH  13  14
ENDBRANCH  12  13
ENDBRANCH  11  12
ENDBRANCH   2  11
BRANCH   5  20
ATOM     20  C   UNL     1       6.662   4.897  15.920  0.00  0.00    +0.000 C 
BRANCH  20  21
ATOM     21  C   UNL     1       6.392   4.676  14.416  0.00  0.00    +0.000 C 
ATOM     22  C   UNL     1       7.505   5.219  13.515  0.00  0.00    +0.000 C 
BRANCH  21  23
ATOM     23  N   UNL     1       6.230   3.236  14.149  0.00  0.00    +0.000 NA
ATOM     24  H   UNL     1       6.877   2.950  13.414  0.00  0.00    +0.000 HD
ATOM     25  H   UNL     1       5.298   3.075  13.773  0.00  0.00    +0.000 HD
ENDBRANCH  21  23
ENDBRANCH  20  21
ENDBRANCH   5  20
TORSDOF 9
ENDMDL
MODEL 8
REMARK VINA RESULT:      -6.2      2.609      7.092
REMARK  Name = 
REMARK  12 active torsions:
REMARK  status: ('A' for Active; 'I' for Inactive)
REMARK    1  A    between atoms: C_1  and  O_2
REMARK    2  A    between atoms: O_2  and  C_3
REMARK    3  A    between atoms: C_4  and  C_5
REMARK    4  A    between atoms: C_5  and  C_6
REMARK    5  A    between atoms: C_6  and  C_7
REMARK    6  A    between atoms: C_7  and  C_8
REMARK    7  A    between atoms: C_16  and  C_17
REMARK    8  A    between atoms: C_17  and  C_18
REMARK    9  A    between atoms: C_18  and  C_19
REMARK   10  A    between atoms: C_18  and  N_20
REMARK   11  A    between atoms: C_21  and  O_22
REMARK   12  A    between atoms: O_22  and  C_23
REMARK                            x       y       z     vdW  Elec       q    Type
REMARK                         _______ _______ _______ _____ _____    ______ ____
ROOT
ATOM      1  C   UNL     1       2.911   5.160  19.395  0.00  0.00    +0.000 A 
ATOM      2  C   UNL     1       2.426   6.466  19.544  0.00  0.00    +0.000 A 
ATOM      3  C   UNL     1       2.778   7.411  18.576  0.00  0.00    +0.000 A 
ATOM      4  C   UNL     1       3.647   7.088  17.532  0.00  0.00    +0.000 A 
ATOM      5  C   UNL     1       4.234   5.819  17.451  0.00  0.00    +0.000 A 
ATOM      6  C   UNL     1       3.913   4.876  18.441  0.00  0.00    +0.000 A 
ENDROOT
BRANCH   1   8
ATOM      7  C   UNL     1       1.186   3.638  19.723  0.00  0.00    +0.000 C 
ATOM      8  O   UNL     1       2.445   4.138  20.188  0.00  0.00    +0.000 OA
ENDBRANCH   1   8
BRANCH   6   9
ATOM      9  O   UNL     1       4.552   3.661  18.424  0.00  0.00    +0.000 OA
ATOM     10  C   UNL     1       3.856   2.694  17.627  0.00  0.00    +0.000 C 
ENDBRANCH   6   9
BRANCH   2  11
ATOM     11  C   UNL     1       1.590   6.881  20.739  0.00  0.00    +0.000 C 
BRANCH  11  12
ATOM     12  C   UNL     1       1.332   8.386  20.723  0.00  0.00    +0.000 C 
BRANCH  12  13
ATOM     13  C   UNL     1       1.164   8.978  22.121  0.00  0.00    +0.000 C 
BRANCH  13  14
ATOM     14  C   UNL     1       0.207  10.141  22.023  0.00  0.00    +0.000 A 
ATOM     15  C   UNL     1      -0.632  10.454  23.101  0.00  0.00    +0.000 A 
ATOM     16  C   UNL     1      -1.634  11.414  22.957  0.00  0.00    +0.000 A 
ATOM     17  C   UNL     1      -1.802  12.068  21.739  0.00  0.00    +0.000 A 
ATOM     18  C   UNL     1      -0.958  11.778  20.667  0.00  0.00    +0.000 A 
ATOM     19  C   UNL     1       0.044  10.819  20.807  0.00  0.00    +0.000 A 
ENDBRANCH  13  14
ENDBRANCH  12  13
ENDBRANCH  11  12
ENDBRANCH   2  11
BRANCH   5  20
ATOM     20  C   UNL     1       5.171   5.534  16.293  0.00  0.00    +0.000 C 
BRANCH  20  21
ATOM     21  C   UNL     1       6.675   5.611  16.633  0.00  0.00    +0.000 C 
ATOM     22  C   UNL     1       7.010   6.701  17.655  0.00  0.00    +0.000 C 
BRANCH  21  23
ATOM     23  N   UNL     1       7.129   4.313  17.164  0.00  0.00    +0.000 NA
ATOM     24  H   UNL     1       7.798   4.467  17.917  0.00  0.00    +0.000 HD
ATOM     25  H   UNL     1       7.642   3.821  16.435  0.00  0.00    +0.000 HD
ENDBRANCH  21  23
ENDBRANCH  20  21
ENDBRANCH   5  20
TORSDOF 9
ENDMDL
MODEL 9
REMARK VINA RESULT:      -6.2      2.980      7.294
REMARK  Name = 
REMARK  12 active torsions:
REMARK  status: ('A' for Active; 'I' for Inactive)
REMARK    1  A    between atoms: C_1  and  O_2
REMARK    2  A    between atoms: O_2  and  C_3
REMARK    3  A    between atoms: C_4  and  C_5
REMARK    4  A    between atoms: C_5  and  C_6
REMARK    5  A    between atoms: C_6  and  C_7
REMARK    6  A    between atoms: C_7  and  C_8
REMARK    7  A    between atoms: C_16  and  C_17
REMARK    8  A    between atoms: C_17  and  C_18
REMARK    9  A    between atoms: C_18  and  C_19
REMARK   10  A    between atoms: C_18  and  N_20
REMARK   11  A    between atoms: C_21  and  O_22
REMARK   12  A    between atoms: O_22  and  C_23
REMARK                            x       y       z     vdW  Elec       q    Type
REMARK                         _______ _______ _______ _____ _____    ______ ____
ROOT
ATOM      1  C   UNL     1       2.602   5.625  18.765  0.00  0.00    +0.000 A 
ATOM      2  C   UNL     1       2.638   7.023  18.690  0.00  0.00    +0.000 A 
ATOM      3  C   UNL     1       3.497   7.608  17.754  0.00  0.00    +0.000 A 
ATOM      4  C   UNL     1       4.349   6.829  16.970  0.00  0.00    +0.000 A 
ATOM      5  C   UNL     1       4.408   5.439  17.132  0.00  0.00    +0.000 A 
ATOM      6  C   UNL     1       3.574   4.849  18.096  0.00  0.00    +0.000 A 
ENDROOT
BRANCH   1   8
ATOM      7  C   UNL     1       2.009   4.904  20.894  0.00  0.00    +0.000 C 
ATOM      8  O   UNL     1       1.642   4.981  19.511  0.00  0.00    +0.000 OA
ENDBRANCH   1   8
BRANCH   6   9
ATOM      9  O   UNL     1       3.687   3.501  18.327  0.00  0.00    +0.000 OA
ATOM     10  C   UNL     1       4.645   3.206  19.352  0.00  0.00    +0.000 C 
ENDBRANCH   6   9
BRANCH   2  11
ATOM     11  C   UNL     1       1.823   7.899  19.621  0.00  0.00    +0.000 C 
BRANCH  11  12
ATOM     12  C   UNL     1       1.334   9.152  18.897  0.00  0.00    +0.000 C 
BRANCH  12  13
ATOM     13  C   UNL     1       0.406  10.012  19.752  0.00  0.00    +0.000 C 
BRANCH  13  14
ATOM     14  C   UNL     1      -0.738  10.471  18.880  0.00  0.00    +0.000 A 
ATOM     15  C   UNL     1      -1.653  11.416  19.363  0.00  0.00    +0.000 A 
ATOM     16  C   UNL     1      -2.804  11.717  18.635  0.00  0.00    +0.000 A 
ATOM     17  C   UNL     1      -3.046  11.078  17.420  0.00  0.00    +0.000 A 
ATOM     18  C   UNL     1      -2.131  10.152  16.923  0.00  0.00    +0.000 A 
ATOM     19  C   UNL     1      -0.979   9.848  17.648  0.00  0.00    +0.000 A 
ENDBRANCH  13  14
ENDBRANCH  12  13
ENDBRANCH  11  12
ENDBRANCH   2  11
BRANCH   5  20
ATOM     20  C   UNL     1       5.357   4.652  16.250  0.00  0.00    +0.000 C 
BRANCH  20  21
ATOM     21  C   UNL     1       6.826   5.128  16.279  0.00  0.00    +0.000 C 
ATOM     22  C   UNL     1       7.625   4.552  17.450  0.00  0.00    +0.000 C 
BRANCH  21  23
ATOM     23  N   UNL     1       7.493   4.749  15.021  0.00  0.00    +0.000 NA
ATOM     24  H   UNL     1       7.818   5.587  14.540  0.00  0.00    +0.000 HD
ATOM     25  H   UNL     1       6.807   4.323  14.401  0.00  0.00    +0.000 HD
ENDBRANCH  21  23
ENDBRANCH  20  21
ENDBRANCH   5  20
TORSDOF 9
ENDMDL
