MODEL 1
REMARK VINA RESULT:      -7.9      0.000      0.000
REMARK  Name = 
REMARK  8 active torsions:
REMARK  status: ('A' for Active; 'I' for Inactive)
REMARK    1  A    between atoms: C_1  and  C_2
REMARK    2  A    between atoms: C_2  and  C_3
REMARK    3  A    between atoms: C_2  and  S_4
REMARK    4  A    between atoms: S_4  and  C_5
REMARK    5  A    between atoms: C_8  and  C_9
REMARK    6  A    between atoms: C_9  and  C_10
REMARK    7  A    between atoms: N_13  and  C_14
REMARK    8  A    between atoms: C_18  and  C_20
REMARK                            x       y       z     vdW  Elec       q    Type
REMARK                         _______ _______ _______ _____ _____    ______ ____
ROOT
ATOM      1  C   UNL     1       1.100   9.793  18.248  0.00  0.00    +0.000 C 
ATOM      2  C   UNL     1       1.872  11.111  18.234  0.00  0.00    +0.000 C 
ATOM      3  C   UNL     1       1.467  12.059  19.365  0.00  0.00    +0.000 C 
ATOM      4  N   UNL     1       0.040  12.344  19.442  0.00  0.00    +0.000 NA
ATOM      5  C   UNL     1      -0.810  11.149  19.355  0.00  0.00    +0.000 C 
ATOM      6  C   UNL     1      -0.401  10.126  18.286  0.00  0.00    +0.000 C 
ENDROOT
BRANCH   4   7
ATOM      7  C   UNL     1      -0.390  13.249  20.550  0.00  0.00    +0.000 C 
ATOM      8  C   UNL     1      -0.361  12.642  21.969  0.00  0.00    +0.000 C 
ATOM      9  C   UNL     1      -1.618  11.874  22.365  0.00  0.00    +0.000 C 
ATOM     10  N   UNL     1      -2.839  12.635  22.117  0.00  0.00    +0.000 N 
ATOM     11  C   UNL     1      -3.902  12.477  23.022  0.00  0.00    +0.000 C 
ATOM     12  O   UNL     1      -3.766  11.911  24.104  0.00  0.00    +0.000 OA
ATOM     13  C   UNL     1      -2.967  13.233  20.792  0.00  0.00    +0.000 C 
ATOM     14  C   UNL     1      -1.722  14.001  20.368  0.00  0.00    +0.000 C 
BRANCH  11  15
ATOM     15  C   UNL     1      -5.249  13.043  22.725  0.00  0.00    +0.000 A 
ATOM     16  C   UNL     1      -5.532  14.329  23.162  0.00  0.00    +0.000 A 
ATOM     17  N   UNL     1      -6.706  14.957  22.872  0.00  0.00    +0.000 NA
ATOM     18  C   UNL     1      -7.578  14.231  22.136  0.00  0.00    +0.000 A 
ATOM     19  C   UNL     1      -7.308  12.931  21.727  0.00  0.00    +0.000 A 
ATOM     20  N   UNL     1      -6.150  12.304  22.020  0.00  0.00    +0.000 NA
ENDBRANCH  11  15
ENDBRANCH   4   7
BRANCH   1  21
ATOM     21  C   UNL     1       1.537   8.821  19.376  0.00  0.00    +0.000 C 
BRANCH  21  25
ATOM     22  C   UNL     1       3.764   5.314  18.049  0.00  0.00    +0.000 A 
ATOM     23  C   UNL     1       2.972   5.260  19.197  0.00  0.00    +0.000 A 
ATOM     24  C   UNL     1       2.287   6.403  19.645  0.00  0.00    +0.000 A 
ATOM     25  C   UNL     1       2.380   7.622  18.957  0.00  0.00    +0.000 A 
ATOM     26  C   UNL     1       3.204   7.672  17.821  0.00  0.00    +0.000 A 
ATOM     27  C   UNL     1       3.894   6.530  17.377  0.00  0.00    +0.000 A 
BRANCH  22  28
ATOM     28  S   UNL     1       4.644   3.886  17.427  0.00  0.00    +0.000 S 
BRANCH  28  30
ATOM     29  C   UNL     1       7.347   4.578  17.193  0.00  0.00    +0.000 C 
ATOM     30  C   UNL     1       6.012   4.655  16.458  0.00  0.00    +0.000 C 
ATOM     31  C   UNL     1       6.120   3.933  15.112  0.00  0.00    +0.000 C 
ENDBRANCH  28  30
ENDBRANCH  22  28
ENDBRANCH  21  25
ENDBRANCH   1  21
TORSDOF 6
ENDMDL
MODEL 2
REMARK VINA RESULT:      -7.5      0.783      1.069
REMARK  Name = 
REMARK  8 active torsions:
REMARK  status: ('A' for Active; 'I' for Inactive)
REMARK    1  A    between atoms: C_1  and  C_2
REMARK    2  A    between atoms: C_2  and  C_3
REMARK    3  A    between atoms: C_2  and  S_4
REMARK    4  A    between atoms: S_4  and  C_5
REMARK    5  A    between atoms: C_8  and  C_9
REMARK    6  A    between atoms: C_9  and  C_10
REMARK    7  A    between atoms: N_13  and  C_14
REMARK    8  A    between atoms: C_18  and  C_20
REMARK                            x       y       z     vdW  Elec       q    Type
REMARK                         _______ _______ _______ _____ _____    ______ ____
ROOT
ATOM      1  C   UNL     1       1.163   9.620  17.992  0.00  0.00    +0.000 C 
ATOM      2  C   UNL     1       1.920  10.945  17.930  0.00  0.00    +0.000 C 
ATOM      3  C   UNL     1       1.623  11.865  19.117  0.00  0.00    +0.000 C 
ATOM      4  N   UNL     1       0.208  12.134  19.342  0.00  0.00    +0.000 NA
ATOM      5  C   UNL     1      -0.637  10.933  19.314  0.00  0.00    +0.000 C 
ATOM      6  C   UNL     1      -0.329   9.937  18.187  0.00  0.00    +0.000 C 
ENDROOT
BRANCH   4   7
ATOM      7  C   UNL     1      -0.116  13.012  20.506  0.00  0.00    +0.000 C 
ATOM      8  C   UNL     1      -0.222  12.307  21.875  0.00  0.00    +0.000 C 
ATOM      9  C   UNL     1      -1.591  11.711  22.187  0.00  0.00    +0.000 C 
ATOM     10  N   UNL     1      -2.678  12.664  21.972  0.00  0.00    +0.000 N 
ATOM     11  C   UNL     1      -3.780  12.604  22.841  0.00  0.00    +0.000 C 
ATOM     12  O   UNL     1      -3.763  11.947  23.879  0.00  0.00    +0.000 OA
ATOM     13  C   UNL     1      -2.673  13.369  20.695  0.00  0.00    +0.000 C 
ATOM     14  C   UNL     1      -1.315  13.968  20.355  0.00  0.00    +0.000 C 
BRANCH  11  15
ATOM     15  C   UNL     1      -5.017  13.387  22.561  0.00  0.00    +0.000 A 
ATOM     16  C   UNL     1      -6.046  12.764  21.869  0.00  0.00    +0.000 A 
ATOM     17  N   UNL     1      -7.242  13.374  21.634  0.00  0.00    +0.000 NA
ATOM     18  C   UNL     1      -7.347  14.633  22.116  0.00  0.00    +0.000 A 
ATOM     19  C   UNL     1      -6.305  15.269  22.779  0.00  0.00    +0.000 A 
ATOM     20  N   UNL     1      -5.118  14.670  23.006  0.00  0.00    +0.000 NA
ENDBRANCH  11  15
ENDBRANCH   4   7
BRANCH   1  21
ATOM     21  C   UNL     1       1.718   8.629  19.050  0.00  0.00    +0.000 C 
BRANCH  21  25
ATOM     22  C   UNL     1       3.926   5.269  17.360  0.00  0.00    +0.000 A 
ATOM     23  C   UNL     1       2.841   5.050  18.212  0.00  0.00    +0.000 A 
ATOM     24  C   UNL     1       2.157   6.135  18.787  0.00  0.00    +0.000 A 
ATOM     25  C   UNL     1       2.541   7.458  18.524  0.00  0.00    +0.000 A 
ATOM     26  C   UNL     1       3.651   7.665  17.690  0.00  0.00    +0.000 A 
ATOM     27  C   UNL     1       4.340   6.579  17.121  0.00  0.00    +0.000 A 
BRANCH  22  28
ATOM     28  S   UNL     1       4.822   3.925  16.590  0.00  0.00    +0.000 S 
BRANCH  28  30
ATOM     29  C   UNL     1       7.256   4.892  15.601  0.00  0.00    +0.000 C 
ATOM     30  C   UNL     1       5.771   4.790  15.266  0.00  0.00    +0.000 C 
ATOM     31  C   UNL     1       5.587   4.021  13.955  0.00  0.00    +0.000 C 
ENDBRANCH  28  30
ENDBRANCH  22  28
ENDBRANCH  21  25
ENDBRANCH   1  21
TORSDOF 6
ENDMDL
MODEL 3
REMARK VINA RESULT:      -7.4      4.030      7.097
REMARK  Name = 
REMARK  8 active torsions:
REMARK  status: ('A' for Active; 'I' for Inactive)
REMARK    1  A    between atoms: C_1  and  C_2
REMARK    2  A    between atoms: C_2  and  C_3
REMARK    3  A    between atoms: C_2  and  S_4
REMARK    4  A    between atoms: S_4  and  C_5
REMARK    5  A    between atoms: C_8  and  C_9
REMARK    6  A    between atoms: C_9  and  C_10
REMARK    7  A    between atoms: N_13  and  C_14
REMARK    8  A    between atoms: C_18  and  C_20
REMARK                            x       y       z     vdW  Elec       q    Type
REMARK                         _______ _______ _______ _____ _____    ______ ____
ROOT
ATOM      1  C   UNL     1      -0.360  10.403  19.741  0.00  0.00    +0.000 C 
ATOM      2  C   UNL     1      -1.145  11.453  18.958  0.00  0.00    +0.000 C 
ATOM      3  C   UNL     1      -0.686  12.886  19.242  0.00  0.00    +0.000 C 
ATOM      4  N   UNL     1      -0.672  13.254  20.652  0.00  0.00    +0.000 NA
ATOM      5  C   UNL     1      -0.031  12.257  21.520  0.00  0.00    +0.000 C 
ATOM      6  C   UNL     1      -0.398  10.796  21.227  0.00  0.00    +0.000 C 
ENDROOT
BRANCH   4   7
ATOM      7  C   UNL     1      -0.208  14.640  20.963  0.00  0.00    +0.000 C 
ATOM      8  C   UNL     1      -0.519  15.711  19.897  0.00  0.00    +0.000 C 
ATOM      9  C   UNL     1       0.512  15.823  18.778  0.00  0.00    +0.000 C 
ATOM     10  N   UNL     1       1.878  15.930  19.285  0.00  0.00    +0.000 N 
ATOM     11  C   UNL     1       2.778  16.739  18.571  0.00  0.00    +0.000 C 
ATOM     12  O   UNL     1       2.409  17.512  17.690  0.00  0.00    +0.000 OA
ATOM     13  C   UNL     1       2.271  14.945  20.286  0.00  0.00    +0.000 C 
ATOM     14  C   UNL     1       1.256  14.808  21.413  0.00  0.00    +0.000 C 
BRANCH  11  15
ATOM     15  C   UNL     1       4.233  16.730  18.892  0.00  0.00    +0.000 A 
ATOM     16  C   UNL     1       5.042  15.805  18.247  0.00  0.00    +0.000 A 
ATOM     17  N   UNL     1       6.394  15.772  18.418  0.00  0.00    +0.000 NA
ATOM     18  C   UNL     1       6.886  16.700  19.270  0.00  0.00    +0.000 A 
ATOM     19  C   UNL     1       6.073  17.604  19.941  0.00  0.00    +0.000 A 
ATOM     20  N   UNL     1       4.734  17.633  19.780  0.00  0.00    +0.000 NA
ENDBRANCH  11  15
ENDBRANCH   4   7
BRANCH   1  21
ATOM     21  C   UNL     1       1.080  10.172  19.210  0.00  0.00    +0.000 C 
BRANCH  21  25
ATOM     22  C   UNL     1       2.410   6.022  19.404  0.00  0.00    +0.000 A 
ATOM     23  C   UNL     1       1.878   6.652  20.532  0.00  0.00    +0.000 A 
ATOM     24  C   UNL     1       1.487   8.001  20.477  0.00  0.00    +0.000 A 
ATOM     25  C   UNL     1       1.621   8.748  19.297  0.00  0.00    +0.000 A 
ATOM     26  C   UNL     1       2.184   8.113  18.179  0.00  0.00    +0.000 A 
ATOM     27  C   UNL     1       2.581   6.766  18.236  0.00  0.00    +0.000 A 
BRANCH  22  28
ATOM     28  S   UNL     1       2.907   4.304  19.416  0.00  0.00    +0.000 S 
BRANCH  28  30
ATOM     29  C   UNL     1       1.090   2.260  18.817  0.00  0.00    +0.000 C 
ATOM     30  C   UNL     1       1.318   3.435  19.764  0.00  0.00    +0.000 C 
ATOM     31  C   UNL     1       1.343   2.935  21.211  0.00  0.00    +0.000 C 
ENDBRANCH  28  30
ENDBRANCH  22  28
ENDBRANCH  21  25
ENDBRANCH   1  21
TORSDOF 6
ENDMDL
MODEL 4
REMARK VINA RESULT:      -7.4      3.938      6.730
REMARK  Name = 
REMARK  8 active torsions:
REMARK  status: ('A' for Active; 'I' for Inactive)
REMARK    1  A    between atoms: C_1  and  C_2
REMARK    2  A    between atoms: C_2  and  C_3
REMARK    3  A    between atoms: C_2  and  S_4
REMARK    4  A    between atoms: S_4  and  C_5
REMARK    5  A    between atoms: C_8  and  C_9
REMARK    6  A    between atoms: C_9  and  C_10
REMARK    7  A    between atoms: N_13  and  C_14
REMARK    8  A    between atoms: C_18  and  C_20
REMARK                            x       y       z     vdW  Elec       q    Type
REMARK                         _______ _______ _______ _____ _____    ______ ____
ROOT
ATOM      1  C   UNL     1       0.428   9.431  18.994  0.00  0.00    +0.000 C 
ATOM      2  C   UNL     1      -0.623  10.437  18.530  0.00  0.00    +0.000 C 
ATOM      3  C   UNL     1      -0.282  11.882  18.903  0.00  0.00    +0.000 C 
ATOM      4  N   UNL     1      -0.006  12.099  20.317  0.00  0.00    +0.000 NA
ATOM      5  C   UNL     1       0.917  11.116  20.900  0.00  0.00    +0.000 C 
ATOM      6  C   UNL     1       0.666   9.657  20.497  0.00  0.00    +0.000 C 
ENDROOT
BRANCH   4   7
ATOM      7  C   UNL     1       0.351  13.495  20.710  0.00  0.00    +0.000 C 
ATOM      8  C   UNL     1      -0.141  14.610  19.762  0.00  0.00    +0.000 C 
ATOM      9  C   UNL     1       0.783  14.907  18.585  0.00  0.00    +0.000 C 
ATOM     10  N   UNL     1       2.169  15.109  18.999  0.00  0.00    +0.000 N 
ATOM     11  C   UNL     1       2.931  16.055  18.293  0.00  0.00    +0.000 C 
ATOM     12  O   UNL     1       2.423  16.853  17.509  0.00  0.00    +0.000 OA
ATOM     13  C   UNL     1       2.730  14.093  19.883  0.00  0.00    +0.000 C 
ATOM     14  C   UNL     1       1.825  13.771  21.065  0.00  0.00    +0.000 C 
BRANCH  11  15
ATOM     15  C   UNL     1       4.402  16.164  18.506  0.00  0.00    +0.000 A 
ATOM     16  C   UNL     1       5.222  15.205  17.929  0.00  0.00    +0.000 A 
ATOM     17  N   UNL     1       6.581  15.265  18.005  0.00  0.00    +0.000 NA
ATOM     18  C   UNL     1       7.070  16.322  18.692  0.00  0.00    +0.000 A 
ATOM     19  C   UNL     1       6.248  17.264  19.298  0.00  0.00    +0.000 A 
ATOM     20  N   UNL     1       4.903  17.202  19.231  0.00  0.00    +0.000 NA
ENDBRANCH  11  15
ENDBRANCH   4   7
BRANCH   1  21
ATOM     21  C   UNL     1       1.736   9.461  18.159  0.00  0.00    +0.000 C 
BRANCH  21  25
ATOM     22  C   UNL     1       3.774   5.651  17.562  0.00  0.00    +0.000 A 
ATOM     23  C   UNL     1       2.555   5.706  18.241  0.00  0.00    +0.000 A 
ATOM     24  C   UNL     1       1.920   6.940  18.467  0.00  0.00    +0.000 A 
ATOM     25  C   UNL     1       2.490   8.142  18.022  0.00  0.00    +0.000 A 
ATOM     26  C   UNL     1       3.729   8.077  17.366  0.00  0.00    +0.000 A 
ATOM     27  C   UNL     1       4.367   6.843  17.146  0.00  0.00    +0.000 A 
BRANCH  22  28
ATOM     28  S   UNL     1       4.615   4.107  17.234  0.00  0.00    +0.000 S 
BRANCH  28  30
ATOM     29  C   UNL     1       7.385   4.500  17.115  0.00  0.00    +0.000 C 
ATOM     30  C   UNL     1       6.105   4.660  16.298  0.00  0.00    +0.000 C 
ATOM     31  C   UNL     1       6.206   3.835  15.012  0.00  0.00    +0.000 C 
ENDBRANCH  28  30
ENDBRANCH  22  28
ENDBRANCH  21  25
ENDBRANCH   1  21
TORSDOF 6
ENDMDL
MODEL 5
REMARK VINA RESULT:      -7.4      0.794      1.260
REMARK  Name = 
REMARK  8 active torsions:
REMARK  status: ('A' for Active; 'I' for Inactive)
REMARK    1  A    between atoms: C_1  and  C_2
REMARK    2  A    between atoms: C_2  and  C_3
REMARK    3  A    between atoms: C_2  and  S_4
REMARK    4  A    between atoms: S_4  and  C_5
REMARK    5  A    between atoms: C_8  and  C_9
REMARK    6  A    between atoms: C_9  and  C_10
REMARK    7  A    between atoms: N_13  and  C_14
REMARK    8  A    between atoms: C_18  and  C_20
REMARK                            x       y       z     vdW  Elec       q    Type
REMARK                         _______ _______ _______ _____ _____    ______ ____
ROOT
ATOM      1  C   UNL     1       0.928   9.856  18.267  0.00  0.00    +0.000 C 
ATOM      2  C   UNL     1       1.746  11.145  18.299  0.00  0.00    +0.000 C 
ATOM      3  C   UNL     1       1.380  12.064  19.467  0.00  0.00    +0.000 C 
ATOM      4  N   UNL     1      -0.036  12.395  19.562  0.00  0.00    +0.000 NA
ATOM      5  C   UNL     1      -0.928  11.235  19.435  0.00  0.00    +0.000 C 
ATOM      6  C   UNL     1      -0.559  10.239  18.326  0.00  0.00    +0.000 C 
ENDROOT
BRANCH   4   7
ATOM      7  C   UNL     1      -0.430  13.273  20.704  0.00  0.00    +0.000 C 
ATOM      8  C   UNL     1      -0.513  12.588  22.085  0.00  0.00    +0.000 C 
ATOM      9  C   UNL     1      -1.848  11.916  22.390  0.00  0.00    +0.000 C 
ATOM     10  N   UNL     1      -2.987  12.798  22.143  0.00  0.00    +0.000 N 
ATOM     11  C   UNL     1      -4.096  12.688  22.998  0.00  0.00    +0.000 C 
ATOM     12  O   UNL     1      -4.055  12.052  24.048  0.00  0.00    +0.000 OA
ATOM     13  C   UNL     1      -3.006  13.478  20.852  0.00  0.00    +0.000 C 
ATOM     14  C   UNL     1      -1.681  14.152  20.519  0.00  0.00    +0.000 C 
BRANCH  11  15
ATOM     15  C   UNL     1      -5.374  13.389  22.686  0.00  0.00    +0.000 A 
ATOM     16  C   UNL     1      -6.344  12.700  21.973  0.00  0.00    +0.000 A 
ATOM     17  N   UNL     1      -7.571  13.231  21.708  0.00  0.00    +0.000 NA
ATOM     18  C   UNL     1      -7.768  14.482  22.182  0.00  0.00    +0.000 A 
ATOM     19  C   UNL     1      -6.785  15.185  22.867  0.00  0.00    +0.000 A 
ATOM     20  N   UNL     1      -5.567  14.664  23.123  0.00  0.00    +0.000 NA
ENDBRANCH  11  15
ENDBRANCH   4   7
BRANCH   1  21
ATOM     21  C   UNL     1       1.336   8.827  19.356  0.00  0.00    +0.000 C 
BRANCH  21  25
ATOM     22  C   UNL     1       3.960   5.607  18.030  0.00  0.00    +0.000 A 
ATOM     23  C   UNL     1       3.205   5.473  19.197  0.00  0.00    +0.000 A 
ATOM     24  C   UNL     1       2.391   6.528  19.643  0.00  0.00    +0.000 A 
ATOM     25  C   UNL     1       2.315   7.737  18.936  0.00  0.00    +0.000 A 
ATOM     26  C   UNL     1       3.101   7.870  17.780  0.00  0.00    +0.000 A 
ATOM     27  C   UNL     1       3.921   6.818  17.338  0.00  0.00    +0.000 A 
BRANCH  22  28
ATOM     28  S   UNL     1       5.000   4.290  17.409  0.00  0.00    +0.000 S 
BRANCH  28  30
ATOM     29  C   UNL     1       7.177   5.946  16.812  0.00  0.00    +0.000 C 
ATOM     30  C   UNL     1       6.693   4.900  17.813  0.00  0.00    +0.000 C 
ATOM     31  C   UNL     1       6.670   5.503  19.220  0.00  0.00    +0.000 C 
ENDBRANCH  28  30
ENDBRANCH  22  28
ENDBRANCH  21  25
ENDBRANCH   1  21
TORSDOF 6
ENDMDL
MODEL 6
REMARK VINA RESULT:      -7.3      3.595      5.923
REMARK  Name = 
REMARK  8 active torsions:
REMARK  status: ('A' for Active; 'I' for Inactive)
REMARK    1  A    between atoms: C_1  and  C_2
REMARK    2  A    between atoms: C_2  and  C_3
REMARK    3  A    between atoms: C_2  and  S_4
REMARK    4  A    between atoms: S_4  and  C_5
REMARK    5  A    between atoms: C_8  and  C_9
REMARK    6  A    between atoms: C_9  and  C_10
REMARK    7  A    between atoms: N_13  and  C_14
REMARK    8  A    between atoms: C_18  and  C_20
REMARK                            x       y       z     vdW  Elec       q    Type
REMARK                         _______ _______ _______ _____ _____    ______ ____
ROOT
ATOM      1  C   UNL     1       1.155   2.776  18.782  0.00  0.00    +0.000 C 
ATOM      2  C   UNL     1       1.050   3.870  17.722  0.00  0.00    +0.000 C 
ATOM      3  C   UNL     1       1.851   5.127  18.071  0.00  0.00    +0.000 C 
ATOM      4  N   UNL     1       1.553   5.698  19.378  0.00  0.00    +0.000 NA
ATOM      5  C   UNL     1       1.521   4.711  20.465  0.00  0.00    +0.000 C 
ATOM      6  C   UNL     1       0.794   3.398  20.141  0.00  0.00    +0.000 C 
ENDROOT
BRANCH   4   7
ATOM      7  C   UNL     1       2.335   6.913  19.757  0.00  0.00    +0.000 C 
ATOM      8  C   UNL     1       2.170   7.395  21.214  0.00  0.00    +0.000 C 
ATOM      9  C   UNL     1       0.980   8.318  21.456  0.00  0.00    +0.000 C 
ATOM     10  N   UNL     1       0.928   9.423  20.501  0.00  0.00    +0.000 N 
ATOM     11  C   UNL     1       0.458  10.664  20.964  0.00  0.00    +0.000 C 
ATOM     12  O   UNL     1       0.306  10.905  22.159  0.00  0.00    +0.000 OA
ATOM     13  C   UNL     1       1.056   9.064  19.093  0.00  0.00    +0.000 C 
ATOM     14  C   UNL     1       2.233   8.135  18.825  0.00  0.00    +0.000 C 
BRANCH  11  15
ATOM     15  C   UNL     1       0.169  11.774  20.013  0.00  0.00    +0.000 A 
ATOM     16  C   UNL     1       1.175  12.692  19.748  0.00  0.00    +0.000 A 
ATOM     17  N   UNL     1       1.029  13.694  18.836  0.00  0.00    +0.000 NA
ATOM     18  C   UNL     1      -0.172  13.734  18.217  0.00  0.00    +0.000 A 
ATOM     19  C   UNL     1      -1.192  12.836  18.506  0.00  0.00    +0.000 A 
ATOM     20  N   UNL     1      -1.052  11.849  19.414  0.00  0.00    +0.000 NA
ENDBRANCH  11  15
ENDBRANCH   4   7
BRANCH   1  21
ATOM     21  C   UNL     1       2.523   2.042  18.792  0.00  0.00    +0.000 C 
BRANCH  21  25
ATOM     22  C   UNL     1       5.818   4.481  17.303  0.00  0.00    +0.000 A 
ATOM     23  C   UNL     1       5.023   3.746  16.421  0.00  0.00    +0.000 A 
ATOM     24  C   UNL     1       3.987   2.929  16.907  0.00  0.00    +0.000 A 
ATOM     25  C   UNL     1       3.725   2.829  18.282  0.00  0.00    +0.000 A 
ATOM     26  C   UNL     1       4.550   3.549  19.160  0.00  0.00    +0.000 A 
ATOM     27  C   UNL     1       5.590   4.360  18.674  0.00  0.00    +0.000 A 
BRANCH  22  28
ATOM     28  S   UNL     1       7.138   5.547  16.736  0.00  0.00    +0.000 S 
BRANCH  28  30
ATOM     29  C   UNL     1       8.240   6.253  19.211  0.00  0.00    +0.000 C 
ATOM     30  C   UNL     1       7.294   6.753  18.123  0.00  0.00    +0.000 C 
ATOM     31  C   UNL     1       7.811   8.079  17.557  0.00  0.00    +0.000 C 
ENDBRANCH  28  30
ENDBRANCH  22  28
ENDBRANCH  21  25
ENDBRANCH   1  21
TORSDOF 6
ENDMDL
MODEL 7
REMARK VINA RESULT:      -7.3      5.092     11.995
REMARK  Name = 
REMARK  8 active torsions:
REMARK  status: ('A' for Active; 'I' for Inactive)
REMARK    1  A    between atoms: C_1  and  C_2
REMARK    2  A    between atoms: C_2  and  C_3
REMARK    3  A    between atoms: C_2  and  S_4
REMARK    4  A    between atoms: S_4  and  C_5
REMARK    5  A    between atoms: C_8  and  C_9
REMARK    6  A    between atoms: C_9  and  C_10
REMARK    7  A    between atoms: N_13  and  C_14
REMARK    8  A    between atoms: C_18  and  C_20
REMARK                            x       y       z     vdW  Elec       q    Type
REMARK                         _______ _______ _______ _____ _____    ______ ____
ROOT
ATOM      1  C   UNL     1       0.690  10.547  21.153  0.00  0.00    +0.000 C 
ATOM      2  C   UNL     1       1.396  10.535  19.800  0.00  0.00    +0.000 C 
ATOM      3  C   UNL     1       1.352   9.170  19.108  0.00  0.00    +0.000 C 
ATOM      4  N   UNL     1       1.846   8.061  19.914  0.00  0.00    +0.000 NA
ATOM      5  C   UNL     1       1.311   8.036  21.282  0.00  0.00    +0.000 C 
ATOM      6  C   UNL     1       1.262   9.395  21.995  0.00  0.00    +0.000 C 
ENDROOT
BRANCH   4   7
ATOM      7  C   UNL     1       1.795   6.711  19.275  0.00  0.00    +0.000 C 
ATOM      8  C   UNL     1       2.484   5.570  20.053  0.00  0.00    +0.000 C 
ATOM      9  C   UNL     1       3.980   5.426  19.795  0.00  0.00    +0.000 C 
ATOM     10  N   UNL     1       4.300   5.392  18.370  0.00  0.00    +0.000 N 
ATOM     11  C   UNL     1       5.364   4.572  17.958  0.00  0.00    +0.000 C 
ATOM     12  O   UNL     1       5.875   3.737  18.701  0.00  0.00    +0.000 OA
ATOM     13  C   UNL     1       3.709   6.447  17.553  0.00  0.00    +0.000 C 
ATOM     14  C   UNL     1       2.215   6.616  17.796  0.00  0.00    +0.000 C 
BRANCH  11  15
ATOM     15  C   UNL     1       5.892   4.646  16.567  0.00  0.00    +0.000 A 
ATOM     16  C   UNL     1       6.985   5.464  16.322  0.00  0.00    +0.000 A 
ATOM     17  N   UNL     1       7.584   5.537  15.100  0.00  0.00    +0.000 NA
ATOM     18  C   UNL     1       7.027   4.762  14.142  0.00  0.00    +0.000 A 
ATOM     19  C   UNL     1       5.912   3.969  14.378  0.00  0.00    +0.000 A 
ATOM     20  N   UNL     1       5.313   3.901  15.585  0.00  0.00    +0.000 NA
ENDBRANCH  11  15
ENDBRANCH   4   7
BRANCH   1  21
ATOM     21  C   UNL     1      -0.859  10.518  21.053  0.00  0.00    +0.000 C 
BRANCH  21  25
ATOM     22  C   UNL     1      -3.196  13.838  22.646  0.00  0.00    +0.000 A 
ATOM     23  C   UNL     1      -2.860  13.792  21.291  0.00  0.00    +0.000 A 
ATOM     24  C   UNL     1      -2.072  12.741  20.789  0.00  0.00    +0.000 A 
ATOM     25  C   UNL     1      -1.604  11.718  21.627  0.00  0.00    +0.000 A 
ATOM     26  C   UNL     1      -1.924  11.792  22.992  0.00  0.00    +0.000 A 
ATOM     27  C   UNL     1      -2.705  12.847  23.496  0.00  0.00    +0.000 A 
BRANCH  22  28
ATOM     28  S   UNL     1      -4.207  15.144  23.334  0.00  0.00    +0.000 S 
BRANCH  28  30
ATOM     29  C   UNL     1      -6.354  13.507  22.595  0.00  0.00    +0.000 C 
ATOM     30  C   UNL     1      -5.803  14.921  22.437  0.00  0.00    +0.000 C 
ATOM     31  C   UNL     1      -6.814  15.934  22.983  0.00  0.00    +0.000 C 
ENDBRANCH  28  30
ENDBRANCH  22  28
ENDBRANCH  21  25
ENDBRANCH   1  21
TORSDOF 6
ENDMDL
MODEL 8
REMARK VINA RESULT:      -7.3      4.163      7.039
REMARK  Name = 
REMARK  8 active torsions:
REMARK  status: ('A' for Active; 'I' for Inactive)
REMARK    1  A    between atoms: C_1  and  C_2
REMARK    2  A    between atoms: C_2  and  C_3
REMARK    3  A    between atoms: C_2  and  S_4
REMARK    4  A    between atoms: S_4  and  C_5
REMARK    5  A    between atoms: C_8  and  C_9
REMARK    6  A    between atoms: C_9  and  C_10
REMARK    7  A    between atoms: N_13  and  C_14
REMARK    8  A    between atoms: C_18  and  C_20
REMARK                            x       y       z     vdW  Elec       q    Type
REMARK                         _______ _______ _______ _____ _____    ______ ____
ROOT
ATOM      1  C   UNL     1       0.493   9.409  18.890  0.00  0.00    +0.000 C 
ATOM      2  C   UNL     1      -0.482  10.477  18.399  0.00  0.00    +0.000 C 
ATOM      3  C   UNL     1      -0.082  11.895  18.812  0.00  0.00    +0.000 C 
ATOM      4  N   UNL     1       0.142  12.075  20.240  0.00  0.00    +0.000 NA
ATOM      5  C   UNL     1       0.985  11.035  20.845  0.00  0.00    +0.000 C 
ATOM      6  C   UNL     1       0.675   9.598  20.405  0.00  0.00    +0.000 C 
ENDROOT
BRANCH   4   7
ATOM      7  C   UNL     1       0.555  13.444  20.673  0.00  0.00    +0.000 C 
ATOM      8  C   UNL     1       0.050  14.610  19.797  0.00  0.00    +0.000 C 
ATOM      9  C   UNL     1       0.924  14.935  18.590  0.00  0.00    +0.000 C 
ATOM     10  N   UNL     1       2.333  15.084  18.945  0.00  0.00    +0.000 N 
ATOM     11  C   UNL     1       3.086  16.040  18.243  0.00  0.00    +0.000 C 
ATOM     12  O   UNL     1       2.565  16.883  17.518  0.00  0.00    +0.000 OA
ATOM     13  C   UNL     1       2.908  14.017  19.758  0.00  0.00    +0.000 C 
ATOM     14  C   UNL     1       2.051  13.668  20.967  0.00  0.00    +0.000 C 
BRANCH  11  15
ATOM     15  C   UNL     1       4.568  16.103  18.389  0.00  0.00    +0.000 A 
ATOM     16  C   UNL     1       5.326  15.077  17.843  0.00  0.00    +0.000 A 
ATOM     17  N   UNL     1       6.689  15.088  17.860  0.00  0.00    +0.000 NA
ATOM     18  C   UNL     1       7.246  16.165  18.458  0.00  0.00    +0.000 A 
ATOM     19  C   UNL     1       6.487  17.175  19.034  0.00  0.00    +0.000 A 
ATOM     20  N   UNL     1       5.139  17.163  19.026  0.00  0.00    +0.000 NA
ENDBRANCH  11  15
ENDBRANCH   4   7
BRANCH   1  21
ATOM     21  C   UNL     1       1.836   9.381  18.113  0.00  0.00    +0.000 C 
BRANCH  21  25
ATOM     22  C   UNL     1       3.874   5.533  17.863  0.00  0.00    +0.000 A 
ATOM     23  C   UNL     1       4.443   6.677  17.298  0.00  0.00    +0.000 A 
ATOM     24  C   UNL     1       3.765   7.908  17.345  0.00  0.00    +0.000 A 
ATOM     25  C   UNL     1       2.507   8.021  17.955  0.00  0.00    +0.000 A 
ATOM     26  C   UNL     1       1.932   6.858  18.493  0.00  0.00    +0.000 A 
ATOM     27  C   UNL     1       2.607   5.626  18.440  0.00  0.00    +0.000 A 
BRANCH  22  28
ATOM     28  S   UNL     1       4.701   3.947  17.845  0.00  0.00    +0.000 S 
BRANCH  28  30
ATOM     29  C   UNL     1       2.813   1.884  17.973  0.00  0.00    +0.000 C 
ATOM     30  C   UNL     1       3.558   2.895  18.840  0.00  0.00    +0.000 C 
ATOM     31  C   UNL     1       4.378   2.159  19.904  0.00  0.00    +0.000 C 
ENDBRANCH  28  30
ENDBRANCH  22  28
ENDBRANCH  21  25
ENDBRANCH   1  21
TORSDOF 6
ENDMDL
MODEL 9
REMARK VINA RESULT:      -7.2      4.087      7.283
REMARK  Name = 
REMARK  8 active torsions:
REMARK  status: ('A' for Active; 'I' for Inactive)
REMARK    1  A    between atoms: C_1  and  C_2
REMARK    2  A    between atoms: C_2  and  C_3
REMARK    3  A    between atoms: C_2  and  S_4
REMARK    4  A    between atoms: S_4  and  C_5
REMARK    5  A    between atoms: C_8  and  C_9
REMARK    6  A    between atoms: C_9  and  C_10
REMARK    7  A    between atoms: N_13  and  C_14
REMARK    8  A    between atoms: C_18  and  C_20
REMARK                            x       y       z     vdW  Elec       q    Type
REMARK                         _______ _______ _______ _____ _____    ______ ____
ROOT
ATOM      1  C   UNL     1      -0.898  11.196  19.984  0.00  0.00    +0.000 C 
ATOM      2  C   UNL     1      -1.860  12.342  19.676  0.00  0.00    +0.000 C 
ATOM      3  C   UNL     1      -1.195  13.719  19.734  0.00  0.00    +0.000 C 
ATOM      4  N   UNL     1      -0.493  14.007  20.978  0.00  0.00    +0.000 NA
ATOM      5  C   UNL     1       0.386  12.920  21.430  0.00  0.00    +0.000 C 
ATOM      6  C   UNL     1      -0.205  11.508  21.321  0.00  0.00    +0.000 C 
ENDROOT
BRANCH   4   7
ATOM      7  C   UNL     1       0.185  15.336  21.056  0.00  0.00    +0.000 C 
ATOM      8  C   UNL     1      -0.054  16.288  19.865  0.00  0.00    +0.000 C 
ATOM      9  C   UNL     1       0.891  16.089  18.684  0.00  0.00    +0.000 C 
ATOM     10  N   UNL     1       2.294  16.056  19.090  0.00  0.00    +0.000 N 
ATOM     11  C   UNL     1       3.240  16.616  18.215  0.00  0.00    +0.000 C 
ATOM     12  O   UNL     1       2.917  17.309  17.253  0.00  0.00    +0.000 OA
ATOM     13  C   UNL     1       2.622  15.168  20.200  0.00  0.00    +0.000 C 
ATOM     14  C   UNL     1       1.689  15.341  21.391  0.00  0.00    +0.000 C 
BRANCH  11  15
ATOM     15  C   UNL     1       4.701  16.431  18.449  0.00  0.00    +0.000 A 
ATOM     16  C   UNL     1       5.279  15.228  18.070  0.00  0.00    +0.000 A 
ATOM     17  N   UNL     1       6.618  14.996  18.174  0.00  0.00    +0.000 NA
ATOM     18  C   UNL     1       7.338  16.021  18.683  0.00  0.00    +0.000 A 
ATOM     19  C   UNL     1       6.755  17.213  19.094  0.00  0.00    +0.000 A 
ATOM     20  N   UNL     1       5.429  17.441  18.999  0.00  0.00    +0.000 NA
ENDBRANCH  11  15
ENDBRANCH   4   7
BRANCH   1  21
ATOM     21  C   UNL     1       0.101  10.890  18.837  0.00  0.00    +0.000 C 
BRANCH  21  25
ATOM     22  C   UNL     1       2.393   7.202  19.243  0.00  0.00    +0.000 A 
ATOM     23  C   UNL     1       1.692   7.726  20.331  0.00  0.00    +0.000 A 
ATOM     24  C   UNL     1       0.987   8.936  20.208  0.00  0.00    +0.000 A 
ATOM     25  C   UNL     1       0.969   9.647  18.999  0.00  0.00    +0.000 A 
ATOM     26  C   UNL     1       1.703   9.125  17.921  0.00  0.00    +0.000 A 
ATOM     27  C   UNL     1       2.413   7.919  18.046  0.00  0.00    +0.000 A 
BRANCH  22  28
ATOM     28  S   UNL     1       3.293   5.659  19.341  0.00  0.00    +0.000 S 
BRANCH  28  30
ATOM     29  C   UNL     1       3.835   3.910  17.223  0.00  0.00    +0.000 C 
ATOM     30  C   UNL     1       2.730   4.776  17.823  0.00  0.00    +0.000 C 
ATOM     31  C   UNL     1       1.527   3.901  18.188  0.00  0.00    +0.000 C 
ENDBRANCH  28  30
ENDBRANCH  22  28
ENDBRANCH  21  25
ENDBRANCH   1  21
TORSDOF 6
ENDMDL
