MODEL 1
REMARK VINA RESULT:      -7.7      0.000      0.000
REMARK  Name = 
REMARK  12 active torsions:
REMARK  status: ('A' for Active; 'I' for Inactive)
REMARK    1  A    between atoms: C_1  and  O_2
REMARK    2  A    between atoms: O_2  and  C_3
REMARK    3  A    between atoms: C_6  and  C_7
REMARK    4  A    between atoms: C_7  and  C_9
REMARK    5  A    between atoms: C_9  and  C_10
REMARK    6  A    between atoms: C_9  and  C_11
REMARK    7  A    between atoms: C_11  and  C_12
REMARK    8  A    between atoms: C_14  and  O_15
REMARK    9  A    between atoms: O_15  and  C_16
REMARK   10  A    between atoms: C_16  and  C_17
REMARK   11  A    between atoms: C_23  and  O_24
REMARK   12  A    between atoms: O_24  and  C_25
REMARK                            x       y       z     vdW  Elec       q    Type
REMARK                         _______ _______ _______ _____ _____    ______ ____
ROOT
ATOM      1  C   UNL     1       6.394   5.081  15.713  0.00  0.00    +0.000 A 
ATOM      2  C   UNL     1       5.813   3.820  15.637  0.00  0.00    +0.000 A 
ATOM      3  C   UNL     1       4.646   3.543  16.334  0.00  0.00    +0.000 A 
ATOM      4  C   UNL     1       4.046   4.505  17.158  0.00  0.00    +0.000 A 
ATOM      5  C   UNL     1       4.708   5.742  17.367  0.00  0.00    +0.000 A 
ATOM      6  C   UNL     1       5.885   6.036  16.615  0.00  0.00    +0.000 A 
ENDROOT
BRANCH   1   8
ATOM      7  C   UNL     1       7.416   4.974  13.587  0.00  0.00    +0.000 C 
ATOM      8  O   UNL     1       7.506   5.352  14.963  0.00  0.00    +0.000 OA
ENDBRANCH   1   8
BRANCH   4   9
ATOM      9  C   UNL     1       2.713   4.151  17.781  0.00  0.00    +0.000 C 
ATOM     10  O   UNL     1       1.707   4.819  17.548  0.00  0.00    +0.000 OA
BRANCH   9  11
ATOM     11  C   UNL     1       2.677   2.970  18.755  0.00  0.00    +0.000 C 
ATOM     12  C   UNL     1       3.779   3.077  19.811  0.00  0.00    +0.000 C 
BRANCH  11  13
ATOM     13  C   UNL     1       1.336   2.740  19.427  0.00  0.00    +0.000 C 
ATOM     14  C   UNL     1       1.153   3.107  20.878  0.00  0.00    +0.000 C 
ATOM     15  O   UNL     1       0.436   2.148  18.821  0.00  0.00    +0.000 OA
ENDBRANCH  11  13
ENDBRANCH   9  11
ENDBRANCH   4   9
BRANCH   6  16
ATOM     16  O   UNL     1       6.469   7.253  16.835  0.00  0.00    +0.000 OA
ATOM     17  C   UNL     1       7.571   7.385  17.720  0.00  0.00    +0.000 C 
ENDBRANCH   6  16
BRANCH   5  18
ATOM     18  O   UNL     1       4.084   6.630  18.216  0.00  0.00    +0.000 OA
BRANCH  18  19
ATOM     19  C   UNL     1       3.283   7.694  17.665  0.00  0.00    +0.000 C 
BRANCH  19  20
ATOM     20  C   UNL     1       2.219   8.173  18.637  0.00  0.00    +0.000 A 
ATOM     21  C   UNL     1       1.435   9.295  18.339  0.00  0.00    +0.000 A 
ATOM     22  C   UNL     1       0.610   9.861  19.311  0.00  0.00    +0.000 A 
ATOM     23  C   UNL     1       0.537   9.293  20.581  0.00  0.00    +0.000 A 
ATOM     24  C   UNL     1       1.250   8.129  20.865  0.00  0.00    +0.000 A 
ATOM     25  C   UNL     1       2.072   7.556  19.891  0.00  0.00    +0.000 A 
ENDBRANCH  19  20
ENDBRANCH  18  19
ENDBRANCH   5  18
TORSDOF 8
ENDMDL
MODEL 2
REMARK VINA RESULT:      -7.7      0.771      1.132
REMARK  Name = 
REMARK  12 active torsions:
REMARK  status: ('A' for Active; 'I' for Inactive)
REMARK    1  A    between atoms: C_1  and  O_2
REMARK    2  A    between atoms: O_2  and  C_3
REMARK    3  A    between atoms: C_6  and  C_7
REMARK    4  A    between atoms: C_7  and  C_9
REMARK    5  A    between atoms: C_9  and  C_10
REMARK    6  A    between atoms: C_9  and  C_11
REMARK    7  A    between atoms: C_11  and  C_12
REMARK    8  A    between atoms: C_14  and  O_15
REMARK    9  A    between atoms: O_15  and  C_16
REMARK   10  A    between atoms: C_16  and  C_17
REMARK   11  A    between atoms: C_23  and  O_24
REMARK   12  A    between atoms: O_24  and  C_25
REMARK                            x       y       z     vdW  Elec       q    Type
REMARK                         _______ _______ _______ _____ _____    ______ ____
ROOT
ATOM      1  C   UNL     1       6.220   5.095  15.937  0.00  0.00    +0.000 A 
ATOM      2  C   UNL     1       5.616   3.846  16.020  0.00  0.00    +0.000 A 
ATOM      3  C   UNL     1       4.455   3.676  16.758  0.00  0.00    +0.000 A 
ATOM      4  C   UNL     1       3.883   4.742  17.467  0.00  0.00    +0.000 A 
ATOM      5  C   UNL     1       4.568   5.981  17.518  0.00  0.00    +0.000 A 
ATOM      6  C   UNL     1       5.740   6.161  16.723  0.00  0.00    +0.000 A 
ENDROOT
BRANCH   1   8
ATOM      7  C   UNL     1       7.149   4.890  13.775  0.00  0.00    +0.000 C 
ATOM      8  O   UNL     1       7.325   5.253  15.147  0.00  0.00    +0.000 OA
ENDBRANCH   1   8
BRANCH   4   9
ATOM      9  C   UNL     1       2.553   4.489  18.144  0.00  0.00    +0.000 C 
ATOM     10  O   UNL     1       1.497   4.581  17.520  0.00  0.00    +0.000 OA
BRANCH   9  11
ATOM     11  C   UNL     1       2.567   4.176  19.643  0.00  0.00    +0.000 C 
ATOM     12  C   UNL     1       1.268   4.613  20.322  0.00  0.00    +0.000 C 
BRANCH  11  13
ATOM     13  C   UNL     1       2.871   2.730  19.987  0.00  0.00    +0.000 C 
ATOM     14  C   UNL     1       4.303   2.277  20.123  0.00  0.00    +0.000 C 
ATOM     15  O   UNL     1       1.954   1.902  20.042  0.00  0.00    +0.000 OA
ENDBRANCH  11  13
ENDBRANCH   9  11
ENDBRANCH   4   9
BRANCH   6  16
ATOM     16  O   UNL     1       6.347   7.385  16.788  0.00  0.00    +0.000 OA
ATOM     17  C   UNL     1       7.492   7.589  17.601  0.00  0.00    +0.000 C 
ENDBRANCH   6  16
BRANCH   5  18
ATOM     18  O   UNL     1       3.971   6.977  18.261  0.00  0.00    +0.000 OA
BRANCH  18  19
ATOM     19  C   UNL     1       3.129   7.944  17.603  0.00  0.00    +0.000 C 
BRANCH  19  20
ATOM     20  C   UNL     1       2.017   8.447  18.508  0.00  0.00    +0.000 A 
ATOM     21  C   UNL     1       1.127   9.432  18.063  0.00  0.00    +0.000 A 
ATOM     22  C   UNL     1       0.245  10.044  18.954  0.00  0.00    +0.000 A 
ATOM     23  C   UNL     1       0.223   9.655  20.292  0.00  0.00    +0.000 A 
ATOM     24  C   UNL     1       1.047   8.619  20.730  0.00  0.00    +0.000 A 
ATOM     25  C   UNL     1       1.927   8.000  19.838  0.00  0.00    +0.000 A 
ENDBRANCH  19  20
ENDBRANCH  18  19
ENDBRANCH   5  18
TORSDOF 8
ENDMDL
MODEL 3
REMARK VINA RESULT:      -7.4      1.032      1.548
REMARK  Name = 
REMARK  12 active torsions:
REMARK  status: ('A' for Active; 'I' for Inactive)
REMARK    1  A    between atoms: C_1  and  O_2
REMARK    2  A    between atoms: O_2  and  C_3
REMARK    3  A    between atoms: C_6  and  C_7
REMARK    4  A    between atoms: C_7  and  C_9
REMARK    5  A    between atoms: C_9  and  C_10
REMARK    6  A    between atoms: C_9  and  C_11
REMARK    7  A    between atoms: C_11  and  C_12
REMARK    8  A    between atoms: C_14  and  O_15
REMARK    9  A    between atoms: O_15  and  C_16
REMARK   10  A    between atoms: C_16  and  C_17
REMARK   11  A    between atoms: C_23  and  O_24
REMARK   12  A    between atoms: O_24  and  C_25
REMARK                            x       y       z     vdW  Elec       q    Type
REMARK                         _______ _______ _______ _____ _____    ______ ____
ROOT
ATOM      1  C   UNL     1       6.168   5.211  15.934  0.00  0.00    +0.000 A 
ATOM      2  C   UNL     1       5.569   3.960  16.026  0.00  0.00    +0.000 A 
ATOM      3  C   UNL     1       4.417   3.789  16.778  0.00  0.00    +0.000 A 
ATOM      4  C   UNL     1       3.851   4.854  17.492  0.00  0.00    +0.000 A 
ATOM      5  C   UNL     1       4.533   6.096  17.533  0.00  0.00    +0.000 A 
ATOM      6  C   UNL     1       5.695   6.277  16.724  0.00  0.00    +0.000 A 
ENDROOT
BRANCH   1   8
ATOM      7  C   UNL     1       7.149   4.798  13.825  0.00  0.00    +0.000 C 
ATOM      8  O   UNL     1       7.264   5.371  15.130  0.00  0.00    +0.000 OA
ENDBRANCH   1   8
BRANCH   4   9
ATOM      9  C   UNL     1       2.529   4.599  18.185  0.00  0.00    +0.000 C 
ATOM     10  O   UNL     1       1.463   4.738  17.588  0.00  0.00    +0.000 OA
BRANCH   9  11
ATOM     11  C   UNL     1       2.567   4.221  19.669  0.00  0.00    +0.000 C 
ATOM     12  C   UNL     1       1.264   4.593  20.378  0.00  0.00    +0.000 C 
BRANCH  11  13
ATOM     13  C   UNL     1       2.912   2.770  19.947  0.00  0.00    +0.000 C 
ATOM     14  C   UNL     1       1.823   1.727  19.946  0.00  0.00    +0.000 C 
ATOM     15  O   UNL     1       4.061   2.463  20.287  0.00  0.00    +0.000 OA
ENDBRANCH  11  13
ENDBRANCH   9  11
ENDBRANCH   4   9
BRANCH   6  16
ATOM     16  O   UNL     1       6.300   7.503  16.780  0.00  0.00    +0.000 OA
ATOM     17  C   UNL     1       7.444   7.716  17.592  0.00  0.00    +0.000 C 
ENDBRANCH   6  16
BRANCH   5  18
ATOM     18  O   UNL     1       3.942   7.090  18.281  0.00  0.00    +0.000 OA
BRANCH  18  19
ATOM     19  C   UNL     1       2.941   7.933  17.677  0.00  0.00    +0.000 C 
BRANCH  19  20
ATOM     20  C   UNL     1       2.029   8.572  18.710  0.00  0.00    +0.000 A 
ATOM     21  C   UNL     1       1.944   8.049  20.006  0.00  0.00    +0.000 A 
ATOM     22  C   UNL     1       0.959   8.497  20.887  0.00  0.00    +0.000 A 
ATOM     23  C   UNL     1       0.070   9.493  20.492  0.00  0.00    +0.000 A 
ATOM     24  C   UNL     1       0.196  10.079  19.232  0.00  0.00    +0.000 A 
ATOM     25  C   UNL     1       1.185   9.637  18.350  0.00  0.00    +0.000 A 
ENDBRANCH  19  20
ENDBRANCH  18  19
ENDBRANCH   5  18
TORSDOF 8
ENDMDL
MODEL 4
REMARK VINA RESULT:      -7.4      1.443      4.638
REMARK  Name = 
REMARK  12 active torsions:
REMARK  status: ('A' for Active; 'I' for Inactive)
REMARK    1  A    between atoms: C_1  and  O_2
REMARK    2  A    between atoms: O_2  and  C_3
REMARK    3  A    between atoms: C_6  and  C_7
REMARK    4  A    between atoms: C_7  and  C_9
REMARK    5  A    between atoms: C_9  and  C_10
REMARK    6  A    between atoms: C_9  and  C_11
REMARK    7  A    between atoms: C_11  and  C_12
REMARK    8  A    between atoms: C_14  and  O_15
REMARK    9  A    between atoms: O_15  and  C_16
REMARK   10  A    between atoms: C_16  and  C_17
REMARK   11  A    between atoms: C_23  and  O_24
REMARK   12  A    between atoms: O_24  and  C_25
REMARK                            x       y       z     vdW  Elec       q    Type
REMARK                         _______ _______ _______ _____ _____    ______ ____
ROOT
ATOM      1  C   UNL     1       3.190   3.274  18.376  0.00  0.00    +0.000 A 
ATOM      2  C   UNL     1       4.011   2.907  17.316  0.00  0.00    +0.000 A 
ATOM      3  C   UNL     1       4.764   3.861  16.650  0.00  0.00    +0.000 A 
ATOM      4  C   UNL     1       4.689   5.217  16.997  0.00  0.00    +0.000 A 
ATOM      5  C   UNL     1       3.743   5.628  17.969  0.00  0.00    +0.000 A 
ATOM      6  C   UNL     1       3.003   4.637  18.681  0.00  0.00    +0.000 A 
ENDROOT
BRANCH   1   8
ATOM      7  C   UNL     1       1.143   2.135  18.680  0.00  0.00    +0.000 C 
ATOM      8  O   UNL     1       2.510   2.306  19.063  0.00  0.00    +0.000 OA
ENDBRANCH   1   8
BRANCH   4   9
ATOM      9  C   UNL     1       5.636   6.166  16.293  0.00  0.00    +0.000 C 
ATOM     10  O   UNL     1       5.302   6.746  15.261  0.00  0.00    +0.000 OA
BRANCH   9  11
ATOM     11  C   UNL     1       7.042   6.330  16.879  0.00  0.00    +0.000 C 
ATOM     12  C   UNL     1       7.231   7.709  17.512  0.00  0.00    +0.000 C 
BRANCH  11  13
ATOM     13  C   UNL     1       7.452   5.248  17.861  0.00  0.00    +0.000 C 
ATOM     14  C   UNL     1       7.239   5.458  19.339  0.00  0.00    +0.000 C 
ATOM     15  O   UNL     1       8.062   4.250  17.460  0.00  0.00    +0.000 OA
ENDBRANCH  11  13
ENDBRANCH   9  11
ENDBRANCH   4   9
BRANCH   6  16
ATOM     16  O   UNL     1       2.124   5.085  19.627  0.00  0.00    +0.000 OA
ATOM     17  C   UNL     1       2.352   4.847  21.008  0.00  0.00    +0.000 C 
ENDBRANCH   6  16
BRANCH   5  18
ATOM     18  O   UNL     1       3.695   6.978  18.239  0.00  0.00    +0.000 OA
BRANCH  18  19
ATOM     19  C   UNL     1       2.727   7.803  17.560  0.00  0.00    +0.000 C 
BRANCH  19  20
ATOM     20  C   UNL     1       1.992   8.729  18.514  0.00  0.00    +0.000 A 
ATOM     21  C   UNL     1       1.714   8.326  19.826  0.00  0.00    +0.000 A 
ATOM     22  C   UNL     1       0.862   9.081  20.633  0.00  0.00    +0.000 A 
ATOM     23  C   UNL     1       0.305  10.262  20.147  0.00  0.00    +0.000 A 
ATOM     24  C   UNL     1       0.639  10.716  18.871  0.00  0.00    +0.000 A 
ATOM     25  C   UNL     1       1.497   9.965  18.063  0.00  0.00    +0.000 A 
ENDBRANCH  19  20
ENDBRANCH  18  19
ENDBRANCH   5  18
TORSDOF 8
ENDMDL
MODEL 5
REMARK VINA RESULT:      -7.3      1.935      6.390
REMARK  Name = 
REMARK  12 active torsions:
REMARK  status: ('A' for Active; 'I' for Inactive)
REMARK    1  A    between atoms: C_1  and  O_2
REMARK    2  A    between atoms: O_2  and  C_3
REMARK    3  A    between atoms: C_6  and  C_7
REMARK    4  A    between atoms: C_7  and  C_9
REMARK    5  A    between atoms: C_9  and  C_10
REMARK    6  A    between atoms: C_9  and  C_11
REMARK    7  A    between atoms: C_11  and  C_12
REMARK    8  A    between atoms: C_14  and  O_15
REMARK    9  A    between atoms: O_15  and  C_16
REMARK   10  A    between atoms: C_16  and  C_17
REMARK   11  A    between atoms: C_23  and  O_24
REMARK   12  A    between atoms: O_24  and  C_25
REMARK                            x       y       z     vdW  Elec       q    Type
REMARK                         _______ _______ _______ _____ _____    ______ ____
ROOT
ATOM      1  C   UNL     1       1.145   9.454  19.103  0.00  0.00    +0.000 A 
ATOM      2  C   UNL     1       1.800   9.427  17.878  0.00  0.00    +0.000 A 
ATOM      3  C   UNL     1       2.588   8.341  17.529  0.00  0.00    +0.000 A 
ATOM      4  C   UNL     1       2.777   7.268  18.410  0.00  0.00    +0.000 A 
ATOM      5  C   UNL     1       2.243   7.351  19.720  0.00  0.00    +0.000 A 
ATOM      6  C   UNL     1       1.398   8.450  20.058  0.00  0.00    +0.000 A 
ENDROOT
BRANCH   1   8
ATOM      7  C   UNL     1      -1.050  10.322  19.020  0.00  0.00    +0.000 C 
ATOM      8  O   UNL     1       0.317  10.504  19.397  0.00  0.00    +0.000 OA
ENDBRANCH   1   8
BRANCH   4   9
ATOM      9  C   UNL     1       3.555   6.076  17.894  0.00  0.00    +0.000 C 
ATOM     10  O   UNL     1       2.977   5.093  17.434  0.00  0.00    +0.000 OA
BRANCH   9  11
ATOM     11  C   UNL     1       5.081   6.115  18.021  0.00  0.00    +0.000 C 
ATOM     12  C   UNL     1       5.635   4.796  18.562  0.00  0.00    +0.000 C 
BRANCH  11  13
ATOM     13  C   UNL     1       5.816   6.505  16.752  0.00  0.00    +0.000 C 
ATOM     14  C   UNL     1       5.606   5.707  15.491  0.00  0.00    +0.000 C 
ATOM     15  O   UNL     1       6.669   7.399  16.783  0.00  0.00    +0.000 OA
ENDBRANCH  11  13
ENDBRANCH   9  11
ENDBRANCH   4   9
BRANCH   6  16
ATOM     16  O   UNL     1       0.888   8.468  21.327  0.00  0.00    +0.000 OA
ATOM     17  C   UNL     1       1.483   9.261  22.343  0.00  0.00    +0.000 C 
ENDBRANCH   6  16
BRANCH   5  18
ATOM     18  O   UNL     1       2.495   6.279  20.549  0.00  0.00    +0.000 OA
BRANCH  18  19
ATOM     19  C   UNL     1       1.431   5.359  20.862  0.00  0.00    +0.000 C 
BRANCH  19  20
ATOM     20  C   UNL     1       1.656   3.989  20.246  0.00  0.00    +0.000 A 
ATOM     21  C   UNL     1       2.890   3.339  20.386  0.00  0.00    +0.000 A 
ATOM     22  C   UNL     1       3.170   2.187  19.651  0.00  0.00    +0.000 A 
ATOM     23  C   UNL     1       2.210   1.656  18.792  0.00  0.00    +0.000 A 
ATOM     24  C   UNL     1       0.950   2.246  18.706  0.00  0.00    +0.000 A 
ATOM     25  C   UNL     1       0.664   3.397  19.445  0.00  0.00    +0.000 A 
ENDBRANCH  19  20
ENDBRANCH  18  19
ENDBRANCH   5  18
TORSDOF 8
ENDMDL
MODEL 6
REMARK VINA RESULT:      -7.0      1.489      4.478
REMARK  Name = 
REMARK  12 active torsions:
REMARK  status: ('A' for Active; 'I' for Inactive)
REMARK    1  A    between atoms: C_1  and  O_2
REMARK    2  A    between atoms: O_2  and  C_3
REMARK    3  A    between atoms: C_6  and  C_7
REMARK    4  A    between atoms: C_7  and  C_9
REMARK    5  A    between atoms: C_9  and  C_10
REMARK    6  A    between atoms: C_9  and  C_11
REMARK    7  A    between atoms: C_11  and  C_12
REMARK    8  A    between atoms: C_14  and  O_15
REMARK    9  A    between atoms: O_15  and  C_16
REMARK   10  A    between atoms: C_16  and  C_17
REMARK   11  A    between atoms: C_23  and  O_24
REMARK   12  A    between atoms: O_24  and  C_25
REMARK                            x       y       z     vdW  Elec       q    Type
REMARK                         _______ _______ _______ _____ _____    ______ ____
ROOT
ATOM      1  C   UNL     1       2.974   3.453  18.044  0.00  0.00    +0.000 A 
ATOM      2  C   UNL     1       3.798   3.137  16.970  0.00  0.00    +0.000 A 
ATOM      3  C   UNL     1       4.613   4.104  16.404  0.00  0.00    +0.000 A 
ATOM      4  C   UNL     1       4.601   5.427  16.868  0.00  0.00    +0.000 A 
ATOM      5  C   UNL     1       3.657   5.800  17.857  0.00  0.00    +0.000 A 
ATOM      6  C   UNL     1       2.851   4.791  18.465  0.00  0.00    +0.000 A 
ENDROOT
BRANCH   1   8
ATOM      7  C   UNL     1       2.907   1.715  19.642  0.00  0.00    +0.000 C 
ATOM      8  O   UNL     1       2.230   2.466  18.631  0.00  0.00    +0.000 OA
ENDBRANCH   1   8
BRANCH   4   9
ATOM      9  C   UNL     1       5.611   6.382  16.268  0.00  0.00    +0.000 C 
ATOM     10  O   UNL     1       5.346   7.034  15.260  0.00  0.00    +0.000 OA
BRANCH   9  11
ATOM     11  C   UNL     1       6.992   6.459  16.926  0.00  0.00    +0.000 C 
ATOM     12  C   UNL     1       7.214   7.808  17.611  0.00  0.00    +0.000 C 
BRANCH  11  13
ATOM     13  C   UNL     1       7.302   5.330  17.891  0.00  0.00    +0.000 C 
ATOM     14  C   UNL     1       6.971   5.483  19.354  0.00  0.00    +0.000 C 
ATOM     15  O   UNL     1       7.926   4.337  17.499  0.00  0.00    +0.000 OA
ENDBRANCH  11  13
ENDBRANCH   9  11
ENDBRANCH   4   9
BRANCH   6  16
ATOM     16  O   UNL     1       1.975   5.201  19.432  0.00  0.00    +0.000 OA
ATOM     17  C   UNL     1       2.283   5.046  20.809  0.00  0.00    +0.000 C 
ENDBRANCH   6  16
BRANCH   5  18
ATOM     18  O   UNL     1       3.672   7.123  18.245  0.00  0.00    +0.000 OA
BRANCH  18  19
ATOM     19  C   UNL     1       2.837   8.074  17.555  0.00  0.00    +0.000 C 
BRANCH  19  20
ATOM     20  C   UNL     1       1.762   8.654  18.457  0.00  0.00    +0.000 A 
ATOM     21  C   UNL     1       0.795   9.527  17.942  0.00  0.00    +0.000 A 
ATOM     22  C   UNL     1      -0.059  10.223  18.799  0.00  0.00    +0.000 A 
ATOM     23  C   UNL     1       0.026  10.030  20.176  0.00  0.00    +0.000 A 
ATOM     24  C   UNL     1       0.929   9.104  20.695  0.00  0.00    +0.000 A 
ATOM     25  C   UNL     1       1.781   8.401  19.839  0.00  0.00    +0.000 A 
ENDBRANCH  19  20
ENDBRANCH  18  19
ENDBRANCH   5  18
TORSDOF 8
ENDMDL
MODEL 7
REMARK VINA RESULT:      -7.0      2.368      7.010
REMARK  Name = 
REMARK  12 active torsions:
REMARK  status: ('A' for Active; 'I' for Inactive)
REMARK    1  A    between atoms: C_1  and  O_2
REMARK    2  A    between atoms: O_2  and  C_3
REMARK    3  A    between atoms: C_6  and  C_7
REMARK    4  A    between atoms: C_7  and  C_9
REMARK    5  A    between atoms: C_9  and  C_10
REMARK    6  A    between atoms: C_9  and  C_11
REMARK    7  A    between atoms: C_11  and  C_12
REMARK    8  A    between atoms: C_14  and  O_15
REMARK    9  A    between atoms: O_15  and  C_16
REMARK   10  A    between atoms: C_16  and  C_17
REMARK   11  A    between atoms: C_23  and  O_24
REMARK   12  A    between atoms: O_24  and  C_25
REMARK                            x       y       z     vdW  Elec       q    Type
REMARK                         _______ _______ _______ _____ _____    ______ ____
ROOT
ATOM      1  C   UNL     1       2.647   4.802  19.021  0.00  0.00    +0.000 A 
ATOM      2  C   UNL     1       3.413   5.847  19.525  0.00  0.00    +0.000 A 
ATOM      3  C   UNL     1       4.429   6.402  18.762  0.00  0.00    +0.000 A 
ATOM      4  C   UNL     1       4.736   5.904  17.488  0.00  0.00    +0.000 A 
ATOM      5  C   UNL     1       4.068   4.742  17.024  0.00  0.00    +0.000 A 
ATOM      6  C   UNL     1       2.995   4.203  17.795  0.00  0.00    +0.000 A 
ENDROOT
BRANCH   1   8
ATOM      7  C   UNL     1       1.910   4.048  21.135  0.00  0.00    +0.000 C 
ATOM      8  O   UNL     1       1.605   4.317  19.764  0.00  0.00    +0.000 OA
ENDBRANCH   1   8
BRANCH   4   9
ATOM      9  C   UNL     1       5.779   6.650  16.685  0.00  0.00    +0.000 C 
ATOM     10  O   UNL     1       5.476   7.248  15.653  0.00  0.00    +0.000 OA
BRANCH   9  11
ATOM     11  C   UNL     1       7.230   6.583  17.169  0.00  0.00    +0.000 C 
ATOM     12  C   UNL     1       7.706   7.933  17.710  0.00  0.00    +0.000 C 
BRANCH  11  13
ATOM     13  C   UNL     1       7.512   5.490  18.183  0.00  0.00    +0.000 C 
ATOM     14  C   UNL     1       7.722   5.848  19.632  0.00  0.00    +0.000 C 
ATOM     15  O   UNL     1       7.684   4.326  17.803  0.00  0.00    +0.000 OA
ENDBRANCH  11  13
ENDBRANCH   9  11
ENDBRANCH   4   9
BRANCH   6  16
ATOM     16  O   UNL     1       2.367   3.098  17.289  0.00  0.00    +0.000 OA
ATOM     17  C   UNL     1       2.682   1.797  17.764  0.00  0.00    +0.000 C 
ENDBRANCH   6  16
BRANCH   5  18
ATOM     18  O   UNL     1       4.440   4.283  15.780  0.00  0.00    +0.000 OA
BRANCH  18  19
ATOM     19  C   UNL     1       5.685   3.571  15.630  0.00  0.00    +0.000 C 
BRANCH  19  20
ATOM     20  C   UNL     1       6.339   3.835  14.284  0.00  0.00    +0.000 A 
ATOM     21  C   UNL     1       7.408   4.734  14.177  0.00  0.00    +0.000 A 
ATOM     22  C   UNL     1       7.870   5.137  12.923  0.00  0.00    +0.000 A 
ATOM     23  C   UNL     1       7.288   4.623  11.766  0.00  0.00    +0.000 A 
ATOM     24  C   UNL     1       6.278   3.666  11.861  0.00  0.00    +0.000 A 
ATOM     25  C   UNL     1       5.817   3.256  13.115  0.00  0.00    +0.000 A 
ENDBRANCH  19  20
ENDBRANCH  18  19
ENDBRANCH   5  18
TORSDOF 8
ENDMDL
MODEL 8
REMARK VINA RESULT:      -7.0      1.329      4.740
REMARK  Name = 
REMARK  12 active torsions:
REMARK  status: ('A' for Active; 'I' for Inactive)
REMARK    1  A    between atoms: C_1  and  O_2
REMARK    2  A    between atoms: O_2  and  C_3
REMARK    3  A    between atoms: C_6  and  C_7
REMARK    4  A    between atoms: C_7  and  C_9
REMARK    5  A    between atoms: C_9  and  C_10
REMARK    6  A    between atoms: C_9  and  C_11
REMARK    7  A    between atoms: C_11  and  C_12
REMARK    8  A    between atoms: C_14  and  O_15
REMARK    9  A    between atoms: O_15  and  C_16
REMARK   10  A    between atoms: C_16  and  C_17
REMARK   11  A    between atoms: C_23  and  O_24
REMARK   12  A    between atoms: O_24  and  C_25
REMARK                            x       y       z     vdW  Elec       q    Type
REMARK                         _______ _______ _______ _____ _____    ______ ____
ROOT
ATOM      1  C   UNL     1       2.673   3.162  18.449  0.00  0.00    +0.000 A 
ATOM      2  C   UNL     1       3.426   2.887  17.313  0.00  0.00    +0.000 A 
ATOM      3  C   UNL     1       4.185   3.883  16.718  0.00  0.00    +0.000 A 
ATOM      4  C   UNL     1       4.183   5.193  17.217  0.00  0.00    +0.000 A 
ATOM      5  C   UNL     1       3.303   5.525  18.278  0.00  0.00    +0.000 A 
ATOM      6  C   UNL     1       2.558   4.487  18.912  0.00  0.00    +0.000 A 
ENDROOT
BRANCH   1   8
ATOM      7  C   UNL     1       0.589   2.094  18.764  0.00  0.00    +0.000 C 
ATOM      8  O   UNL     1       1.987   2.146  19.059  0.00  0.00    +0.000 OA
ENDBRANCH   1   8
BRANCH   4   9
ATOM      9  C   UNL     1       5.134   6.180  16.574  0.00  0.00    +0.000 C 
ATOM     10  O   UNL     1       4.732   7.006  15.756  0.00  0.00    +0.000 OA
BRANCH   9  11
ATOM     11  C   UNL     1       6.618   6.074  16.935  0.00  0.00    +0.000 C 
ATOM     12  C   UNL     1       6.824   5.968  18.447  0.00  0.00    +0.000 C 
BRANCH  11  13
ATOM     13  C   UNL     1       7.365   4.957  16.230  0.00  0.00    +0.000 C 
ATOM     14  C   UNL     1       7.121   4.702  14.764  0.00  0.00    +0.000 C 
ATOM     15  O   UNL     1       8.082   4.188  16.880  0.00  0.00    +0.000 OA
ENDBRANCH  11  13
ENDBRANCH   9  11
ENDBRANCH   4   9
BRANCH   6  16
ATOM     16  O   UNL     1       1.744   4.857  19.948  0.00  0.00    +0.000 OA
ATOM     17  C   UNL     1       2.111   4.596  21.294  0.00  0.00    +0.000 C 
ENDBRANCH   6  16
BRANCH   5  18
ATOM     18  O   UNL     1       3.324   6.837  18.697  0.00  0.00    +0.000 OA
BRANCH  18  19
ATOM     19  C   UNL     1       2.399   7.781  18.122  0.00  0.00    +0.000 C 
BRANCH  19  20
ATOM     20  C   UNL     1       1.634   8.555  19.182  0.00  0.00    +0.000 A 
ATOM     21  C   UNL     1       1.019   9.773  18.869  0.00  0.00    +0.000 A 
ATOM     22  C   UNL     1       0.501  10.585  19.879  0.00  0.00    +0.000 A 
ATOM     23  C   UNL     1       0.566  10.172  21.208  0.00  0.00    +0.000 A 
ATOM     24  C   UNL     1       1.103   8.925  21.525  0.00  0.00    +0.000 A 
ATOM     25  C   UNL     1       1.617   8.108  20.514  0.00  0.00    +0.000 A 
ENDBRANCH  19  20
ENDBRANCH  18  19
ENDBRANCH   5  18
TORSDOF 8
ENDMDL
MODEL 9
REMARK VINA RESULT:      -7.0      1.034      1.157
REMARK  Name = 
REMARK  12 active torsions:
REMARK  status: ('A' for Active; 'I' for Inactive)
REMARK    1  A    between atoms: C_1  and  O_2
REMARK    2  A    between atoms: O_2  and  C_3
REMARK    3  A    between atoms: C_6  and  C_7
REMARK    4  A    between atoms: C_7  and  C_9
REMARK    5  A    between atoms: C_9  and  C_10
REMARK    6  A    between atoms: C_9  and  C_11
REMARK    7  A    between atoms: C_11  and  C_12
REMARK    8  A    between atoms: C_14  and  O_15
REMARK    9  A    between atoms: O_15  and  C_16
REMARK   10  A    between atoms: C_16  and  C_17
REMARK   11  A    between atoms: C_23  and  O_24
REMARK   12  A    between atoms: O_24  and  C_25
REMARK                            x       y       z     vdW  Elec       q    Type
REMARK                         _______ _______ _______ _____ _____    ______ ____
ROOT
ATOM      1  C   UNL     1       6.130   5.110  16.047  0.00  0.00    +0.000 A 
ATOM      2  C   UNL     1       5.582   3.844  15.880  0.00  0.00    +0.000 A 
ATOM      3  C   UNL     1       4.367   3.524  16.465  0.00  0.00    +0.000 A 
ATOM      4  C   UNL     1       3.681   4.447  17.266  0.00  0.00    +0.000 A 
ATOM      5  C   UNL     1       4.298   5.686  17.571  0.00  0.00    +0.000 A 
ATOM      6  C   UNL     1       5.528   6.025  16.932  0.00  0.00    +0.000 A 
ENDROOT
BRANCH   1   8
ATOM      7  C   UNL     1       7.327   5.103  14.010  0.00  0.00    +0.000 C 
ATOM      8  O   UNL     1       7.296   5.426  15.403  0.00  0.00    +0.000 OA
ENDBRANCH   1   8
BRANCH   4   9
ATOM      9  C   UNL     1       2.307   4.048  17.761  0.00  0.00    +0.000 C 
ATOM     10  O   UNL     1       1.293   4.578  17.311  0.00  0.00    +0.000 OA
BRANCH   9  11
ATOM     11  C   UNL     1       2.231   3.008  18.883  0.00  0.00    +0.000 C 
ATOM     12  C   UNL     1       2.582   1.608  18.377  0.00  0.00    +0.000 C 
BRANCH  11  13
ATOM     13  C   UNL     1       3.057   3.337  20.113  0.00  0.00    +0.000 C 
ATOM     14  C   UNL     1       2.547   4.348  21.108  0.00  0.00    +0.000 C 
ATOM     15  O   UNL     1       4.193   2.866  20.237  0.00  0.00    +0.000 OA
ENDBRANCH  11  13
ENDBRANCH   9  11
ENDBRANCH   4   9
BRANCH   6  16
ATOM     16  O   UNL     1       6.068   7.244  17.242  0.00  0.00    +0.000 OA
ATOM     17  C   UNL     1       7.437   7.368  17.596  0.00  0.00    +0.000 C 
ENDBRANCH   6  16
BRANCH   5  18
ATOM     18  O   UNL     1       3.588   6.533  18.393  0.00  0.00    +0.000 OA
BRANCH  18  19
ATOM     19  C   UNL     1       2.946   7.694  17.829  0.00  0.00    +0.000 C 
BRANCH  19  20
ATOM     20  C   UNL     1       1.950   8.322  18.789  0.00  0.00    +0.000 A 
ATOM     21  C   UNL     1       1.183   9.427  18.397  0.00  0.00    +0.000 A 
ATOM     22  C   UNL     1       0.428  10.132  19.335  0.00  0.00    +0.000 A 
ATOM     23  C   UNL     1       0.408   9.723  20.666  0.00  0.00    +0.000 A 
ATOM     24  C   UNL     1       1.103   8.577  21.053  0.00  0.00    +0.000 A 
ATOM     25  C   UNL     1       1.855   7.865  20.114  0.00  0.00    +0.000 A 
ENDBRANCH  19  20
ENDBRANCH  18  19
ENDBRANCH   5  18
TORSDOF 8
ENDMDL
