MODEL 1
REMARK VINA RESULT:      -7.9      0.000      0.000
REMARK  Name = 
REMARK  4 active torsions:
REMARK  status: ('A' for Active; 'I' for Inactive)
REMARK    1  A    between atoms: C_4  and  C_5
REMARK    2  A    between atoms: C_10  and  C_11
REMARK    3  A    between atoms: C_11  and  N_12
REMARK    4  A    between atoms: C_15  and  C_16
REMARK                            x       y       z     vdW  Elec       q    Type
REMARK                         _______ _______ _______ _____ _____    ______ ____
ROOT
ATOM      1  C   UNL     1       0.705   9.690  19.907  0.00  0.00    +0.000 A 
ATOM      2  C   UNL     1       0.452   9.121  21.175  0.00  0.00    +0.000 A 
ATOM      3  N   UNL     1       1.052   7.945  21.356  0.00  0.00    +0.000 NA
ATOM      4  N   UNL     1       1.742   7.738  20.207  0.00  0.00    +0.000 N 
ATOM      5  C   UNL     1       2.603   6.681  19.922  0.00  0.00    +0.000 A 
ATOM      6  C   UNL     1       3.274   6.620  18.759  0.00  0.00    +0.000 A 
ATOM      7  C   UNL     1       2.943   7.742  17.821  0.00  0.00    +0.000 A 
ATOM      8  N   UNL     1       2.139   8.744  18.048  0.00  0.00    +0.000 NA
ATOM      9  C   UNL     1       1.534   8.770  19.281  0.00  0.00    +0.000 A 
ENDROOT
BRANCH   1  13
ATOM     10  C   UNL     1      -0.635  13.402  18.268  0.00  0.00    +0.000 A 
ATOM     11  C   UNL     1      -1.395  12.247  18.100  0.00  0.00    +0.000 A 
ATOM     12  C   UNL     1      -0.952  11.031  18.635  0.00  0.00    +0.000 A 
ATOM     13  C   UNL     1       0.251  10.959  19.351  0.00  0.00    +0.000 A 
ATOM     14  C   UNL     1       1.007  12.130  19.506  0.00  0.00    +0.000 A 
ATOM     15  C   UNL     1       0.566  13.343  18.969  0.00  0.00    +0.000 A 
ENDBRANCH   1  13
BRANCH   6  16
ATOM     16  C   UNL     1       4.327   5.591  18.391  0.00  0.00    +0.000 C 
BRANCH  16  17
ATOM     17  N   UNL     1       3.942   4.824  17.210  0.00  0.00    +0.000 NA
ATOM     18  C   UNL     1       5.056   4.031  16.671  0.00  0.00    +0.000 C 
ATOM     19  C   UNL     1       4.200   2.771  16.720  0.00  0.00    +0.000 C 
ATOM     20  C   UNL     1       3.097   3.629  17.376  0.00  0.00    +0.000 C 
BRANCH  20  21
ATOM     21  C   UNL     1       2.505   3.154  18.784  0.00  0.00    +0.000 A 
ATOM     22  C   UNL     1       1.180   3.396  19.207  0.00  0.00    +0.000 A 
ATOM     23  C   UNL     1       0.798   3.317  20.555  0.00  0.00    +0.000 A 
ATOM     24  C   UNL     1       1.724   2.954  21.528  0.00  0.00    +0.000 A 
ATOM     25  C   UNL     1       3.012   2.612  21.143  0.00  0.00    +0.000 A 
ATOM     26  C   UNL     1       3.386   2.700  19.797  0.00  0.00    +0.000 A 
ENDBRANCH  20  21
ENDBRANCH  16  17
ENDBRANCH   6  16
TORSDOF 4
ENDMDL
MODEL 2
REMARK VINA RESULT:      -7.9      1.013      1.548
REMARK  Name = 
REMARK  4 active torsions:
REMARK  status: ('A' for Active; 'I' for Inactive)
REMARK    1  A    between atoms: C_4  and  C_5
REMARK    2  A    between atoms: C_10  and  C_11
REMARK    3  A    between atoms: C_11  and  N_12
REMARK    4  A    between atoms: C_15  and  C_16
REMARK                            x       y       z     vdW  Elec       q    Type
REMARK                         _______ _______ _______ _____ _____    ______ ____
ROOT
ATOM      1  C   UNL     1       0.811   9.446  19.703  0.00  0.00    +0.000 A 
ATOM      2  C   UNL     1       0.526   8.829  20.941  0.00  0.00    +0.000 A 
ATOM      3  N   UNL     1       1.211   7.703  21.142  0.00  0.00    +0.000 NA
ATOM      4  N   UNL     1       1.988   7.581  20.037  0.00  0.00    +0.000 N 
ATOM      5  C   UNL     1       2.952   6.606  19.791  0.00  0.00    +0.000 A 
ATOM      6  C   UNL     1       3.699   6.627  18.674  0.00  0.00    +0.000 A 
ATOM      7  C   UNL     1       3.335   7.739  17.735  0.00  0.00    +0.000 A 
ATOM      8  N   UNL     1       2.436   8.664  17.926  0.00  0.00    +0.000 NA
ATOM      9  C   UNL     1       1.754   8.612  19.117  0.00  0.00    +0.000 A 
ENDROOT
BRANCH   1  13
ATOM     10  C   UNL     1      -0.707  13.087  18.061  0.00  0.00    +0.000 A 
ATOM     11  C   UNL     1       0.572  13.046  18.609  0.00  0.00    +0.000 A 
ATOM     12  C   UNL     1       1.066  11.853  19.149  0.00  0.00    +0.000 A 
ATOM     13  C   UNL     1       0.289  10.686  19.140  0.00  0.00    +0.000 A 
ATOM     14  C   UNL     1      -0.999  10.746  18.590  0.00  0.00    +0.000 A 
ATOM     15  C   UNL     1      -1.494  11.938  18.053  0.00  0.00    +0.000 A 
ENDBRANCH   1  13
BRANCH   6  16
ATOM     16  C   UNL     1       4.856   5.697  18.358  0.00  0.00    +0.000 C 
BRANCH  16  17
ATOM     17  N   UNL     1       4.967   5.442  16.926  0.00  0.00    +0.000 NA
ATOM     18  C   UNL     1       6.258   4.838  16.564  0.00  0.00    +0.000 C 
ATOM     19  C   UNL     1       5.540   3.701  15.848  0.00  0.00    +0.000 C 
ATOM     20  C   UNL     1       4.214   4.321  16.337  0.00  0.00    +0.000 C 
BRANCH  20  21
ATOM     21  C   UNL     1       3.209   3.397  17.171  0.00  0.00    +0.000 A 
ATOM     22  C   UNL     1       1.880   3.758  17.485  0.00  0.00    +0.000 A 
ATOM     23  C   UNL     1       1.157   3.131  18.512  0.00  0.00    +0.000 A 
ATOM     24  C   UNL     1       1.727   2.090  19.238  0.00  0.00    +0.000 A 
ATOM     25  C   UNL     1       2.993   1.639  18.896  0.00  0.00    +0.000 A 
ATOM     26  C   UNL     1       3.709   2.275  17.875  0.00  0.00    +0.000 A 
ENDBRANCH  20  21
ENDBRANCH  16  17
ENDBRANCH   6  16
TORSDOF 4
ENDMDL
MODEL 3
REMARK VINA RESULT:      -7.7      3.135      7.509
REMARK  Name = 
REMARK  4 active torsions:
REMARK  status: ('A' for Active; 'I' for Inactive)
REMARK    1  A    between atoms: C_4  and  C_5
REMARK    2  A    between atoms: C_10  and  C_11
REMARK    3  A    between atoms: C_11  and  N_12
REMARK    4  A    between atoms: C_15  and  C_16
REMARK                            x       y       z     vdW  Elec       q    Type
REMARK                         _______ _______ _______ _____ _____    ______ ____
ROOT
ATOM      1  C   UNL     1       6.768   5.080  15.716  0.00  0.00    +0.000 A 
ATOM      2  C   UNL     1       7.523   5.981  16.500  0.00  0.00    +0.000 A 
ATOM      3  N   UNL     1       7.165   5.992  17.784  0.00  0.00    +0.000 NA
ATOM      4  N   UNL     1       6.179   5.064  17.867  0.00  0.00    +0.000 N 
ATOM      5  C   UNL     1       5.521   4.637  19.018  0.00  0.00    +0.000 A 
ATOM      6  C   UNL     1       4.595   3.664  18.974  0.00  0.00    +0.000 A 
ATOM      7  C   UNL     1       4.320   3.167  17.586  0.00  0.00    +0.000 A 
ATOM      8  N   UNL     1       4.908   3.546  16.485  0.00  0.00    +0.000 NA
ATOM      9  C   UNL     1       5.885   4.502  16.617  0.00  0.00    +0.000 A 
ENDROOT
BRANCH   1  13
ATOM     10  C   UNL     1       7.074   4.159  11.554  0.00  0.00    +0.000 A 
ATOM     11  C   UNL     1       6.185   3.457  12.364  0.00  0.00    +0.000 A 
ATOM     12  C   UNL     1       6.089   3.758  13.727  0.00  0.00    +0.000 A 
ATOM     13  C   UNL     1       6.875   4.771  14.295  0.00  0.00    +0.000 A 
ATOM     14  C   UNL     1       7.770   5.464  13.468  0.00  0.00    +0.000 A 
ATOM     15  C   UNL     1       7.868   5.162  12.106  0.00  0.00    +0.000 A 
ENDBRANCH   1  13
BRANCH   6  16
ATOM     16  C   UNL     1       3.907   3.033  20.171  0.00  0.00    +0.000 C 
BRANCH  16  17
ATOM     17  N   UNL     1       2.515   2.707  19.882  0.00  0.00    +0.000 NA
ATOM     18  C   UNL     1       1.776   2.295  21.085  0.00  0.00    +0.000 C 
ATOM     19  C   UNL     1       0.703   3.338  20.799  0.00  0.00    +0.000 C 
ATOM     20  C   UNL     1       1.565   3.798  19.605  0.00  0.00    +0.000 C 
BRANCH  20  21
ATOM     21  C   UNL     1       1.989   5.339  19.525  0.00  0.00    +0.000 A 
ATOM     22  C   UNL     1       1.850   6.253  20.593  0.00  0.00    +0.000 A 
ATOM     23  C   UNL     1       1.862   7.643  20.394  0.00  0.00    +0.000 A 
ATOM     24  C   UNL     1       2.055   8.169  19.122  0.00  0.00    +0.000 A 
ATOM     25  C   UNL     1       2.293   7.307  18.061  0.00  0.00    +0.000 A 
ATOM     26  C   UNL     1       2.271   5.923  18.267  0.00  0.00    +0.000 A 
ENDBRANCH  20  21
ENDBRANCH  16  17
ENDBRANCH   6  16
TORSDOF 4
ENDMDL
MODEL 4
REMARK VINA RESULT:      -7.7      0.290      1.359
REMARK  Name = 
REMARK  4 active torsions:
REMARK  status: ('A' for Active; 'I' for Inactive)
REMARK    1  A    between atoms: C_4  and  C_5
REMARK    2  A    between atoms: C_10  and  C_11
REMARK    3  A    between atoms: C_11  and  N_12
REMARK    4  A    between atoms: C_15  and  C_16
REMARK                            x       y       z     vdW  Elec       q    Type
REMARK                         _______ _______ _______ _____ _____    ______ ____
ROOT
ATOM      1  C   UNL     1       0.785   9.821  19.836  0.00  0.00    +0.000 A 
ATOM      2  C   UNL     1       0.553   9.198  21.082  0.00  0.00    +0.000 A 
ATOM      3  N   UNL     1       1.158   8.016  21.203  0.00  0.00    +0.000 NA
ATOM      4  N   UNL     1       1.829   7.861  20.035  0.00  0.00    +0.000 N 
ATOM      5  C   UNL     1       2.687   6.819  19.689  0.00  0.00    +0.000 A 
ATOM      6  C   UNL     1       3.339   6.809  18.514  0.00  0.00    +0.000 A 
ATOM      7  C   UNL     1       2.990   7.970  17.631  0.00  0.00    +0.000 A 
ATOM      8  N   UNL     1       2.188   8.959  17.914  0.00  0.00    +0.000 NA
ATOM      9  C   UNL     1       1.605   8.931  19.157  0.00  0.00    +0.000 A 
ENDROOT
BRANCH   1  13
ATOM     10  C   UNL     1      -0.567  13.614  18.403  0.00  0.00    +0.000 A 
ATOM     11  C   UNL     1       0.564  13.533  19.212  0.00  0.00    +0.000 A 
ATOM     12  C   UNL     1       1.003  12.290  19.683  0.00  0.00    +0.000 A 
ATOM     13  C   UNL     1       0.320  11.113  19.343  0.00  0.00    +0.000 A 
ATOM     14  C   UNL     1      -0.820  11.212  18.534  0.00  0.00    +0.000 A 
ATOM     15  C   UNL     1      -1.260  12.454  18.066  0.00  0.00    +0.000 A 
ENDBRANCH   1  13
BRANCH   6  16
ATOM     16  C   UNL     1       4.386   5.799  18.084  0.00  0.00    +0.000 C 
BRANCH  16  17
ATOM     17  N   UNL     1       3.854   4.852  17.110  0.00  0.00    +0.000 NA
ATOM     18  C   UNL     1       4.883   3.931  16.606  0.00  0.00    +0.000 C 
ATOM     19  C   UNL     1       4.012   2.735  16.975  0.00  0.00    +0.000 C 
ATOM     20  C   UNL     1       3.009   3.740  17.579  0.00  0.00    +0.000 C 
BRANCH  20  21
ATOM     21  C   UNL     1       2.570   3.546  19.106  0.00  0.00    +0.000 A 
ATOM     22  C   UNL     1       3.425   3.058  20.118  0.00  0.00    +0.000 A 
ATOM     23  C   UNL     1       2.934   2.543  21.328  0.00  0.00    +0.000 A 
ATOM     24  C   UNL     1       1.567   2.536  21.585  0.00  0.00    +0.000 A 
ATOM     25  C   UNL     1       0.701   3.097  20.659  0.00  0.00    +0.000 A 
ATOM     26  C   UNL     1       1.198   3.601  19.452  0.00  0.00    +0.000 A 
ENDBRANCH  20  21
ENDBRANCH  16  17
ENDBRANCH   6  16
TORSDOF 4
ENDMDL
MODEL 5
REMARK VINA RESULT:      -7.6      1.757      3.347
REMARK  Name = 
REMARK  4 active torsions:
REMARK  status: ('A' for Active; 'I' for Inactive)
REMARK    1  A    between atoms: C_4  and  C_5
REMARK    2  A    between atoms: C_10  and  C_11
REMARK    3  A    between atoms: C_11  and  N_12
REMARK    4  A    between atoms: C_15  and  C_16
REMARK                            x       y       z     vdW  Elec       q    Type
REMARK                         _______ _______ _______ _____ _____    ______ ____
ROOT
ATOM      1  C   UNL     1       0.587  10.506  20.683  0.00  0.00    +0.000 A 
ATOM      2  C   UNL     1       0.638   9.839  21.927  0.00  0.00    +0.000 A 
ATOM      3  N   UNL     1       1.140   8.607  21.846  0.00  0.00    +0.000 NA
ATOM      4  N   UNL     1       1.459   8.459  20.537  0.00  0.00    +0.000 N 
ATOM      5  C   UNL     1       2.093   7.370  19.943  0.00  0.00    +0.000 A 
ATOM      6  C   UNL     1       2.406   7.369  18.636  0.00  0.00    +0.000 A 
ATOM      7  C   UNL     1       1.945   8.599  17.913  0.00  0.00    +0.000 A 
ATOM      8  N   UNL     1       1.343   9.635  18.430  0.00  0.00    +0.000 NA
ATOM      9  C   UNL     1       1.111   9.589  19.783  0.00  0.00    +0.000 A 
ENDROOT
BRANCH   1  13
ATOM     10  C   UNL     1      -0.764  14.455  19.766  0.00  0.00    +0.000 A 
ATOM     11  C   UNL     1      -1.683  13.448  20.049  0.00  0.00    +0.000 A 
ATOM     12  C   UNL     1      -1.239  12.155  20.346  0.00  0.00    +0.000 A 
ATOM     13  C   UNL     1       0.131  11.856  20.371  0.00  0.00    +0.000 A 
ATOM     14  C   UNL     1       1.043  12.879  20.077  0.00  0.00    +0.000 A 
ATOM     15  C   UNL     1       0.599  14.171  19.778  0.00  0.00    +0.000 A 
ENDBRANCH   1  13
BRANCH   6  16
ATOM     16  C   UNL     1       3.202   6.300  17.911  0.00  0.00    +0.000 C 
BRANCH  16  17
ATOM     17  N   UNL     1       2.898   4.965  18.416  0.00  0.00    +0.000 NA
ATOM     18  C   UNL     1       1.726   4.372  17.755  0.00  0.00    +0.000 C 
ATOM     19  C   UNL     1       2.536   3.128  17.407  0.00  0.00    +0.000 C 
ATOM     20  C   UNL     1       3.760   3.837  18.025  0.00  0.00    +0.000 C 
BRANCH  20  21
ATOM     21  C   UNL     1       5.074   3.998  17.127  0.00  0.00    +0.000 A 
ATOM     22  C   UNL     1       6.333   4.390  17.632  0.00  0.00    +0.000 A 
ATOM     23  C   UNL     1       7.350   4.887  16.803  0.00  0.00    +0.000 A 
ATOM     24  C   UNL     1       7.157   4.973  15.429  0.00  0.00    +0.000 A 
ATOM     25  C   UNL     1       5.971   4.507  14.881  0.00  0.00    +0.000 A 
ATOM     26  C   UNL     1       4.959   4.020  15.716  0.00  0.00    +0.000 A 
ENDBRANCH  20  21
ENDBRANCH  16  17
ENDBRANCH   6  16
TORSDOF 4
ENDMDL
MODEL 6
REMARK VINA RESULT:      -7.5      1.898      3.985
REMARK  Name = 
REMARK  4 active torsions:
REMARK  status: ('A' for Active; 'I' for Inactive)
REMARK    1  A    between atoms: C_4  and  C_5
REMARK    2  A    between atoms: C_10  and  C_11
REMARK    3  A    between atoms: C_11  and  N_12
REMARK    4  A    between atoms: C_15  and  C_16
REMARK                            x       y       z     vdW  Elec       q    Type
REMARK                         _______ _______ _______ _____ _____    ______ ____
ROOT
ATOM      1  C   UNL     1       0.944  10.071  19.794  0.00  0.00    +0.000 A 
ATOM      2  C   UNL     1       1.303  10.702  18.582  0.00  0.00    +0.000 A 
ATOM      3  N   UNL     1       1.962   9.902  17.744  0.00  0.00    +0.000 NA
ATOM      4  N   UNL     1       2.017   8.710  18.389  0.00  0.00    +0.000 N 
ATOM      5  C   UNL     1       2.536   7.513  17.902  0.00  0.00    +0.000 A 
ATOM      6  C   UNL     1       2.480   6.381  18.624  0.00  0.00    +0.000 A 
ATOM      7  C   UNL     1       1.881   6.572  19.985  0.00  0.00    +0.000 A 
ATOM      8  N   UNL     1       1.392   7.676  20.480  0.00  0.00    +0.000 NA
ATOM      9  C   UNL     1       1.430   8.778  19.661  0.00  0.00    +0.000 A 
ENDROOT
BRANCH   1  13
ATOM     10  C   UNL     1      -1.212  11.641  23.132  0.00  0.00    +0.000 A 
ATOM     11  C   UNL     1      -0.846  12.475  22.079  0.00  0.00    +0.000 A 
ATOM     12  C   UNL     1      -0.137  11.960  20.988  0.00  0.00    +0.000 A 
ATOM     13  C   UNL     1       0.207  10.601  20.935  0.00  0.00    +0.000 A 
ATOM     14  C   UNL     1      -0.163   9.776  22.006  0.00  0.00    +0.000 A 
ATOM     15  C   UNL     1      -0.869  10.292  23.096  0.00  0.00    +0.000 A 
ENDBRANCH   1  13
BRANCH   6  16
ATOM     16  C   UNL     1       2.897   5.001  18.150  0.00  0.00    +0.000 C 
BRANCH  16  17
ATOM     17  N   UNL     1       3.288   4.144  19.265  0.00  0.00    +0.000 NA
ATOM     18  C   UNL     1       3.048   2.720  18.986  0.00  0.00    +0.000 C 
ATOM     19  C   UNL     1       4.495   2.394  19.338  0.00  0.00    +0.000 C 
ATOM     20  C   UNL     1       4.719   3.910  19.522  0.00  0.00    +0.000 C 
BRANCH  20  21
ATOM     21  C   UNL     1       5.892   4.609  18.688  0.00  0.00    +0.000 A 
ATOM     22  C   UNL     1       6.795   5.550  19.230  0.00  0.00    +0.000 A 
ATOM     23  C   UNL     1       7.548   6.416  18.421  0.00  0.00    +0.000 A 
ATOM     24  C   UNL     1       7.453   6.344  17.036  0.00  0.00    +0.000 A 
ATOM     25  C   UNL     1       6.652   5.368  16.462  0.00  0.00    +0.000 A 
ATOM     26  C   UNL     1       5.899   4.513  17.275  0.00  0.00    +0.000 A 
ENDBRANCH  20  21
ENDBRANCH  16  17
ENDBRANCH   6  16
TORSDOF 4
ENDMDL
MODEL 7
REMARK VINA RESULT:      -7.5      1.824      3.886
REMARK  Name = 
REMARK  4 active torsions:
REMARK  status: ('A' for Active; 'I' for Inactive)
REMARK    1  A    between atoms: C_4  and  C_5
REMARK    2  A    between atoms: C_10  and  C_11
REMARK    3  A    between atoms: C_11  and  N_12
REMARK    4  A    between atoms: C_15  and  C_16
REMARK                            x       y       z     vdW  Elec       q    Type
REMARK                         _______ _______ _______ _____ _____    ______ ____
ROOT
ATOM      1  C   UNL     1       0.941  10.399  19.807  0.00  0.00    +0.000 A 
ATOM      2  C   UNL     1       1.327  10.853  18.526  0.00  0.00    +0.000 A 
ATOM      3  N   UNL     1       1.910   9.911  17.785  0.00  0.00    +0.000 NA
ATOM      4  N   UNL     1       1.885   8.803  18.568  0.00  0.00    +0.000 N 
ATOM      5  C   UNL     1       2.305   7.521  18.223  0.00  0.00    +0.000 A 
ATOM      6  C   UNL     1       2.176   6.490  19.076  0.00  0.00    +0.000 A 
ATOM      7  C   UNL     1       1.614   6.886  20.408  0.00  0.00    +0.000 A 
ATOM      8  N   UNL     1       1.218   8.075  20.771  0.00  0.00    +0.000 NA
ATOM      9  C   UNL     1       1.326   9.066  19.826  0.00  0.00    +0.000 A 
ENDROOT
BRANCH   1  13
ATOM     10  C   UNL     1      -1.054  12.485  22.958  0.00  0.00    +0.000 A 
ATOM     11  C   UNL     1      -1.146  11.099  22.868  0.00  0.00    +0.000 A 
ATOM     12  C   UNL     1      -0.494  10.418  21.834  0.00  0.00    +0.000 A 
ATOM     13  C   UNL     1       0.263  11.115  20.881  0.00  0.00    +0.000 A 
ATOM     14  C   UNL     1       0.340  12.511  20.982  0.00  0.00    +0.000 A 
ATOM     15  C   UNL     1      -0.313  13.192  22.014  0.00  0.00    +0.000 A 
ENDBRANCH   1  13
BRANCH   6  16
ATOM     16  C   UNL     1       2.480   5.035  18.767  0.00  0.00    +0.000 C 
BRANCH  16  17
ATOM     17  N   UNL     1       3.440   4.473  19.712  0.00  0.00    +0.000 NA
ATOM     18  C   UNL     1       3.192   3.049  19.980  0.00  0.00    +0.000 C 
ATOM     19  C   UNL     1       4.637   2.717  19.625  0.00  0.00    +0.000 C 
ATOM     20  C   UNL     1       4.817   4.206  19.261  0.00  0.00    +0.000 C 
BRANCH  20  21
ATOM     21  C   UNL     1       5.354   4.569  17.798  0.00  0.00    +0.000 A 
ATOM     22  C   UNL     1       5.080   3.804  16.643  0.00  0.00    +0.000 A 
ATOM     23  C   UNL     1       5.850   3.912  15.475  0.00  0.00    +0.000 A 
ATOM     24  C   UNL     1       6.900   4.820  15.406  0.00  0.00    +0.000 A 
ATOM     25  C   UNL     1       7.140   5.660  16.484  0.00  0.00    +0.000 A 
ATOM     26  C   UNL     1       6.373   5.541  17.648  0.00  0.00    +0.000 A 
ENDBRANCH  20  21
ENDBRANCH  16  17
ENDBRANCH   6  16
TORSDOF 4
ENDMDL
MODEL 8
REMARK VINA RESULT:      -7.5      2.013      7.995
REMARK  Name = 
REMARK  4 active torsions:
REMARK  status: ('A' for Active; 'I' for Inactive)
REMARK    1  A    between atoms: C_4  and  C_5
REMARK    2  A    between atoms: C_10  and  C_11
REMARK    3  A    between atoms: C_11  and  N_12
REMARK    4  A    between atoms: C_15  and  C_16
REMARK                            x       y       z     vdW  Elec       q    Type
REMARK                         _______ _______ _______ _____ _____    ______ ____
ROOT
ATOM      1  C   UNL     1       2.972   6.567  18.652  0.00  0.00    +0.000 A 
ATOM      2  C   UNL     1       2.505   6.126  19.910  0.00  0.00    +0.000 A 
ATOM      3  N   UNL     1       1.792   7.045  20.562  0.00  0.00    +0.000 NA
ATOM      4  N   UNL     1       1.755   8.104  19.716  0.00  0.00    +0.000 N 
ATOM      5  C   UNL     1       1.062   9.299  19.894  0.00  0.00    +0.000 A 
ATOM      6  C   UNL     1       1.060  10.255  18.950  0.00  0.00    +0.000 A 
ATOM      7  C   UNL     1       1.915   9.921  17.764  0.00  0.00    +0.000 A 
ATOM      8  N   UNL     1       2.584   8.819  17.563  0.00  0.00    +0.000 NA
ATOM      9  C   UNL     1       2.489   7.864  18.546  0.00  0.00    +0.000 A 
ENDROOT
BRANCH   1  13
ATOM     10  C   UNL     1       5.260   4.462  15.720  0.00  0.00    +0.000 A 
ATOM     11  C   UNL     1       4.346   3.779  16.519  0.00  0.00    +0.000 A 
ATOM     12  C   UNL     1       3.600   4.470  17.480  0.00  0.00    +0.000 A 
ATOM     13  C   UNL     1       3.754   5.854  17.649  0.00  0.00    +0.000 A 
ATOM     14  C   UNL     1       4.683   6.525  16.842  0.00  0.00    +0.000 A 
ATOM     15  C   UNL     1       5.430   5.835  15.883  0.00  0.00    +0.000 A 
ENDBRANCH   1  13
BRANCH   6  16
ATOM     16  C   UNL     1       0.247  11.536  18.979  0.00  0.00    +0.000 C 
BRANCH  16  17
ATOM     17  N   UNL     1      -0.815  11.477  19.978  0.00  0.00    +0.000 NA
ATOM     18  C   UNL     1      -1.092  12.790  20.578  0.00  0.00    +0.000 C 
ATOM     19  C   UNL     1      -2.570  12.649  20.237  0.00  0.00    +0.000 C 
ATOM     20  C   UNL     1      -2.211  11.323  19.533  0.00  0.00    +0.000 C 
BRANCH  20  21
ATOM     21  C   UNL     1      -2.635  11.140  18.001  0.00  0.00    +0.000 A 
ATOM     22  C   UNL     1      -3.801  11.696  17.432  0.00  0.00    +0.000 A 
ATOM     23  C   UNL     1      -4.345  11.222  16.228  0.00  0.00    +0.000 A 
ATOM     24  C   UNL     1      -3.716  10.198  15.527  0.00  0.00    +0.000 A 
ATOM     25  C   UNL     1      -2.515   9.692  16.001  0.00  0.00    +0.000 A 
ATOM     26  C   UNL     1      -1.984  10.165  17.207  0.00  0.00    +0.000 A 
ENDBRANCH  20  21
ENDBRANCH  16  17
ENDBRANCH   6  16
TORSDOF 4
ENDMDL
MODEL 9
REMARK VINA RESULT:      -7.5      3.398      7.430
REMARK  Name = 
REMARK  4 active torsions:
REMARK  status: ('A' for Active; 'I' for Inactive)
REMARK    1  A    between atoms: C_4  and  C_5
REMARK    2  A    between atoms: C_10  and  C_11
REMARK    3  A    between atoms: C_11  and  N_12
REMARK    4  A    between atoms: C_15  and  C_16
REMARK                            x       y       z     vdW  Elec       q    Type
REMARK                         _______ _______ _______ _____ _____    ______ ____
ROOT
ATOM      1  C   UNL     1       6.605   5.242  15.783  0.00  0.00    +0.000 A 
ATOM      2  C   UNL     1       7.251   6.306  16.452  0.00  0.00    +0.000 A 
ATOM      3  N   UNL     1       6.912   6.406  17.737  0.00  0.00    +0.000 NA
ATOM      4  N   UNL     1       6.053   5.376  17.940  0.00  0.00    +0.000 N 
ATOM      5  C   UNL     1       5.470   4.992  19.145  0.00  0.00    +0.000 A 
ATOM      6  C   UNL     1       4.674   3.912  19.224  0.00  0.00    +0.000 A 
ATOM      7  C   UNL     1       4.444   3.244  17.902  0.00  0.00    +0.000 A 
ATOM      8  N   UNL     1       4.964   3.577  16.753  0.00  0.00    +0.000 NA
ATOM      9  C   UNL     1       5.815   4.655  16.761  0.00  0.00    +0.000 A 
ENDROOT
BRANCH   1  13
ATOM     10  C   UNL     1       6.983   3.968  11.721  0.00  0.00    +0.000 A 
ATOM     11  C   UNL     1       7.817   4.963  12.224  0.00  0.00    +0.000 A 
ATOM     12  C   UNL     1       7.690   5.381  13.553  0.00  0.00    +0.000 A 
ATOM     13  C   UNL     1       6.731   4.803  14.398  0.00  0.00    +0.000 A 
ATOM     14  C   UNL     1       5.895   3.807  13.875  0.00  0.00    +0.000 A 
ATOM     15  C   UNL     1       6.020   3.391  12.546  0.00  0.00    +0.000 A 
ENDBRANCH   1  13
BRANCH   6  16
ATOM     16  C   UNL     1       4.088   3.329  20.497  0.00  0.00    +0.000 C 
BRANCH  16  17
ATOM     17  N   UNL     1       2.848   2.605  20.237  0.00  0.00    +0.000 NA
ATOM     18  C   UNL     1       2.163   2.207  21.475  0.00  0.00    +0.000 C 
ATOM     19  C   UNL     1       0.878   2.872  20.993  0.00  0.00    +0.000 C 
ATOM     20  C   UNL     1       1.670   3.350  19.758  0.00  0.00    +0.000 C 
BRANCH  20  21
ATOM     21  C   UNL     1       1.688   4.915  19.429  0.00  0.00    +0.000 A 
ATOM     22  C   UNL     1       1.953   5.451  18.149  0.00  0.00    +0.000 A 
ATOM     23  C   UNL     1       2.336   6.788  17.963  0.00  0.00    +0.000 A 
ATOM     24  C   UNL     1       2.429   7.650  19.050  0.00  0.00    +0.000 A 
ATOM     25  C   UNL     1       2.082   7.190  20.311  0.00  0.00    +0.000 A 
ATOM     26  C   UNL     1       1.709   5.853  20.490  0.00  0.00    +0.000 A 
ENDBRANCH  20  21
ENDBRANCH  16  17
ENDBRANCH   6  16
TORSDOF 4
ENDMDL
