MODEL 1
REMARK VINA RESULT:      -8.9      0.000      0.000
REMARK  Name = 
REMARK  6 active torsions:
REMARK  status: ('A' for Active; 'I' for Inactive)
REMARK    1  A    between atoms: C_1  and  O_2
REMARK    2  A    between atoms: O_2  and  C_3
REMARK    3  A    between atoms: C_7  and  C_8
REMARK    4  A    between atoms: C_10  and  C_11
REMARK    5  A    between atoms: C_10  and  O_12
REMARK    6  A    between atoms: C_23  and  O_24
REMARK                            x       y       z     vdW  Elec       q    Type
REMARK                         _______ _______ _______ _____ _____    ______ ____
ROOT
ATOM      1  C   UNL     1       2.767   6.005  19.851  0.00  0.00    +0.000 C 
ATOM      2  C   UNL     1       1.442   5.262  20.075  0.00  0.00    +0.000 C 
ATOM      3  C   UNL     1       1.596   3.753  20.184  0.00  0.00    +0.000 C 
ATOM      4  C   UNL     1       2.201   3.298  21.511  0.00  0.00    +0.000 C 
ATOM      5  O   UNL     1       2.315   3.189  19.086  0.00  0.00    +0.000 OA
ATOM      6  C   UNL     1       3.331   3.920  18.529  0.00  0.00    +0.000 A 
ATOM      7  C   UNL     1       4.048   3.272  17.518  0.00  0.00    +0.000 A 
ATOM      8  C   UNL     1       5.041   3.977  16.873  0.00  0.00    +0.000 A 
ATOM      9  C   UNL     1       5.389   5.250  17.258  0.00  0.00    +0.000 A 
ATOM     10  C   UNL     1       4.736   5.901  18.279  0.00  0.00    +0.000 A 
ATOM     11  C   UNL     1       3.633   5.254  18.873  0.00  0.00    +0.000 A 
ATOM     12  O   UNL     1       6.361   5.783  16.472  0.00  0.00    +0.000 OA
ATOM     13  C   UNL     1       6.412   4.791  15.426  0.00  0.00    +0.000 C 
ATOM     14  O   UNL     1       5.754   3.560  15.793  0.00  0.00    +0.000 OA
ENDROOT
BRANCH   1  19
ATOM     15  C   UNL     1       0.854   9.262  19.951  0.00  0.00    +0.000 A 
ATOM     16  C   UNL     1       0.865   9.659  18.615  0.00  0.00    +0.000 A 
ATOM     17  C   UNL     1       1.640   8.963  17.684  0.00  0.00    +0.000 A 
ATOM     18  C   UNL     1       2.347   7.828  18.082  0.00  0.00    +0.000 A 
ATOM     19  C   UNL     1       2.348   7.418  19.430  0.00  0.00    +0.000 A 
ATOM     20  C   UNL     1       1.677   8.217  20.362  0.00  0.00    +0.000 A 
BRANCH  15  22
ATOM     21  C   UNL     1      -0.833  10.891  20.073  0.00  0.00    +0.000 C 
ATOM     22  O   UNL     1      -0.019   9.943  20.768  0.00  0.00    +0.000 OA
ENDBRANCH  15  22
BRANCH  20  23
ATOM     23  O   UNL     1       1.828   7.932  21.692  0.00  0.00    +0.000 OA
ATOM     24  H   UNL     1       1.180   8.495  22.152  0.00  0.00    +0.000 HD
ENDBRANCH  20  23
ENDBRANCH   1  19
BRANCH   3  25
ATOM     25  O   UNL     1       0.272   3.187  20.187  0.00  0.00    +0.000 OA
ATOM     26  H   UNL     1      -0.313   3.793  19.703  0.00  0.00    +0.000 HD
ENDBRANCH   3  25
TORSDOF 4
ENDMDL
MODEL 2
REMARK VINA RESULT:      -8.6      1.881      5.411
REMARK  Name = 
REMARK  6 active torsions:
REMARK  status: ('A' for Active; 'I' for Inactive)
REMARK    1  A    between atoms: C_1  and  O_2
REMARK    2  A    between atoms: O_2  and  C_3
REMARK    3  A    between atoms: C_7  and  C_8
REMARK    4  A    between atoms: C_10  and  C_11
REMARK    5  A    between atoms: C_10  and  O_12
REMARK    6  A    between atoms: C_23  and  O_24
REMARK                            x       y       z     vdW  Elec       q    Type
REMARK                         _______ _______ _______ _____ _____    ______ ____
ROOT
ATOM      1  C   UNL     1       3.350   4.164  18.502  0.00  0.00    +0.000 C 
ATOM      2  C   UNL     1       3.565   3.403  19.819  0.00  0.00    +0.000 C 
ATOM      3  C   UNL     1       2.407   3.529  20.796  0.00  0.00    +0.000 C 
ATOM      4  C   UNL     1       1.182   2.709  20.395  0.00  0.00    +0.000 C 
ATOM      5  O   UNL     1       2.041   4.887  21.048  0.00  0.00    +0.000 OA
ATOM      6  C   UNL     1       2.144   5.790  20.022  0.00  0.00    +0.000 A 
ATOM      7  C   UNL     1       1.686   7.079  20.314  0.00  0.00    +0.000 A 
ATOM      8  C   UNL     1       1.823   8.050  19.345  0.00  0.00    +0.000 A 
ATOM      9  C   UNL     1       2.311   7.758  18.095  0.00  0.00    +0.000 A 
ATOM     10  C   UNL     1       2.727   6.491  17.758  0.00  0.00    +0.000 A 
ATOM     11  C   UNL     1       2.719   5.506  18.766  0.00  0.00    +0.000 A 
ATOM     12  O   UNL     1       2.403   8.859  17.303  0.00  0.00    +0.000 OA
ATOM     13  C   UNL     1       2.134   9.891  18.274  0.00  0.00    +0.000 C 
ATOM     14  O   UNL     1       1.551   9.375  19.490  0.00  0.00    +0.000 OA
ENDROOT
BRANCH   1  19
ATOM     15  C   UNL     1       6.825   5.424  17.715  0.00  0.00    +0.000 A 
ATOM     16  C   UNL     1       7.025   4.965  16.414  0.00  0.00    +0.000 A 
ATOM     17  C   UNL     1       6.103   4.092  15.831  0.00  0.00    +0.000 A 
ATOM     18  C   UNL     1       4.948   3.738  16.528  0.00  0.00    +0.000 A 
ATOM     19  C   UNL     1       4.735   4.191  17.845  0.00  0.00    +0.000 A 
ATOM     20  C   UNL     1       5.744   4.949  18.452  0.00  0.00    +0.000 A 
BRANCH  15  22
ATOM     21  C   UNL     1       7.569   7.646  17.560  0.00  0.00    +0.000 C 
ATOM     22  O   UNL     1       7.730   6.359  18.163  0.00  0.00    +0.000 OA
ENDBRANCH  15  22
BRANCH  20  23
ATOM     23  O   UNL     1       5.630   5.233  19.785  0.00  0.00    +0.000 OA
ATOM     24  H   UNL     1       5.960   4.442  20.247  0.00  0.00    +0.000 HD
ENDBRANCH  20  23
ENDBRANCH   1  19
BRANCH   3  25
ATOM     25  O   UNL     1       2.832   2.944  22.041  0.00  0.00    +0.000 OA
ATOM     26  H   UNL     1       2.468   3.482  22.763  0.00  0.00    +0.000 HD
ENDBRANCH   3  25
TORSDOF 4
ENDMDL
MODEL 3
REMARK VINA RESULT:      -8.4      1.639      6.029
REMARK  Name = 
REMARK  6 active torsions:
REMARK  status: ('A' for Active; 'I' for Inactive)
REMARK    1  A    between atoms: C_1  and  O_2
REMARK    2  A    between atoms: O_2  and  C_3
REMARK    3  A    between atoms: C_7  and  C_8
REMARK    4  A    between atoms: C_10  and  C_11
REMARK    5  A    between atoms: C_10  and  O_12
REMARK    6  A    between atoms: C_23  and  O_24
REMARK                            x       y       z     vdW  Elec       q    Type
REMARK                         _______ _______ _______ _____ _____    ______ ____
ROOT
ATOM      1  C   UNL     1       3.364   5.090  18.736  0.00  0.00    +0.000 C 
ATOM      2  C   UNL     1       3.444   4.280  20.039  0.00  0.00    +0.000 C 
ATOM      3  C   UNL     1       2.149   4.275  20.837  0.00  0.00    +0.000 C 
ATOM      4  C   UNL     1       1.063   3.390  20.226  0.00  0.00    +0.000 C 
ATOM      5  O   UNL     1       1.645   5.588  21.085  0.00  0.00    +0.000 OA
ATOM      6  C   UNL     1       1.827   6.546  20.123  0.00  0.00    +0.000 A 
ATOM      7  C   UNL     1       1.232   7.783  20.393  0.00  0.00    +0.000 A 
ATOM      8  C   UNL     1       1.432   8.810  19.495  0.00  0.00    +0.000 A 
ATOM      9  C   UNL     1       2.119   8.617  18.320  0.00  0.00    +0.000 A 
ATOM     10  C   UNL     1       2.677   7.401  18.000  0.00  0.00    +0.000 A 
ATOM     11  C   UNL     1       2.598   6.368  18.956  0.00  0.00    +0.000 A 
ATOM     12  O   UNL     1       2.239   9.760  17.595  0.00  0.00    +0.000 OA
ATOM     13  C   UNL     1       1.752  10.719  18.555  0.00  0.00    +0.000 C 
ATOM     14  O   UNL     1       1.040  10.103  19.649  0.00  0.00    +0.000 OA
ENDROOT
BRANCH   1  19
ATOM     15  C   UNL     1       6.485   4.489  16.692  0.00  0.00    +0.000 A 
ATOM     16  C   UNL     1       7.502   4.752  17.609  0.00  0.00    +0.000 A 
ATOM     17  C   UNL     1       7.193   5.295  18.858  0.00  0.00    +0.000 A 
ATOM     18  C   UNL     1       5.860   5.506  19.212  0.00  0.00    +0.000 A 
ATOM     19  C   UNL     1       4.823   5.248  18.294  0.00  0.00    +0.000 A 
ATOM     20  C   UNL     1       5.174   4.839  17.002  0.00  0.00    +0.000 A 
BRANCH  15  22
ATOM     21  C   UNL     1       7.130   4.757  14.450  0.00  0.00    +0.000 C 
ATOM     22  O   UNL     1       6.877   3.858  15.533  0.00  0.00    +0.000 OA
ENDBRANCH  15  22
BRANCH  20  23
ATOM     23  O   UNL     1       4.191   4.767  16.053  0.00  0.00    +0.000 OA
ATOM     24  H   UNL     1       3.875   5.681  15.940  0.00  0.00    +0.000 HD
ENDBRANCH  20  23
ENDBRANCH   1  19
BRANCH   3  25
ATOM     25  O   UNL     1       2.432   3.659  22.107  0.00  0.00    +0.000 OA
ATOM     26  H   UNL     1       1.600   3.603  22.604  0.00  0.00    +0.000 HD
ENDBRANCH   3  25
TORSDOF 4
ENDMDL
MODEL 4
REMARK VINA RESULT:      -8.4      3.288      5.492
REMARK  Name = 
REMARK  6 active torsions:
REMARK  status: ('A' for Active; 'I' for Inactive)
REMARK    1  A    between atoms: C_1  and  O_2
REMARK    2  A    between atoms: O_2  and  C_3
REMARK    3  A    between atoms: C_7  and  C_8
REMARK    4  A    between atoms: C_10  and  C_11
REMARK    5  A    between atoms: C_10  and  O_12
REMARK    6  A    between atoms: C_23  and  O_24
REMARK                            x       y       z     vdW  Elec       q    Type
REMARK                         _______ _______ _______ _____ _____    ______ ____
ROOT
ATOM      1  C   UNL     1       4.908   4.904  17.339  0.00  0.00    +0.000 C 
ATOM      2  C   UNL     1       5.992   4.765  18.418  0.00  0.00    +0.000 C 
ATOM      3  C   UNL     1       7.316   5.412  18.044  0.00  0.00    +0.000 C 
ATOM      4  C   UNL     1       7.288   6.938  18.116  0.00  0.00    +0.000 C 
ATOM      5  O   UNL     1       7.806   4.980  16.774  0.00  0.00    +0.000 OA
ATOM      6  C   UNL     1       6.896   4.710  15.785  0.00  0.00    +0.000 A 
ATOM      7  C   UNL     1       7.448   4.377  14.543  0.00  0.00    +0.000 A 
ATOM      8  C   UNL     1       6.587   4.032  13.523  0.00  0.00    +0.000 A 
ATOM      9  C   UNL     1       5.224   4.092  13.678  0.00  0.00    +0.000 A 
ATOM     10  C   UNL     1       4.647   4.461  14.871  0.00  0.00    +0.000 A 
ATOM     11  C   UNL     1       5.498   4.696  15.969  0.00  0.00    +0.000 A 
ATOM     12  O   UNL     1       4.556   3.675  12.570  0.00  0.00    +0.000 OA
ATOM     13  C   UNL     1       5.652   3.138  11.803  0.00  0.00    +0.000 C 
ATOM     14  O   UNL     1       6.940   3.564  12.295  0.00  0.00    +0.000 OA
ENDROOT
BRANCH   1  19
ATOM     15  C   UNL     1       2.081   3.478  19.401  0.00  0.00    +0.000 A 
ATOM     16  C   UNL     1       2.232   2.105  19.212  0.00  0.00    +0.000 A 
ATOM     17  C   UNL     1       3.151   1.625  18.275  0.00  0.00    +0.000 A 
ATOM     18  C   UNL     1       3.964   2.521  17.581  0.00  0.00    +0.000 A 
ATOM     19  C   UNL     1       3.819   3.911  17.759  0.00  0.00    +0.000 A 
ATOM     20  C   UNL     1       2.794   4.364  18.599  0.00  0.00    +0.000 A 
BRANCH  15  22
ATOM     21  C   UNL     1       1.366   3.055  21.598  0.00  0.00    +0.000 C 
ATOM     22  O   UNL     1       1.230   3.849  20.417  0.00  0.00    +0.000 OA
ENDBRANCH  15  22
BRANCH  20  23
ATOM     23  O   UNL     1       2.526   5.705  18.632  0.00  0.00    +0.000 OA
ATOM     24  H   UNL     1       2.228   5.931  17.732  0.00  0.00    +0.000 HD
ENDBRANCH  20  23
ENDBRANCH   1  19
BRANCH   3  25
ATOM     25  O   UNL     1       8.277   5.030  19.046  0.00  0.00    +0.000 OA
ATOM     26  H   UNL     1       7.821   4.480  19.703  0.00  0.00    +0.000 HD
ENDBRANCH   3  25
TORSDOF 4
ENDMDL
MODEL 5
REMARK VINA RESULT:      -7.4      1.255      1.323
REMARK  Name = 
REMARK  6 active torsions:
REMARK  status: ('A' for Active; 'I' for Inactive)
REMARK    1  A    between atoms: C_1  and  O_2
REMARK    2  A    between atoms: O_2  and  C_3
REMARK    3  A    between atoms: C_7  and  C_8
REMARK    4  A    between atoms: C_10  and  C_11
REMARK    5  A    between atoms: C_10  and  O_12
REMARK    6  A    between atoms: C_23  and  O_24
REMARK                            x       y       z     vdW  Elec       q    Type
REMARK                         _______ _______ _______ _____ _____    ______ ____
ROOT
ATOM      1  C   UNL     1       2.428   5.811  19.776  0.00  0.00    +0.000 C 
ATOM      2  C   UNL     1       1.249   5.053  19.147  0.00  0.00    +0.000 C 
ATOM      3  C   UNL     1       1.446   3.546  19.097  0.00  0.00    +0.000 C 
ATOM      4  C   UNL     1       1.297   2.868  20.458  0.00  0.00    +0.000 C 
ATOM      5  O   UNL     1       2.679   3.168  18.481  0.00  0.00    +0.000 OA
ATOM      6  C   UNL     1       3.772   3.975  18.667  0.00  0.00    +0.000 A 
ATOM      7  C   UNL     1       4.964   3.500  18.111  0.00  0.00    +0.000 A 
ATOM      8  C   UNL     1       6.086   4.295  18.206  0.00  0.00    +0.000 A 
ATOM      9  C   UNL     1       6.073   5.481  18.900  0.00  0.00    +0.000 A 
ATOM     10  C   UNL     1       4.930   5.956  19.500  0.00  0.00    +0.000 A 
ATOM     11  C   UNL     1       3.737   5.228  19.311  0.00  0.00    +0.000 A 
ATOM     12  O   UNL     1       7.265   6.130  18.841  0.00  0.00    +0.000 OA
ATOM     13  C   UNL     1       7.940   5.329  17.851  0.00  0.00    +0.000 C 
ATOM     14  O   UNL     1       7.292   4.058  17.625  0.00  0.00    +0.000 OA
ENDROOT
BRANCH   1  19
ATOM     15  C   UNL     1       0.937   9.274  20.027  0.00  0.00    +0.000 A 
ATOM     16  C   UNL     1       0.967   9.713  18.704  0.00  0.00    +0.000 A 
ATOM     17  C   UNL     1       1.630   8.958  17.733  0.00  0.00    +0.000 A 
ATOM     18  C   UNL     1       2.198   7.732  18.077  0.00  0.00    +0.000 A 
ATOM     19  C   UNL     1       2.178   7.279  19.410  0.00  0.00    +0.000 A 
ATOM     20  C   UNL     1       1.632   8.122  20.384  0.00  0.00    +0.000 A 
BRANCH  15  22
ATOM     21  C   UNL     1       0.536  11.412  20.914  0.00  0.00    +0.000 C 
ATOM     22  O   UNL     1       0.173  10.029  20.888  0.00  0.00    +0.000 OA
ENDBRANCH  15  22
BRANCH  20  23
ATOM     23  O   UNL     1       1.775   7.775  21.700  0.00  0.00    +0.000 OA
ATOM     24  H   UNL     1       2.475   7.096  21.713  0.00  0.00    +0.000 HD
ENDBRANCH  20  23
ENDBRANCH   1  19
BRANCH   3  25
ATOM     25  O   UNL     1       0.371   3.000  18.311  0.00  0.00    +0.000 OA
ATOM     26  H   UNL     1       0.215   3.597  17.561  0.00  0.00    +0.000 HD
ENDBRANCH   3  25
TORSDOF 4
ENDMDL
MODEL 6
REMARK VINA RESULT:      -7.3      1.515      6.123
REMARK  Name = 
REMARK  6 active torsions:
REMARK  status: ('A' for Active; 'I' for Inactive)
REMARK    1  A    between atoms: C_1  and  O_2
REMARK    2  A    between atoms: O_2  and  C_3
REMARK    3  A    between atoms: C_7  and  C_8
REMARK    4  A    between atoms: C_10  and  C_11
REMARK    5  A    between atoms: C_10  and  O_12
REMARK    6  A    between atoms: C_23  and  O_24
REMARK                            x       y       z     vdW  Elec       q    Type
REMARK                         _______ _______ _______ _____ _____    ______ ____
ROOT
ATOM      1  C   UNL     1       3.696   4.905  17.883  0.00  0.00    +0.000 C 
ATOM      2  C   UNL     1       4.303   3.754  18.699  0.00  0.00    +0.000 C 
ATOM      3  C   UNL     1       3.331   3.121  19.682  0.00  0.00    +0.000 C 
ATOM      4  C   UNL     1       2.280   2.236  19.012  0.00  0.00    +0.000 C 
ATOM      5  O   UNL     1       2.707   4.077  20.540  0.00  0.00    +0.000 OA
ATOM      6  C   UNL     1       2.422   5.318  20.031  0.00  0.00    +0.000 A 
ATOM      7  C   UNL     1       1.733   6.173  20.897  0.00  0.00    +0.000 A 
ATOM      8  C   UNL     1       1.473   7.458  20.470  0.00  0.00    +0.000 A 
ATOM      9  C   UNL     1       1.795   7.875  19.201  0.00  0.00    +0.000 A 
ATOM     10  C   UNL     1       2.431   7.045  18.306  0.00  0.00    +0.000 A 
ATOM     11  C   UNL     1       2.824   5.769  18.757  0.00  0.00    +0.000 A 
ATOM     12  O   UNL     1       1.493   9.182  18.991  0.00  0.00    +0.000 OA
ATOM     13  C   UNL     1       1.160   9.583  20.336  0.00  0.00    +0.000 C 
ATOM     14  O   UNL     1       0.929   8.459  21.212  0.00  0.00    +0.000 OA
ENDROOT
BRANCH   1  19
ATOM     15  C   UNL     1       6.824   5.265  15.793  0.00  0.00    +0.000 A 
ATOM     16  C   UNL     1       7.508   6.289  16.447  0.00  0.00    +0.000 A 
ATOM     17  C   UNL     1       6.886   6.997  17.478  0.00  0.00    +0.000 A 
ATOM     18  C   UNL     1       5.608   6.630  17.898  0.00  0.00    +0.000 A 
ATOM     19  C   UNL     1       4.904   5.601  17.244  0.00  0.00    +0.000 A 
ATOM     20  C   UNL     1       5.497   5.006  16.124  0.00  0.00    +0.000 A 
BRANCH  15  22
ATOM     21  C   UNL     1       7.538   5.142  13.559  0.00  0.00    +0.000 C 
ATOM     22  O   UNL     1       7.554   4.559  14.864  0.00  0.00    +0.000 OA
ENDBRANCH  15  22
BRANCH  20  23
ATOM     23  O   UNL     1       4.748   4.141  15.374  0.00  0.00    +0.000 OA
ATOM     24  H   UNL     1       5.287   3.949  14.586  0.00  0.00    +0.000 HD
ENDBRANCH  20  23
ENDBRANCH   1  19
BRANCH   3  25
ATOM     25  O   UNL     1       4.086   2.211  20.504  0.00  0.00    +0.000 OA
ATOM     26  H   UNL     1       3.886   2.412  21.433  0.00  0.00    +0.000 HD
ENDBRANCH   3  25
TORSDOF 4
ENDMDL
MODEL 7
REMARK VINA RESULT:      -7.3      1.596      4.095
REMARK  Name = 
REMARK  6 active torsions:
REMARK  status: ('A' for Active; 'I' for Inactive)
REMARK    1  A    between atoms: C_1  and  O_2
REMARK    2  A    between atoms: O_2  and  C_3
REMARK    3  A    between atoms: C_7  and  C_8
REMARK    4  A    between atoms: C_10  and  C_11
REMARK    5  A    between atoms: C_10  and  O_12
REMARK    6  A    between atoms: C_23  and  O_24
REMARK                            x       y       z     vdW  Elec       q    Type
REMARK                         _______ _______ _______ _____ _____    ______ ____
ROOT
ATOM      1  C   UNL     1       3.773   6.466  17.291  0.00  0.00    +0.000 C 
ATOM      2  C   UNL     1       5.260   6.660  17.621  0.00  0.00    +0.000 C 
ATOM      3  C   UNL     1       6.137   5.488  17.209  0.00  0.00    +0.000 C 
ATOM      4  C   UNL     1       6.370   5.405  15.701  0.00  0.00    +0.000 C 
ATOM      5  O   UNL     1       5.664   4.238  17.712  0.00  0.00    +0.000 OA
ATOM      6  C   UNL     1       4.310   4.049  17.816  0.00  0.00    +0.000 A 
ATOM      7  C   UNL     1       3.916   2.773  18.232  0.00  0.00    +0.000 A 
ATOM      8  C   UNL     1       2.571   2.538  18.419  0.00  0.00    +0.000 A 
ATOM      9  C   UNL     1       1.625   3.490  18.125  0.00  0.00    +0.000 A 
ATOM     10  C   UNL     1       1.974   4.741  17.670  0.00  0.00    +0.000 A 
ATOM     11  C   UNL     1       3.346   5.053  17.590  0.00  0.00    +0.000 A 
ATOM     12  O   UNL     1       0.363   3.077  18.416  0.00  0.00    +0.000 OA
ATOM     13  C   UNL     1       0.656   1.858  19.129  0.00  0.00    +0.000 C 
ATOM     14  O   UNL     1       2.014   1.409  18.933  0.00  0.00    +0.000 OA
ENDROOT
BRANCH   1  19
ATOM     15  C   UNL     1       1.659   7.996  20.025  0.00  0.00    +0.000 A 
ATOM     16  C   UNL     1       1.116   9.115  19.396  0.00  0.00    +0.000 A 
ATOM     17  C   UNL     1       1.561   9.488  18.126  0.00  0.00    +0.000 A 
ATOM     18  C   UNL     1       2.497   8.697  17.460  0.00  0.00    +0.000 A 
ATOM     19  C   UNL     1       3.057   7.566  18.085  0.00  0.00    +0.000 A 
ATOM     20  C   UNL     1       2.696   7.299  19.411  0.00  0.00    +0.000 A 
BRANCH  15  22
ATOM     21  C   UNL     1       0.025   8.523  21.628  0.00  0.00    +0.000 C 
ATOM     22  O   UNL     1       1.084   7.649  21.226  0.00  0.00    +0.000 OA
ENDBRANCH  15  22
BRANCH  20  23
ATOM     23  O   UNL     1       3.372   6.319  20.084  0.00  0.00    +0.000 OA
ATOM     24  H   UNL     1       3.348   5.540  19.498  0.00  0.00    +0.000 HD
ENDBRANCH  20  23
ENDBRANCH   1  19
BRANCH   3  25
ATOM     25  O   UNL     1       7.448   5.721  17.757  0.00  0.00    +0.000 OA
ATOM     26  H   UNL     1       7.720   4.918  18.230  0.00  0.00    +0.000 HD
ENDBRANCH   3  25
TORSDOF 4
ENDMDL
MODEL 8
REMARK VINA RESULT:      -7.3      1.834      4.148
REMARK  Name = 
REMARK  6 active torsions:
REMARK  status: ('A' for Active; 'I' for Inactive)
REMARK    1  A    between atoms: C_1  and  O_2
REMARK    2  A    between atoms: O_2  and  C_3
REMARK    3  A    between atoms: C_7  and  C_8
REMARK    4  A    between atoms: C_10  and  C_11
REMARK    5  A    between atoms: C_10  and  O_12
REMARK    6  A    between atoms: C_23  and  O_24
REMARK                            x       y       z     vdW  Elec       q    Type
REMARK                         _______ _______ _______ _____ _____    ______ ____
ROOT
ATOM      1  C   UNL     1       2.794   6.970  17.705  0.00  0.00    +0.000 C 
ATOM      2  C   UNL     1       4.212   7.549  17.826  0.00  0.00    +0.000 C 
ATOM      3  C   UNL     1       5.269   6.742  17.089  0.00  0.00    +0.000 C 
ATOM      4  C   UNL     1       5.212   6.910  15.571  0.00  0.00    +0.000 C 
ATOM      5  O   UNL     1       5.255   5.358  17.441  0.00  0.00    +0.000 OA
ATOM      6  C   UNL     1       4.049   4.771  17.722  0.00  0.00    +0.000 A 
ATOM      7  C   UNL     1       4.099   3.395  17.972  0.00  0.00    +0.000 A 
ATOM      8  C   UNL     1       2.929   2.757  18.324  0.00  0.00    +0.000 A 
ATOM      9  C   UNL     1       1.725   3.419  18.349  0.00  0.00    +0.000 A 
ATOM     10  C   UNL     1       1.631   4.761  18.062  0.00  0.00    +0.000 A 
ATOM     11  C   UNL     1       2.827   5.468  17.823  0.00  0.00    +0.000 A 
ATOM     12  O   UNL     1       0.703   2.623  18.758  0.00  0.00    +0.000 OA
ATOM     13  C   UNL     1       1.444   1.468  19.200  0.00  0.00    +0.000 C 
ATOM     14  O   UNL     1       2.806   1.462  18.721  0.00  0.00    +0.000 OA
ENDROOT
BRANCH   1  19
ATOM     15  C   UNL     1       1.260   9.905  19.524  0.00  0.00    +0.000 A 
ATOM     16  C   UNL     1       1.195   9.446  20.838  0.00  0.00    +0.000 A 
ATOM     17  C   UNL     1       1.491   8.112  21.128  0.00  0.00    +0.000 A 
ATOM     18  C   UNL     1       1.919   7.260  20.109  0.00  0.00    +0.000 A 
ATOM     19  C   UNL     1       1.985   7.710  18.776  0.00  0.00    +0.000 A 
ATOM     20  C   UNL     1       1.547   9.010  18.497  0.00  0.00    +0.000 A 
BRANCH  15  22
ATOM     21  C   UNL     1       1.123  12.004  20.570  0.00  0.00    +0.000 C 
ATOM     22  O   UNL     1       1.053  11.255  19.353  0.00  0.00    +0.000 OA
ENDBRANCH  15  22
BRANCH  20  23
ATOM     23  O   UNL     1       1.431   9.390  17.188  0.00  0.00    +0.000 OA
ATOM     24  H   UNL     1       0.570   9.042  16.893  0.00  0.00    +0.000 HD
ENDBRANCH  20  23
ENDBRANCH   1  19
BRANCH   3  25
ATOM     25  O   UNL     1       6.552   7.282  17.456  0.00  0.00    +0.000 OA
ATOM     26  H   UNL     1       7.159   6.537  17.599  0.00  0.00    +0.000 HD
ENDBRANCH   3  25
TORSDOF 4
ENDMDL
MODEL 9
REMARK VINA RESULT:      -7.2      3.701      5.921
REMARK  Name = 
REMARK  6 active torsions:
REMARK  status: ('A' for Active; 'I' for Inactive)
REMARK    1  A    between atoms: C_1  and  O_2
REMARK    2  A    between atoms: O_2  and  C_3
REMARK    3  A    between atoms: C_7  and  C_8
REMARK    4  A    between atoms: C_10  and  C_11
REMARK    5  A    between atoms: C_10  and  O_12
REMARK    6  A    between atoms: C_23  and  O_24
REMARK                            x       y       z     vdW  Elec       q    Type
REMARK                         _______ _______ _______ _____ _____    ______ ____
ROOT
ATOM      1  C   UNL     1       4.959   5.902  17.261  0.00  0.00    +0.000 C 
ATOM      2  C   UNL     1       6.022   6.022  18.364  0.00  0.00    +0.000 C 
ATOM      3  C   UNL     1       7.334   6.624  17.888  0.00  0.00    +0.000 C 
ATOM      4  C   UNL     1       7.259   8.131  17.645  0.00  0.00    +0.000 C 
ATOM      5  O   UNL     1       7.866   5.958  16.742  0.00  0.00    +0.000 OA
ATOM      6  C   UNL     1       6.989   5.462  15.813  0.00  0.00    +0.000 A 
ATOM      7  C   UNL     1       7.579   4.901  14.675  0.00  0.00    +0.000 A 
ATOM      8  C   UNL     1       6.753   4.325  13.733  0.00  0.00    +0.000 A 
ATOM      9  C   UNL     1       5.385   4.370  13.849  0.00  0.00    +0.000 A 
ATOM     10  C   UNL     1       4.769   4.955  14.932  0.00  0.00    +0.000 A 
ATOM     11  C   UNL     1       5.588   5.438  15.972  0.00  0.00    +0.000 A 
ATOM     12  O   UNL     1       4.756   3.713  12.840  0.00  0.00    +0.000 OA
ATOM     13  C   UNL     1       5.886   3.068  12.217  0.00  0.00    +0.000 C 
ATOM     14  O   UNL     1       7.149   3.630  12.634  0.00  0.00    +0.000 OA
ENDROOT
BRANCH   1  19
ATOM     15  C   UNL     1       3.313   2.656  18.276  0.00  0.00    +0.000 A 
ATOM     16  C   UNL     1       1.957   2.973  18.216  0.00  0.00    +0.000 A 
ATOM     17  C   UNL     1       1.557   4.296  18.010  0.00  0.00    +0.000 A 
ATOM     18  C   UNL     1       2.517   5.284  17.795  0.00  0.00    +0.000 A 
ATOM     19  C   UNL     1       3.891   4.978  17.857  0.00  0.00    +0.000 A 
ATOM     20  C   UNL     1       4.260   3.673  18.205  0.00  0.00    +0.000 A 
BRANCH  15  22
ATOM     21  C   UNL     1       4.280   0.965  19.589  0.00  0.00    +0.000 C 
ATOM     22  O   UNL     1       3.607   1.315  18.377  0.00  0.00    +0.000 OA
ENDBRANCH  15  22
BRANCH  20  23
ATOM     23  O   UNL     1       5.581   3.414  18.450  0.00  0.00    +0.000 OA
ATOM     24  H   UNL     1       5.810   3.955  19.227  0.00  0.00    +0.000 HD
ENDBRANCH  20  23
ENDBRANCH   1  19
BRANCH   3  25
ATOM     25  O   UNL     1       8.283   6.487  18.962  0.00  0.00    +0.000 OA
ATOM     26  H   UNL     1       8.794   5.676  18.807  0.00  0.00    +0.000 HD
ENDBRANCH   3  25
TORSDOF 4
ENDMDL
