MODEL 1
REMARK VINA RESULT:      -8.3      0.000      0.000
REMARK  Name = 
REMARK  10 active torsions:
REMARK  status: ('A' for Active; 'I' for Inactive)
REMARK    1  A    between atoms: C_1  and  C_2
REMARK    2  A    between atoms: C_4  and  C_5
REMARK    3  A    between atoms: C_5  and  C_6
REMARK    4  A    between atoms: C_6  and  N_7
REMARK    5  A    between atoms: N_7  and  C_8
REMARK    6  A    between atoms: C_8  and  C_9
REMARK    7  A    between atoms: C_9  and  C_10
REMARK    8  A    between atoms: C_20  and  C_21
REMARK    9  A    between atoms: N_23  and  C_24
REMARK   10  A    between atoms: C_24  and  C_25
REMARK                            x       y       z     vdW  Elec       q    Type
REMARK                         _______ _______ _______ _____ _____    ______ ____
ROOT
ATOM      1  C   UNL     1       2.777   8.304  17.702  0.00  0.00    +0.000 C 
ATOM      2  C   UNL     1       2.258   7.764  18.974  0.00  0.00    +0.000 A 
ATOM      3  O   UNL     1       2.584   6.468  19.265  0.00  0.00    +0.000 OA
ATOM      4  C   UNL     1       1.982   6.226  20.468  0.00  0.00    +0.000 A 
ATOM      5  N   UNL     1       1.316   7.251  20.961  0.00  0.00    +0.000 NA
ATOM      6  C   UNL     1       1.481   8.250  20.009  0.00  0.00    +0.000 A 
ENDROOT
BRANCH   6   7
ATOM      7  C   UNL     1       0.900   9.585  20.130  0.00  0.00    +0.000 C 
ATOM      8  O   UNL     1       1.061  10.293  21.123  0.00  0.00    +0.000 OA
ATOM      9  N   UNL     1       0.161   9.987  19.044  0.00  0.00    +0.000 N 
ATOM     10  H   UNL     1       0.065   9.361  18.247  0.00  0.00    +0.000 HD
BRANCH   9  11
ATOM     11  C   UNL     1      -0.482  11.283  18.986  0.00  0.00    +0.000 C 
BRANCH  11  12
ATOM     12  C   UNL     1      -1.928  11.216  18.550  0.00  0.00    +0.000 A 
ATOM     13  N   UNL     1      -2.848  11.982  19.203  0.00  0.00    +0.000 NA
ATOM     14  C   UNL     1      -4.133  11.891  18.789  0.00  0.00    +0.000 A 
ATOM     15  C   UNL     1      -4.558  11.072  17.753  0.00  0.00    +0.000 A 
ATOM     16  C   UNL     1      -3.609  10.298  17.094  0.00  0.00    +0.000 A 
ATOM     17  C   UNL     1      -2.281  10.372  17.499  0.00  0.00    +0.000 A 
ATOM     18  F   UNL     1      -1.359   9.630  16.871  0.00  0.00    +0.000 F 
ENDBRANCH  11  12
ENDBRANCH   9  11
ENDBRANCH   6   7
BRANCH   4  19
ATOM     19  C   UNL     1       2.178   4.872  21.046  0.00  0.00    +0.000 C 
BRANCH  19  20
ATOM     20  C   UNL     1       1.230   3.869  20.383  0.00  0.00    +0.000 C 
BRANCH  20  21
ATOM     21  N   UNL     1       1.672   3.496  19.027  0.00  0.00    +0.000 NA
ATOM     22  H   UNL     1       2.548   3.978  18.815  0.00  0.00    +0.000 HD
BRANCH  21  23
ATOM     23  C   UNL     1       1.905   2.040  18.968  0.00  0.00    +0.000 C 
BRANCH  23  24
ATOM     24  C   UNL     1       3.246   1.707  18.301  0.00  0.00    +0.000 C 
BRANCH  24  25
ATOM     25  C   UNL     1       4.067   2.936  18.089  0.00  0.00    +0.000 A 
ATOM     26  N   UNL     1       4.012   3.748  17.050  0.00  0.00    +0.000 NA
ATOM     27  C   UNL     1       4.955   4.720  17.286  0.00  0.00    +0.000 A 
ATOM     28  C   UNL     1       5.319   5.828  16.507  0.00  0.00    +0.000 A 
ATOM     29  C   UNL     1       6.326   6.680  16.978  0.00  0.00    +0.000 A 
ATOM     30  C   UNL     1       6.957   6.434  18.200  0.00  0.00    +0.000 A 
ATOM     31  C   UNL     1       6.608   5.333  18.992  0.00  0.00    +0.000 A 
ATOM     32  C   UNL     1       5.602   4.499  18.496  0.00  0.00    +0.000 A 
ATOM     33  N   UNL     1       5.022   3.356  18.985  0.00  0.00    +0.000 N 
ATOM     34  H   UNL     1       5.261   2.897  19.851  0.00  0.00    +0.000 HD
ENDBRANCH  24  25
ENDBRANCH  23  24
ENDBRANCH  21  23
ENDBRANCH  20  21
ENDBRANCH  19  20
ENDBRANCH   4  19
TORSDOF 9
ENDMDL
MODEL 2
REMARK VINA RESULT:      -7.9      5.981      9.400
REMARK  Name = 
REMARK  10 active torsions:
REMARK  status: ('A' for Active; 'I' for Inactive)
REMARK    1  A    between atoms: C_1  and  C_2
REMARK    2  A    between atoms: C_4  and  C_5
REMARK    3  A    between atoms: C_5  and  C_6
REMARK    4  A    between atoms: C_6  and  N_7
REMARK    5  A    between atoms: N_7  and  C_8
REMARK    6  A    between atoms: C_8  and  C_9
REMARK    7  A    between atoms: C_9  and  C_10
REMARK    8  A    between atoms: C_20  and  C_21
REMARK    9  A    between atoms: N_23  and  C_24
REMARK   10  A    between atoms: C_24  and  C_25
REMARK                            x       y       z     vdW  Elec       q    Type
REMARK                         _______ _______ _______ _____ _____    ______ ____
ROOT
ATOM      1  C   UNL     1       6.922   4.820  14.909  0.00  0.00    +0.000 C 
ATOM      2  C   UNL     1       6.893   5.361  16.283  0.00  0.00    +0.000 A 
ATOM      3  O   UNL     1       7.700   6.437  16.531  0.00  0.00    +0.000 OA
ATOM      4  C   UNL     1       7.490   6.725  17.850  0.00  0.00    +0.000 A 
ATOM      5  N   UNL     1       6.622   5.935  18.451  0.00  0.00    +0.000 NA
ATOM      6  C   UNL     1       6.230   5.047  17.455  0.00  0.00    +0.000 A 
ENDROOT
BRANCH   6   7
ATOM      7  C   UNL     1       5.267   3.969  17.666  0.00  0.00    +0.000 C 
ATOM      8  O   UNL     1       4.430   3.650  16.823  0.00  0.00    +0.000 OA
ATOM      9  N   UNL     1       5.374   3.339  18.882  0.00  0.00    +0.000 N 
ATOM     10  H   UNL     1       6.089   3.642  19.540  0.00  0.00    +0.000 HD
BRANCH   9  11
ATOM     11  C   UNL     1       4.507   2.243  19.261  0.00  0.00    +0.000 C 
BRANCH  11  12
ATOM     12  C   UNL     1       3.112   2.684  19.639  0.00  0.00    +0.000 A 
ATOM     13  N   UNL     1       2.928   3.345  20.818  0.00  0.00    +0.000 NA
ATOM     14  C   UNL     1       1.663   3.718  21.125  0.00  0.00    +0.000 A 
ATOM     15  C   UNL     1       0.563   3.467  20.318  0.00  0.00    +0.000 A 
ATOM     16  C   UNL     1       0.765   2.794  19.118  0.00  0.00    +0.000 A 
ATOM     17  C   UNL     1       2.054   2.400  18.778  0.00  0.00    +0.000 A 
ATOM     18  F   UNL     1       2.260   1.750  17.624  0.00  0.00    +0.000 F 
ENDBRANCH  11  12
ENDBRANCH   9  11
ENDBRANCH   6   7
BRANCH   4  19
ATOM     19  C   UNL     1       8.243   7.878  18.405  0.00  0.00    +0.000 C 
BRANCH  19  20
ATOM     20  C   UNL     1       7.978   9.136  17.574  0.00  0.00    +0.000 C 
BRANCH  20  21
ATOM     21  N   UNL     1       8.383  10.366  18.278  0.00  0.00    +0.000 NA
ATOM     22  H   UNL     1       7.561  10.791  18.711  0.00  0.00    +0.000 HD
BRANCH  21  23
ATOM     23  C   UNL     1       9.357  10.031  19.334  0.00  0.00    +0.000 C 
BRANCH  23  24
ATOM     24  C   UNL     1       9.520  11.177  20.341  0.00  0.00    +0.000 C 
BRANCH  24  25
ATOM     25  C   UNL     1       9.901  12.449  19.658  0.00  0.00    +0.000 A 
ATOM     26  N   UNL     1       9.698  13.673  20.107  0.00  0.00    +0.000 NA
ATOM     27  C   UNL     1      10.195  14.513  19.139  0.00  0.00    +0.000 A 
ATOM     28  C   UNL     1      10.237  15.914  19.098  0.00  0.00    +0.000 A 
ATOM     29  C   UNL     1      10.805  16.538  17.980  0.00  0.00    +0.000 A 
ATOM     30  C   UNL     1      11.323  15.782  16.925  0.00  0.00    +0.000 A 
ATOM     31  C   UNL     1      11.290  14.382  16.947  0.00  0.00    +0.000 A 
ATOM     32  C   UNL     1      10.715  13.787  18.073  0.00  0.00    +0.000 A 
ATOM     33  N   UNL     1      10.511  12.477  18.426  0.00  0.00    +0.000 N 
ATOM     34  H   UNL     1      10.760  11.671  17.872  0.00  0.00    +0.000 HD
ENDBRANCH  24  25
ENDBRANCH  23  24
ENDBRANCH  21  23
ENDBRANCH  20  21
ENDBRANCH  19  20
ENDBRANCH   4  19
TORSDOF 9
ENDMDL
MODEL 3
REMARK VINA RESULT:      -7.8      1.656      3.548
REMARK  Name = 
REMARK  10 active torsions:
REMARK  status: ('A' for Active; 'I' for Inactive)
REMARK    1  A    between atoms: C_1  and  C_2
REMARK    2  A    between atoms: C_4  and  C_5
REMARK    3  A    between atoms: C_5  and  C_6
REMARK    4  A    between atoms: C_6  and  N_7
REMARK    5  A    between atoms: N_7  and  C_8
REMARK    6  A    between atoms: C_8  and  C_9
REMARK    7  A    between atoms: C_9  and  C_10
REMARK    8  A    between atoms: C_20  and  C_21
REMARK    9  A    between atoms: N_23  and  C_24
REMARK   10  A    between atoms: C_24  and  C_25
REMARK                            x       y       z     vdW  Elec       q    Type
REMARK                         _______ _______ _______ _____ _____    ______ ____
ROOT
ATOM      1  C   UNL     1       1.629   6.555  20.684  0.00  0.00    +0.000 C 
ATOM      2  C   UNL     1       2.156   7.264  19.501  0.00  0.00    +0.000 A 
ATOM      3  O   UNL     1       3.119   6.613  18.780  0.00  0.00    +0.000 OA
ATOM      4  C   UNL     1       3.429   7.475  17.766  0.00  0.00    +0.000 A 
ATOM      5  N   UNL     1       2.746   8.602  17.780  0.00  0.00    +0.000 NA
ATOM      6  C   UNL     1       1.922   8.483  18.893  0.00  0.00    +0.000 A 
ENDROOT
BRANCH   6   7
ATOM      7  C   UNL     1       0.978   9.516  19.314  0.00  0.00    +0.000 C 
ATOM      8  O   UNL     1       0.568   9.610  20.470  0.00  0.00    +0.000 OA
ATOM      9  N   UNL     1       0.588  10.375  18.315  0.00  0.00    +0.000 N 
ATOM     10  H   UNL     1       0.965  10.252  17.377  0.00  0.00    +0.000 HD
BRANCH   9  11
ATOM     11  C   UNL     1      -0.336  11.464  18.551  0.00  0.00    +0.000 C 
BRANCH  11  12
ATOM     12  C   UNL     1      -1.736  11.179  18.060  0.00  0.00    +0.000 A 
ATOM     13  N   UNL     1      -1.905  10.314  17.018  0.00  0.00    +0.000 NA
ATOM     14  C   UNL     1      -3.173  10.089  16.601  0.00  0.00    +0.000 A 
ATOM     15  C   UNL     1      -4.292  10.682  17.167  0.00  0.00    +0.000 A 
ATOM     16  C   UNL     1      -4.106  11.560  18.230  0.00  0.00    +0.000 A 
ATOM     17  C   UNL     1      -2.814  11.809  18.678  0.00  0.00    +0.000 A 
ATOM     18  F   UNL     1      -2.624  12.654  19.701  0.00  0.00    +0.000 F 
ENDBRANCH  11  12
ENDBRANCH   9  11
ENDBRANCH   6   7
BRANCH   4  19
ATOM     19  C   UNL     1       4.461   7.019  16.800  0.00  0.00    +0.000 C 
BRANCH  19  20
ATOM     20  C   UNL     1       5.803   6.820  17.510  0.00  0.00    +0.000 C 
BRANCH  20  21
ATOM     21  N   UNL     1       6.317   5.446  17.356  0.00  0.00    +0.000 NA
ATOM     22  H   UNL     1       5.858   4.839  18.038  0.00  0.00    +0.000 HD
BRANCH  21  23
ATOM     23  C   UNL     1       6.010   4.954  16.000  0.00  0.00    +0.000 C 
BRANCH  23  24
ATOM     24  C   UNL     1       5.436   3.532  16.028  0.00  0.00    +0.000 C 
BRANCH  24  25
ATOM     25  C   UNL     1       4.398   3.387  17.093  0.00  0.00    +0.000 A 
ATOM     26  N   UNL     1       3.097   3.550  16.948  0.00  0.00    +0.000 NA
ATOM     27  C   UNL     1       2.554   3.332  18.192  0.00  0.00    +0.000 A 
ATOM     28  C   UNL     1       1.215   3.378  18.610  0.00  0.00    +0.000 A 
ATOM     29  C   UNL     1       0.921   3.114  19.954  0.00  0.00    +0.000 A 
ATOM     30  C   UNL     1       1.938   2.809  20.862  0.00  0.00    +0.000 A 
ATOM     31  C   UNL     1       3.279   2.759  20.464  0.00  0.00    +0.000 A 
ATOM     32  C   UNL     1       3.545   3.029  19.119  0.00  0.00    +0.000 A 
ATOM     33  N   UNL     1       4.709   3.075  18.395  0.00  0.00    +0.000 N 
ATOM     34  H   UNL     1       5.636   2.914  18.759  0.00  0.00    +0.000 HD
ENDBRANCH  24  25
ENDBRANCH  23  24
ENDBRANCH  21  23
ENDBRANCH  20  21
ENDBRANCH  19  20
ENDBRANCH   4  19
TORSDOF 9
ENDMDL
MODEL 4
REMARK VINA RESULT:      -7.7      0.712      1.257
REMARK  Name = 
REMARK  10 active torsions:
REMARK  status: ('A' for Active; 'I' for Inactive)
REMARK    1  A    between atoms: C_1  and  C_2
REMARK    2  A    between atoms: C_4  and  C_5
REMARK    3  A    between atoms: C_5  and  C_6
REMARK    4  A    between atoms: C_6  and  N_7
REMARK    5  A    between atoms: N_7  and  C_8
REMARK    6  A    between atoms: C_8  and  C_9
REMARK    7  A    between atoms: C_9  and  C_10
REMARK    8  A    between atoms: C_20  and  C_21
REMARK    9  A    between atoms: N_23  and  C_24
REMARK   10  A    between atoms: C_24  and  C_25
REMARK                            x       y       z     vdW  Elec       q    Type
REMARK                         _______ _______ _______ _____ _____    ______ ____
ROOT
ATOM      1  C   UNL     1       2.928   8.162  17.685  0.00  0.00    +0.000 C 
ATOM      2  C   UNL     1       2.352   7.679  18.956  0.00  0.00    +0.000 A 
ATOM      3  O   UNL     1       2.664   6.398  19.319  0.00  0.00    +0.000 OA
ATOM      4  C   UNL     1       2.010   6.209  20.504  0.00  0.00    +0.000 A 
ATOM      5  N   UNL     1       1.323   7.253  20.921  0.00  0.00    +0.000 NA
ATOM      6  C   UNL     1       1.531   8.210  19.934  0.00  0.00    +0.000 A 
ENDROOT
BRANCH   6   7
ATOM      7  C   UNL     1       0.946   9.548  19.969  0.00  0.00    +0.000 C 
ATOM      8  O   UNL     1       0.871  10.213  21.001  0.00  0.00    +0.000 OA
ATOM      9  N   UNL     1       0.489  10.004  18.757  0.00  0.00    +0.000 N 
ATOM     10  H   UNL     1       0.581   9.411  17.934  0.00  0.00    +0.000 HD
BRANCH   9  11
ATOM     11  C   UNL     1      -0.114  11.311  18.601  0.00  0.00    +0.000 C 
BRANCH  11  12
ATOM     12  C   UNL     1      -1.619  11.266  18.473  0.00  0.00    +0.000 A 
ATOM     13  N   UNL     1      -2.372  12.060  19.287  0.00  0.00    +0.000 NA
ATOM     14  C   UNL     1      -3.717  11.988  19.147  0.00  0.00    +0.000 A 
ATOM     15  C   UNL     1      -4.359  11.162  18.236  0.00  0.00    +0.000 A 
ATOM     16  C   UNL     1      -3.579  10.360  17.411  0.00  0.00    +0.000 A 
ATOM     17  C   UNL     1      -2.195  10.414  17.533  0.00  0.00    +0.000 A 
ATOM     18  F   UNL     1      -1.434   9.645  16.743  0.00  0.00    +0.000 F 
ENDBRANCH  11  12
ENDBRANCH   9  11
ENDBRANCH   6   7
BRANCH   4  19
ATOM     19  C   UNL     1       2.179   4.882  21.150  0.00  0.00    +0.000 C 
BRANCH  19  20
ATOM     20  C   UNL     1       1.286   3.841  20.468  0.00  0.00    +0.000 C 
BRANCH  20  21
ATOM     21  N   UNL     1       2.029   3.023  19.492  0.00  0.00    +0.000 NA
ATOM     22  H   UNL     1       1.775   2.041  19.614  0.00  0.00    +0.000 HD
BRANCH  21  23
ATOM     23  C   UNL     1       1.668   3.441  18.124  0.00  0.00    +0.000 C 
BRANCH  23  24
ATOM     24  C   UNL     1       2.806   3.173  17.130  0.00  0.00    +0.000 C 
BRANCH  24  25
ATOM     25  C   UNL     1       4.010   3.996  17.449  0.00  0.00    +0.000 A 
ATOM     26  N   UNL     1       4.838   3.818  18.461  0.00  0.00    +0.000 NA
ATOM     27  C   UNL     1       5.775   4.819  18.357  0.00  0.00    +0.000 A 
ATOM     28  C   UNL     1       6.882   5.103  19.171  0.00  0.00    +0.000 A 
ATOM     29  C   UNL     1       7.693   6.197  18.845  0.00  0.00    +0.000 A 
ATOM     30  C   UNL     1       7.409   6.990  17.730  0.00  0.00    +0.000 A 
ATOM     31  C   UNL     1       6.309   6.723  16.906  0.00  0.00    +0.000 A 
ATOM     32  C   UNL     1       5.516   5.628  17.256  0.00  0.00    +0.000 A 
ATOM     33  N   UNL     1       4.386   5.086  16.699  0.00  0.00    +0.000 N 
ATOM     34  H   UNL     1       3.907   5.434  15.881  0.00  0.00    +0.000 HD
ENDBRANCH  24  25
ENDBRANCH  23  24
ENDBRANCH  21  23
ENDBRANCH  20  21
ENDBRANCH  19  20
ENDBRANCH   4  19
TORSDOF 9
ENDMDL
MODEL 5
REMARK VINA RESULT:      -7.7      2.154      3.368
REMARK  Name = 
REMARK  10 active torsions:
REMARK  status: ('A' for Active; 'I' for Inactive)
REMARK    1  A    between atoms: C_1  and  C_2
REMARK    2  A    between atoms: C_4  and  C_5
REMARK    3  A    between atoms: C_5  and  C_6
REMARK    4  A    between atoms: C_6  and  N_7
REMARK    5  A    between atoms: N_7  and  C_8
REMARK    6  A    between atoms: C_8  and  C_9
REMARK    7  A    between atoms: C_9  and  C_10
REMARK    8  A    between atoms: C_20  and  C_21
REMARK    9  A    between atoms: N_23  and  C_24
REMARK   10  A    between atoms: C_24  and  C_25
REMARK                            x       y       z     vdW  Elec       q    Type
REMARK                         _______ _______ _______ _____ _____    ______ ____
ROOT
ATOM      1  C   UNL     1       2.889   8.104  17.827  0.00  0.00    +0.000 C 
ATOM      2  C   UNL     1       2.323   7.556  19.076  0.00  0.00    +0.000 A 
ATOM      3  O   UNL     1       2.601   6.244  19.348  0.00  0.00    +0.000 OA
ATOM      4  C   UNL     1       1.965   5.998  20.531  0.00  0.00    +0.000 A 
ATOM      5  N   UNL     1       1.320   7.033  21.031  0.00  0.00    +0.000 NA
ATOM      6  C   UNL     1       1.538   8.046  20.104  0.00  0.00    +0.000 A 
ENDROOT
BRANCH   6   7
ATOM      7  C   UNL     1       0.997   9.396  20.240  0.00  0.00    +0.000 C 
ATOM      8  O   UNL     1       0.620   9.855  21.316  0.00  0.00    +0.000 OA
ATOM      9  N   UNL     1       0.947  10.111  19.068  0.00  0.00    +0.000 N 
ATOM     10  H   UNL     1       1.279   9.681  18.207  0.00  0.00    +0.000 HD
BRANCH   9  11
ATOM     11  C   UNL     1       0.447  11.469  19.015  0.00  0.00    +0.000 C 
BRANCH  11  12
ATOM     12  C   UNL     1       1.528  12.513  19.175  0.00  0.00    +0.000 A 
ATOM     13  N   UNL     1       2.342  12.786  18.115  0.00  0.00    +0.000 NA
ATOM     14  C   UNL     1       3.303  13.722  18.298  0.00  0.00    +0.000 A 
ATOM     15  C   UNL     1       3.502  14.406  19.489  0.00  0.00    +0.000 A 
ATOM     16  C   UNL     1       2.664  14.119  20.561  0.00  0.00    +0.000 A 
ATOM     17  C   UNL     1       1.668  13.162  20.400  0.00  0.00    +0.000 A 
ATOM     18  F   UNL     1       0.856  12.878  21.427  0.00  0.00    +0.000 F 
ENDBRANCH  11  12
ENDBRANCH   9  11
ENDBRANCH   6   7
BRANCH   4  19
ATOM     19  C   UNL     1       2.105   4.627  21.086  0.00  0.00    +0.000 C 
BRANCH  19  20
ATOM     20  C   UNL     1       1.199   3.652  20.328  0.00  0.00    +0.000 C 
BRANCH  20  21
ATOM     21  N   UNL     1       1.479   3.641  18.880  0.00  0.00    +0.000 NA
ATOM     22  H   UNL     1       2.330   4.177  18.699  0.00  0.00    +0.000 HD
BRANCH  21  23
ATOM     23  C   UNL     1       1.688   2.252  18.430  0.00  0.00    +0.000 C 
BRANCH  23  24
ATOM     24  C   UNL     1       3.155   1.826  18.566  0.00  0.00    +0.000 C 
BRANCH  24  25
ATOM     25  C   UNL     1       4.078   2.978  18.340  0.00  0.00    +0.000 A 
ATOM     26  N   UNL     1       4.962   3.455  19.194  0.00  0.00    +0.000 NA
ATOM     27  C   UNL     1       5.561   4.517  18.558  0.00  0.00    +0.000 A 
ATOM     28  C   UNL     1       6.568   5.383  19.008  0.00  0.00    +0.000 A 
ATOM     29  C   UNL     1       7.010   6.402  18.153  0.00  0.00    +0.000 A 
ATOM     30  C   UNL     1       6.460   6.553  16.877  0.00  0.00    +0.000 A 
ATOM     31  C   UNL     1       5.454   5.699  16.411  0.00  0.00    +0.000 A 
ATOM     32  C   UNL     1       5.031   4.694  17.285  0.00  0.00    +0.000 A 
ATOM     33  N   UNL     1       4.087   3.705  17.173  0.00  0.00    +0.000 N 
ATOM     34  H   UNL     1       3.494   3.544  16.372  0.00  0.00    +0.000 HD
ENDBRANCH  24  25
ENDBRANCH  23  24
ENDBRANCH  21  23
ENDBRANCH  20  21
ENDBRANCH  19  20
ENDBRANCH   4  19
TORSDOF 9
ENDMDL
MODEL 6
REMARK VINA RESULT:      -7.7      1.292      1.500
REMARK  Name = 
REMARK  10 active torsions:
REMARK  status: ('A' for Active; 'I' for Inactive)
REMARK    1  A    between atoms: C_1  and  C_2
REMARK    2  A    between atoms: C_4  and  C_5
REMARK    3  A    between atoms: C_5  and  C_6
REMARK    4  A    between atoms: C_6  and  N_7
REMARK    5  A    between atoms: N_7  and  C_8
REMARK    6  A    between atoms: C_8  and  C_9
REMARK    7  A    between atoms: C_9  and  C_10
REMARK    8  A    between atoms: C_20  and  C_21
REMARK    9  A    between atoms: N_23  and  C_24
REMARK   10  A    between atoms: C_24  and  C_25
REMARK                            x       y       z     vdW  Elec       q    Type
REMARK                         _______ _______ _______ _____ _____    ______ ____
ROOT
ATOM      1  C   UNL     1       2.640   8.564  17.667  0.00  0.00    +0.000 C 
ATOM      2  C   UNL     1       2.126   8.021  18.939  0.00  0.00    +0.000 A 
ATOM      3  O   UNL     1       2.401   6.706  19.196  0.00  0.00    +0.000 OA
ATOM      4  C   UNL     1       1.817   6.464  20.407  0.00  0.00    +0.000 A 
ATOM      5  N   UNL     1       1.206   7.506  20.937  0.00  0.00    +0.000 NA
ATOM      6  C   UNL     1       1.394   8.517  20.002  0.00  0.00    +0.000 A 
ENDROOT
BRANCH   6   7
ATOM      7  C   UNL     1       0.874   9.873  20.163  0.00  0.00    +0.000 C 
ATOM      8  O   UNL     1       0.970  10.501  21.217  0.00  0.00    +0.000 OA
ATOM      9  N   UNL     1       0.272  10.391  19.042  0.00  0.00    +0.000 N 
ATOM     10  H   UNL     1       0.225   9.828  18.196  0.00  0.00    +0.000 HD
BRANCH   9  11
ATOM     11  C   UNL     1      -0.293  11.724  19.017  0.00  0.00    +0.000 C 
BRANCH  11  12
ATOM     12  C   UNL     1      -1.770  11.743  18.699  0.00  0.00    +0.000 A 
ATOM     13  N   UNL     1      -2.182  11.349  17.460  0.00  0.00    +0.000 NA
ATOM     14  C   UNL     1      -3.512  11.385  17.209  0.00  0.00    +0.000 A 
ATOM     15  C   UNL     1      -4.463  11.798  18.131  0.00  0.00    +0.000 A 
ATOM     16  C   UNL     1      -4.030  12.196  19.392  0.00  0.00    +0.000 A 
ATOM     17  C   UNL     1      -2.669  12.167  19.675  0.00  0.00    +0.000 A 
ATOM     18  F   UNL     1      -2.242  12.549  20.886  0.00  0.00    +0.000 F 
ENDBRANCH  11  12
ENDBRANCH   9  11
ENDBRANCH   6   7
BRANCH   4  19
ATOM     19  C   UNL     1       1.966   5.091  20.953  0.00  0.00    +0.000 C 
BRANCH  19  20
ATOM     20  C   UNL     1       1.224   4.084  20.071  0.00  0.00    +0.000 C 
BRANCH  20  21
ATOM     21  N   UNL     1       1.681   2.701  20.297  0.00  0.00    +0.000 NA
ATOM     22  H   UNL     1       1.340   2.107  19.538  0.00  0.00    +0.000 HD
BRANCH  21  23
ATOM     23  C   UNL     1       3.155   2.664  20.305  0.00  0.00    +0.000 C 
BRANCH  23  24
ATOM     24  C   UNL     1       3.728   2.580  18.884  0.00  0.00    +0.000 C 
BRANCH  24  25
ATOM     25  C   UNL     1       4.611   3.747  18.585  0.00  0.00    +0.000 A 
ATOM     26  N   UNL     1       4.357   4.729  17.741  0.00  0.00    +0.000 NA
ATOM     27  C   UNL     1       5.455   5.554  17.787  0.00  0.00    +0.000 A 
ATOM     28  C   UNL     1       5.716   6.743  17.090  0.00  0.00    +0.000 A 
ATOM     29  C   UNL     1       6.930   7.404  17.320  0.00  0.00    +0.000 A 
ATOM     30  C   UNL     1       7.863   6.892  18.226  0.00  0.00    +0.000 A 
ATOM     31  C   UNL     1       7.620   5.707  18.931  0.00  0.00    +0.000 A 
ATOM     32  C   UNL     1       6.403   5.068  18.680  0.00  0.00    +0.000 A 
ATOM     33  N   UNL     1       5.843   3.915  19.171  0.00  0.00    +0.000 N 
ATOM     34  H   UNL     1       6.269   3.293  19.842  0.00  0.00    +0.000 HD
ENDBRANCH  24  25
ENDBRANCH  23  24
ENDBRANCH  21  23
ENDBRANCH  20  21
ENDBRANCH  19  20
ENDBRANCH   4  19
TORSDOF 9
ENDMDL
MODEL 7
REMARK VINA RESULT:      -7.5      1.331      1.623
REMARK  Name = 
REMARK  10 active torsions:
REMARK  status: ('A' for Active; 'I' for Inactive)
REMARK    1  A    between atoms: C_1  and  C_2
REMARK    2  A    between atoms: C_4  and  C_5
REMARK    3  A    between atoms: C_5  and  C_6
REMARK    4  A    between atoms: C_6  and  N_7
REMARK    5  A    between atoms: N_7  and  C_8
REMARK    6  A    between atoms: C_8  and  C_9
REMARK    7  A    between atoms: C_9  and  C_10
REMARK    8  A    between atoms: C_20  and  C_21
REMARK    9  A    between atoms: N_23  and  C_24
REMARK   10  A    between atoms: C_24  and  C_25
REMARK                            x       y       z     vdW  Elec       q    Type
REMARK                         _______ _______ _______ _____ _____    ______ ____
ROOT
ATOM      1  C   UNL     1       3.249   7.146  18.147  0.00  0.00    +0.000 C 
ATOM      2  C   UNL     1       2.417   6.497  19.179  0.00  0.00    +0.000 A 
ATOM      3  O   UNL     1       2.307   5.136  19.107  0.00  0.00    +0.000 OA
ATOM      4  C   UNL     1       1.494   4.802  20.153  0.00  0.00    +0.000 A 
ATOM      5  N   UNL     1       1.089   5.825  20.879  0.00  0.00    +0.000 NA
ATOM      6  C   UNL     1       1.673   6.927  20.263  0.00  0.00    +0.000 A 
ENDROOT
BRANCH   6   7
ATOM      7  C   UNL     1       1.493   8.300  20.725  0.00  0.00    +0.000 C 
ATOM      8  O   UNL     1       1.667   8.636  21.896  0.00  0.00    +0.000 OA
ATOM      9  N   UNL     1       1.116   9.188  19.747  0.00  0.00    +0.000 N 
ATOM     10  H   UNL     1       0.991   8.855  18.793  0.00  0.00    +0.000 HD
BRANCH   9  11
ATOM     11  C   UNL     1       0.899  10.593  20.022  0.00  0.00    +0.000 C 
BRANCH  11  12
ATOM     12  C   UNL     1      -0.472  11.079  19.615  0.00  0.00    +0.000 A 
ATOM     13  N   UNL     1      -1.162  11.891  20.468  0.00  0.00    +0.000 NA
ATOM     14  C   UNL     1      -2.390  12.301  20.073  0.00  0.00    +0.000 A 
ATOM     15  C   UNL     1      -2.976  11.944  18.867  0.00  0.00    +0.000 A 
ATOM     16  C   UNL     1      -2.261  11.118  18.006  0.00  0.00    +0.000 A 
ATOM     17  C   UNL     1      -0.997  10.682  18.387  0.00  0.00    +0.000 A 
ATOM     18  F   UNL     1      -0.300   9.886  17.566  0.00  0.00    +0.000 F 
ENDBRANCH  11  12
ENDBRANCH   9  11
ENDBRANCH   6   7
BRANCH   4  19
ATOM     19  C   UNL     1       1.202   3.356  20.331  0.00  0.00    +0.000 C 
BRANCH  19  20
ATOM     20  C   UNL     1       2.366   2.663  21.045  0.00  0.00    +0.000 C 
BRANCH  20  21
ATOM     21  N   UNL     1       3.665   2.960  20.413  0.00  0.00    +0.000 NA
ATOM     22  H   UNL     1       4.398   2.929  21.124  0.00  0.00    +0.000 HD
BRANCH  21  23
ATOM     23  C   UNL     1       3.956   1.945  19.384  0.00  0.00    +0.000 C 
BRANCH  23  24
ATOM     24  C   UNL     1       4.006   2.558  17.979  0.00  0.00    +0.000 C 
BRANCH  24  25
ATOM     25  C   UNL     1       4.957   3.708  17.923  0.00  0.00    +0.000 A 
ATOM     26  N   UNL     1       5.138   4.529  16.906  0.00  0.00    +0.000 NA
ATOM     27  C   UNL     1       6.116   5.408  17.306  0.00  0.00    +0.000 A 
ATOM     28  C   UNL     1       6.695   6.484  16.616  0.00  0.00    +0.000 A 
ATOM     29  C   UNL     1       7.689   7.236  17.256  0.00  0.00    +0.000 A 
ATOM     30  C   UNL     1       8.096   6.924  18.556  0.00  0.00    +0.000 A 
ATOM     31  C   UNL     1       7.530   5.854  19.260  0.00  0.00    +0.000 A 
ATOM     32  C   UNL     1       6.543   5.120  18.597  0.00  0.00    +0.000 A 
ATOM     33  N   UNL     1       5.794   4.032  18.965  0.00  0.00    +0.000 N 
ATOM     34  H   UNL     1       5.853   3.547  19.848  0.00  0.00    +0.000 HD
ENDBRANCH  24  25
ENDBRANCH  23  24
ENDBRANCH  21  23
ENDBRANCH  20  21
ENDBRANCH  19  20
ENDBRANCH   4  19
TORSDOF 9
ENDMDL
MODEL 8
REMARK VINA RESULT:      -7.4      2.867      9.271
REMARK  Name = 
REMARK  10 active torsions:
REMARK  status: ('A' for Active; 'I' for Inactive)
REMARK    1  A    between atoms: C_1  and  C_2
REMARK    2  A    between atoms: C_4  and  C_5
REMARK    3  A    between atoms: C_5  and  C_6
REMARK    4  A    between atoms: C_6  and  N_7
REMARK    5  A    between atoms: N_7  and  C_8
REMARK    6  A    between atoms: C_8  and  C_9
REMARK    7  A    between atoms: C_9  and  C_10
REMARK    8  A    between atoms: C_20  and  C_21
REMARK    9  A    between atoms: N_23  and  C_24
REMARK   10  A    between atoms: C_24  and  C_25
REMARK                            x       y       z     vdW  Elec       q    Type
REMARK                         _______ _______ _______ _____ _____    ______ ____
ROOT
ATOM      1  C   UNL     1       2.736   3.076  17.356  0.00  0.00    +0.000 C 
ATOM      2  C   UNL     1       3.000   4.208  18.266  0.00  0.00    +0.000 A 
ATOM      3  O   UNL     1       1.920   4.723  18.929  0.00  0.00    +0.000 OA
ATOM      4  C   UNL     1       2.434   5.741  19.681  0.00  0.00    +0.000 A 
ATOM      5  N   UNL     1       3.735   5.909  19.557  0.00  0.00    +0.000 NA
ATOM      6  C   UNL     1       4.116   4.931  18.646  0.00  0.00    +0.000 A 
ENDROOT
BRANCH   6   7
ATOM      7  C   UNL     1       5.492   4.741  18.193  0.00  0.00    +0.000 C 
ATOM      8  O   UNL     1       6.317   4.088  18.829  0.00  0.00    +0.000 OA
ATOM      9  N   UNL     1       5.788   5.348  16.997  0.00  0.00    +0.000 N 
ATOM     10  H   UNL     1       5.063   5.872  16.510  0.00  0.00    +0.000 HD
BRANCH   9  11
ATOM     11  C   UNL     1       7.100   5.260  16.390  0.00  0.00    +0.000 C 
BRANCH  11  12
ATOM     12  C   UNL     1       7.060   4.889  14.926  0.00  0.00    +0.000 A 
ATOM     13  N   UNL     1       7.904   5.526  14.064  0.00  0.00    +0.000 NA
ATOM     14  C   UNL     1       7.835   5.173  12.759  0.00  0.00    +0.000 A 
ATOM     15  C   UNL     1       6.966   4.213  12.260  0.00  0.00    +0.000 A 
ATOM     16  C   UNL     1       6.113   3.570  13.150  0.00  0.00    +0.000 A 
ATOM     17  C   UNL     1       6.163   3.914  14.497  0.00  0.00    +0.000 A 
ATOM     18  F   UNL     1       5.345   3.301  15.363  0.00  0.00    +0.000 F 
ENDBRANCH  11  12
ENDBRANCH   9  11
ENDBRANCH   6   7
BRANCH   4  19
ATOM     19  C   UNL     1       1.471   6.489  20.530  0.00  0.00    +0.000 C 
BRANCH  19  20
ATOM     20  C   UNL     1       1.810   7.982  20.529  0.00  0.00    +0.000 C 
BRANCH  20  21
ATOM     21  N   UNL     1       0.606   8.827  20.415  0.00  0.00    +0.000 NA
ATOM     22  H   UNL     1      -0.199   8.313  20.776  0.00  0.00    +0.000 HD
BRANCH  21  23
ATOM     23  C   UNL     1       0.787  10.052  21.216  0.00  0.00    +0.000 C 
BRANCH  23  24
ATOM     24  C   UNL     1       0.592  11.317  20.370  0.00  0.00    +0.000 C 
BRANCH  24  25
ATOM     25  C   UNL     1      -0.547  11.161  19.415  0.00  0.00    +0.000 A 
ATOM     26  N   UNL     1      -0.522  10.523  18.261  0.00  0.00    +0.000 NA
ATOM     27  C   UNL     1      -1.783  10.660  17.731  0.00  0.00    +0.000 A 
ATOM     28  C   UNL     1      -2.308  10.181  16.522  0.00  0.00    +0.000 A 
ATOM     29  C   UNL     1      -3.645  10.462  16.211  0.00  0.00    +0.000 A 
ATOM     30  C   UNL     1      -4.442  11.202  17.087  0.00  0.00    +0.000 A 
ATOM     31  C   UNL     1      -3.936  11.689  18.298  0.00  0.00    +0.000 A 
ATOM     32  C   UNL     1      -2.599  11.397  18.582  0.00  0.00    +0.000 A 
ATOM     33  N   UNL     1      -1.787  11.707  19.643  0.00  0.00    +0.000 N 
ATOM     34  H   UNL     1      -2.055  12.251  20.450  0.00  0.00    +0.000 HD
ENDBRANCH  24  25
ENDBRANCH  23  24
ENDBRANCH  21  23
ENDBRANCH  20  21
ENDBRANCH  19  20
ENDBRANCH   4  19
TORSDOF 9
ENDMDL
MODEL 9
REMARK VINA RESULT:      -7.4      6.274      9.672
REMARK  Name = 
REMARK  10 active torsions:
REMARK  status: ('A' for Active; 'I' for Inactive)
REMARK    1  A    between atoms: C_1  and  C_2
REMARK    2  A    between atoms: C_4  and  C_5
REMARK    3  A    between atoms: C_5  and  C_6
REMARK    4  A    between atoms: C_6  and  N_7
REMARK    5  A    between atoms: N_7  and  C_8
REMARK    6  A    between atoms: C_8  and  C_9
REMARK    7  A    between atoms: C_9  and  C_10
REMARK    8  A    between atoms: C_20  and  C_21
REMARK    9  A    between atoms: N_23  and  C_24
REMARK   10  A    between atoms: C_24  and  C_25
REMARK                            x       y       z     vdW  Elec       q    Type
REMARK                         _______ _______ _______ _____ _____    ______ ____
ROOT
ATOM      1  C   UNL     1       8.352   5.393  19.741  0.00  0.00    +0.000 C 
ATOM      2  C   UNL     1       7.876   6.378  18.750  0.00  0.00    +0.000 A 
ATOM      3  O   UNL     1       8.437   7.625  18.811  0.00  0.00    +0.000 OA
ATOM      4  C   UNL     1       7.826   8.324  17.810  0.00  0.00    +0.000 A 
ATOM      5  N   UNL     1       6.940   7.632  17.121  0.00  0.00    +0.000 NA
ATOM      6  C   UNL     1       6.958   6.376  17.716  0.00  0.00    +0.000 A 
ENDROOT
BRANCH   6   7
ATOM      7  C   UNL     1       6.116   5.264  17.282  0.00  0.00    +0.000 C 
ATOM      8  O   UNL     1       6.305   4.660  16.227  0.00  0.00    +0.000 OA
ATOM      9  N   UNL     1       5.098   4.946  18.148  0.00  0.00    +0.000 N 
ATOM     10  H   UNL     1       4.992   5.477  19.010  0.00  0.00    +0.000 HD
BRANCH   9  11
ATOM     11  C   UNL     1       4.170   3.867  17.884  0.00  0.00    +0.000 C 
BRANCH  11  12
ATOM     12  C   UNL     1       3.196   3.624  19.014  0.00  0.00    +0.000 A 
ATOM     13  N   UNL     1       3.611   2.905  20.096  0.00  0.00    +0.000 NA
ATOM     14  C   UNL     1       2.709   2.702  21.085  0.00  0.00    +0.000 A 
ATOM     15  C   UNL     1       1.406   3.177  21.056  0.00  0.00    +0.000 A 
ATOM     16  C   UNL     1       0.996   3.909  19.947  0.00  0.00    +0.000 A 
ATOM     17  C   UNL     1       1.903   4.133  18.917  0.00  0.00    +0.000 A 
ATOM     18  F   UNL     1       1.518   4.837  17.843  0.00  0.00    +0.000 F 
ENDBRANCH  11  12
ENDBRANCH   9  11
ENDBRANCH   6   7
BRANCH   4  19
ATOM     19  C   UNL     1       8.253   9.735  17.631  0.00  0.00    +0.000 C 
BRANCH  19  20
ATOM     20  C   UNL     1       9.443  10.050  18.541  0.00  0.00    +0.000 C 
BRANCH  20  21
ATOM     21  N   UNL     1       9.055  10.121  19.962  0.00  0.00    +0.000 NA
ATOM     22  H   UNL     1       9.278   9.233  20.415  0.00  0.00    +0.000 HD
BRANCH  21  23
ATOM     23  C   UNL     1       9.814  11.198  20.626  0.00  0.00    +0.000 C 
BRANCH  23  24
ATOM     24  C   UNL     1       8.972  12.471  20.785  0.00  0.00    +0.000 C 
BRANCH  24  25
ATOM     25  C   UNL     1       9.436  13.547  19.859  0.00  0.00    +0.000 A 
ATOM     26  N   UNL     1       8.751  14.611  19.486  0.00  0.00    +0.000 NA
ATOM     27  C   UNL     1       9.571  15.298  18.623  0.00  0.00    +0.000 A 
ATOM     28  C   UNL     1       9.345  16.497  17.930  0.00  0.00    +0.000 A 
ATOM     29  C   UNL     1      10.358  16.995  17.099  0.00  0.00    +0.000 A 
ATOM     30  C   UNL     1      11.570  16.313  16.963  0.00  0.00    +0.000 A 
ATOM     31  C   UNL     1      11.813  15.115  17.645  0.00  0.00    +0.000 A 
ATOM     32  C   UNL     1      10.786  14.641  18.464  0.00  0.00    +0.000 A 
ATOM     33  N   UNL     1      10.672  13.528  19.258  0.00  0.00    +0.000 N 
ATOM     34  H   UNL     1      11.374  12.812  19.374  0.00  0.00    +0.000 HD
ENDBRANCH  24  25
ENDBRANCH  23  24
ENDBRANCH  21  23
ENDBRANCH  20  21
ENDBRANCH  19  20
ENDBRANCH   4  19
TORSDOF 9
ENDMDL
