MODEL 1
REMARK VINA RESULT:      -7.6      0.000      0.000
REMARK  Name = 
REMARK  6 active torsions:
REMARK  status: ('A' for Active; 'I' for Inactive)
REMARK    1  A    between atoms: C_1  and  C_2
REMARK    2  A    between atoms: C_5  and  N_6
REMARK    3  A    between atoms: C_8  and  C_9
REMARK    4  A    between atoms: C_12  and  N_13
REMARK    5  A    between atoms: C_17  and  N_18
REMARK    6  A    between atoms: C_19  and  C_21
REMARK                            x       y       z     vdW  Elec       q    Type
REMARK                         _______ _______ _______ _____ _____    ______ ____
ROOT
ATOM      1  N   UNL     1       0.153  10.943  18.982  0.00  0.00    +0.000 N 
ATOM      2  N   UNL     1       0.403   9.627  19.222  0.00  0.00    +0.000 NA
ATOM      3  C   UNL     1       1.630   9.416  18.740  0.00  0.00    +0.000 A 
ATOM      4  C   UNL     1       2.201  10.626  18.264  0.00  0.00    +0.000 A 
ATOM      5  C   UNL     1       1.243  11.614  18.401  0.00  0.00    +0.000 A 
ENDROOT
BRANCH   1  10
ATOM      6  C   UNL     1      -4.852  13.245  20.497  0.00  0.00    +0.000 C 
ATOM      7  C   UNL     1      -3.530  12.661  20.086  0.00  0.00    +0.000 A 
ATOM      8  C   UNL     1      -3.415  11.903  18.914  0.00  0.00    +0.000 A 
ATOM      9  C   UNL     1      -2.188  11.351  18.543  0.00  0.00    +0.000 A 
ATOM     10  C   UNL     1      -1.075  11.526  19.368  0.00  0.00    +0.000 A 
ATOM     11  C   UNL     1      -1.173  12.275  20.549  0.00  0.00    +0.000 A 
ATOM     12  C   UNL     1      -2.397  12.856  20.889  0.00  0.00    +0.000 A 
ENDBRANCH   1  10
BRANCH   3  13
ATOM     13  C   UNL     1       2.250   8.103  18.698  0.00  0.00    +0.000 A 
ATOM     14  C   UNL     1       2.072   7.213  19.773  0.00  0.00    +0.000 A 
ATOM     15  C   UNL     1       2.736   5.982  19.772  0.00  0.00    +0.000 A 
ATOM     16  C   UNL     1       3.520   5.586  18.693  0.00  0.00    +0.000 A 
ATOM     17  C   UNL     1       3.729   6.492  17.652  0.00  0.00    +0.000 A 
ATOM     18  C   UNL     1       3.088   7.740  17.639  0.00  0.00    +0.000 A 
BRANCH  16  19
ATOM     19  N   UNL     1       4.336   4.459  18.840  0.00  0.00    +0.000 N 
ATOM     20  H   UNL     1       5.146   4.411  18.248  0.00  0.00    +0.000 HD
ATOM     21  H   UNL     1       4.467   4.134  19.764  0.00  0.00    +0.000 HD
ENDBRANCH  16  19
ENDBRANCH   3  13
BRANCH   5  22
ATOM     22  N   UNL     1       1.387  13.007  18.081  0.00  0.00    +0.000 N 
ATOM     23  C   UNL     1       2.224  13.899  18.915  0.00  0.00    +0.000 C 
ATOM     24  O   UNL     1       2.808  13.460  19.891  0.00  0.00    +0.000 OA
ATOM     25  H   UNL     1       0.899  13.356  17.255  0.00  0.00    +0.000 HD
BRANCH  23  26
ATOM     26  C   UNL     1       2.169  15.327  18.574  0.00  0.00    +0.000 A 
ATOM     27  C   UNL     1       3.206  15.978  17.813  0.00  0.00    +0.000 A 
ATOM     28  N   UNL     1       2.842  17.201  17.427  0.00  0.00    +0.000 NA
ATOM     29  N   UNL     1       1.548  17.321  17.833  0.00  0.00    +0.000 N 
ATOM     30  C   UNL     1       0.553  18.221  17.467  0.00  0.00    +0.000 A 
ATOM     31  C   UNL     1      -0.669  17.670  17.572  0.00  0.00    +0.000 A 
ATOM     32  C   UNL     1      -0.894  17.637  19.148  0.00  0.00    +0.000 A 
ATOM     33  N   UNL     1      -0.136  16.595  19.398  0.00  0.00    +0.000 NA
ATOM     34  C   UNL     1       1.120  16.322  18.718  0.00  0.00    +0.000 A 
ENDBRANCH  23  26
ENDBRANCH   5  22
TORSDOF 5
ENDMDL
MODEL 2
REMARK VINA RESULT:      -7.5      4.227      7.958
REMARK  Name = 
REMARK  6 active torsions:
REMARK  status: ('A' for Active; 'I' for Inactive)
REMARK    1  A    between atoms: C_1  and  C_2
REMARK    2  A    between atoms: C_5  and  N_6
REMARK    3  A    between atoms: C_8  and  C_9
REMARK    4  A    between atoms: C_12  and  N_13
REMARK    5  A    between atoms: C_17  and  N_18
REMARK    6  A    between atoms: C_19  and  C_21
REMARK                            x       y       z     vdW  Elec       q    Type
REMARK                         _______ _______ _______ _____ _____    ______ ____
ROOT
ATOM      1  N   UNL     1       3.866   4.924  17.524  0.00  0.00    +0.000 N 
ATOM      2  N   UNL     1       4.497   4.167  16.585  0.00  0.00    +0.000 NA
ATOM      3  C   UNL     1       5.010   5.045  15.721  0.00  0.00    +0.000 A 
ATOM      4  C   UNL     1       4.777   6.377  16.156  0.00  0.00    +0.000 A 
ATOM      5  C   UNL     1       4.022   6.305  17.313  0.00  0.00    +0.000 A 
ENDROOT
BRANCH   1  10
ATOM      6  C   UNL     1       1.238   2.479  21.968  0.00  0.00    +0.000 C 
ATOM      7  C   UNL     1       1.928   3.100  20.787  0.00  0.00    +0.000 A 
ATOM      8  C   UNL     1       3.325   3.104  20.694  0.00  0.00    +0.000 A 
ATOM      9  C   UNL     1       3.962   3.693  19.601  0.00  0.00    +0.000 A 
ATOM     10  C   UNL     1       3.200   4.317  18.612  0.00  0.00    +0.000 A 
ATOM     11  C   UNL     1       1.801   4.330  18.693  0.00  0.00    +0.000 A 
ATOM     12  C   UNL     1       1.173   3.702  19.771  0.00  0.00    +0.000 A 
ENDBRANCH   1  10
BRANCH   3  13
ATOM     13  C   UNL     1       5.683   4.651  14.495  0.00  0.00    +0.000 A 
ATOM     14  C   UNL     1       5.042   3.780  13.597  0.00  0.00    +0.000 A 
ATOM     15  C   UNL     1       5.720   3.334  12.458  0.00  0.00    +0.000 A 
ATOM     16  C   UNL     1       7.000   3.790  12.156  0.00  0.00    +0.000 A 
ATOM     17  C   UNL     1       7.647   4.617  13.074  0.00  0.00    +0.000 A 
ATOM     18  C   UNL     1       6.993   5.063  14.233  0.00  0.00    +0.000 A 
BRANCH  16  19
ATOM     19  N   UNL     1       7.714   3.145  11.140  0.00  0.00    +0.000 N 
ATOM     20  H   UNL     1       8.227   2.323  11.404  0.00  0.00    +0.000 HD
ATOM     21  H   UNL     1       7.272   3.104  10.257  0.00  0.00    +0.000 HD
ENDBRANCH  16  19
ENDBRANCH   3  13
BRANCH   5  22
ATOM     22  N   UNL     1       3.578   7.405  18.124  0.00  0.00    +0.000 N 
ATOM     23  C   UNL     1       2.175   7.871  18.074  0.00  0.00    +0.000 C 
ATOM     24  O   UNL     1       1.369   7.323  17.340  0.00  0.00    +0.000 OA
ATOM     25  H   UNL     1       4.263   7.846  18.739  0.00  0.00    +0.000 HD
BRANCH  23  26
ATOM     26  C   UNL     1       1.882   9.095  18.832  0.00  0.00    +0.000 A 
ATOM     27  C   UNL     1       1.814  10.391  18.206  0.00  0.00    +0.000 A 
ATOM     28  N   UNL     1       1.312  11.312  19.029  0.00  0.00    +0.000 NA
ATOM     29  N   UNL     1       0.955  10.621  20.146  0.00  0.00    +0.000 N 
ATOM     30  C   UNL     1       0.124  10.960  21.208  0.00  0.00    +0.000 A 
ATOM     31  C   UNL     1      -0.457   9.872  21.743  0.00  0.00    +0.000 A 
ATOM     32  C   UNL     1       0.746   9.200  22.540  0.00  0.00    +0.000 A 
ATOM     33  N   UNL     1       1.349   8.667  21.503  0.00  0.00    +0.000 NA
ATOM     34  C   UNL     1       1.452   9.311  20.203  0.00  0.00    +0.000 A 
ENDBRANCH  23  26
ENDBRANCH   5  22
TORSDOF 5
ENDMDL
MODEL 3
REMARK VINA RESULT:      -7.5      1.307      1.727
REMARK  Name = 
REMARK  6 active torsions:
REMARK  status: ('A' for Active; 'I' for Inactive)
REMARK    1  A    between atoms: C_1  and  C_2
REMARK    2  A    between atoms: C_5  and  N_6
REMARK    3  A    between atoms: C_8  and  C_9
REMARK    4  A    between atoms: C_12  and  N_13
REMARK    5  A    between atoms: C_17  and  N_18
REMARK    6  A    between atoms: C_19  and  C_21
REMARK                            x       y       z     vdW  Elec       q    Type
REMARK                         _______ _______ _______ _____ _____    ______ ____
ROOT
ATOM      1  N   UNL     1       0.636   9.845  18.050  0.00  0.00    +0.000 N 
ATOM      2  N   UNL     1       0.866   8.508  18.152  0.00  0.00    +0.000 NA
ATOM      3  C   UNL     1       2.187   8.375  18.014  0.00  0.00    +0.000 A 
ATOM      4  C   UNL     1       2.815   9.644  17.906  0.00  0.00    +0.000 A 
ATOM      5  C   UNL     1       1.814  10.599  17.911  0.00  0.00    +0.000 A 
ENDROOT
BRANCH   1  10
ATOM      6  C   UNL     1      -4.695  11.867  18.420  0.00  0.00    +0.000 C 
ATOM      7  C   UNL     1      -3.287  11.355  18.308  0.00  0.00    +0.000 A 
ATOM      8  C   UNL     1      -2.926  10.468  17.286  0.00  0.00    +0.000 A 
ATOM      9  C   UNL     1      -1.620   9.985  17.194  0.00  0.00    +0.000 A 
ATOM     10  C   UNL     1      -0.676  10.361  18.152  0.00  0.00    +0.000 A 
ATOM     11  C   UNL     1      -1.022  11.241  19.186  0.00  0.00    +0.000 A 
ATOM     12  C   UNL     1      -2.321  11.750  19.245  0.00  0.00    +0.000 A 
ENDBRANCH   1  10
BRANCH   3  13
ATOM     13  C   UNL     1       2.852   7.084  17.954  0.00  0.00    +0.000 A 
ATOM     14  C   UNL     1       4.167   7.000  17.463  0.00  0.00    +0.000 A 
ATOM     15  C   UNL     1       4.779   5.749  17.327  0.00  0.00    +0.000 A 
ATOM     16  C   UNL     1       4.136   4.584  17.735  0.00  0.00    +0.000 A 
ATOM     17  C   UNL     1       2.816   4.671  18.178  0.00  0.00    +0.000 A 
ATOM     18  C   UNL     1       2.175   5.913  18.306  0.00  0.00    +0.000 A 
BRANCH  16  19
ATOM     19  N   UNL     1       4.693   3.353  17.370  0.00  0.00    +0.000 N 
ATOM     20  H   UNL     1       4.264   2.533  17.761  0.00  0.00    +0.000 HD
ATOM     21  H   UNL     1       4.987   3.271  16.430  0.00  0.00    +0.000 HD
ENDBRANCH  16  19
ENDBRANCH   3  13
BRANCH   5  22
ATOM     22  N   UNL     1       1.981  12.025  17.858  0.00  0.00    +0.000 N 
ATOM     23  C   UNL     1       2.096  12.826  19.096  0.00  0.00    +0.000 C 
ATOM     24  O   UNL     1       2.053  12.284  20.187  0.00  0.00    +0.000 OA
ATOM     25  H   UNL     1       2.023  12.462  16.935  0.00  0.00    +0.000 HD
BRANCH  23  26
ATOM     26  C   UNL     1       2.109  14.285  18.913  0.00  0.00    +0.000 A 
ATOM     27  C   UNL     1       3.163  14.962  18.201  0.00  0.00    +0.000 A 
ATOM     28  N   UNL     1       2.855  16.237  17.959  0.00  0.00    +0.000 NA
ATOM     29  N   UNL     1       1.578  16.376  18.408  0.00  0.00    +0.000 N 
ATOM     30  C   UNL     1       0.624  17.358  18.167  0.00  0.00    +0.000 A 
ATOM     31  C   UNL     1      -0.623  16.860  18.243  0.00  0.00    +0.000 A 
ATOM     32  C   UNL     1      -0.818  16.667  19.811  0.00  0.00    +0.000 A 
ATOM     33  N   UNL     1      -0.110  15.567  19.927  0.00  0.00    +0.000 NA
ATOM     34  C   UNL     1       1.117  15.309  19.190  0.00  0.00    +0.000 A 
ENDBRANCH  23  26
ENDBRANCH   5  22
TORSDOF 5
ENDMDL
MODEL 4
REMARK VINA RESULT:      -7.5      2.898      5.348
REMARK  Name = 
REMARK  6 active torsions:
REMARK  status: ('A' for Active; 'I' for Inactive)
REMARK    1  A    between atoms: C_1  and  C_2
REMARK    2  A    between atoms: C_5  and  N_6
REMARK    3  A    between atoms: C_8  and  C_9
REMARK    4  A    between atoms: C_12  and  N_13
REMARK    5  A    between atoms: C_17  and  N_18
REMARK    6  A    between atoms: C_19  and  C_21
REMARK                            x       y       z     vdW  Elec       q    Type
REMARK                         _______ _______ _______ _____ _____    ______ ____
ROOT
ATOM      1  N   UNL     1       1.677  10.436  18.420  0.00  0.00    +0.000 N 
ATOM      2  N   UNL     1       2.720   9.575  18.565  0.00  0.00    +0.000 NA
ATOM      3  C   UNL     1       2.251   8.393  18.160  0.00  0.00    +0.000 A 
ATOM      4  C   UNL     1       0.923   8.516  17.674  0.00  0.00    +0.000 A 
ATOM      5  C   UNL     1       0.539   9.832  17.857  0.00  0.00    +0.000 A 
ENDROOT
BRANCH   1  10
ATOM      6  C   UNL     1       2.241  15.973  19.710  0.00  0.00    +0.000 C 
ATOM      7  C   UNL     1       2.115  14.512  19.382  0.00  0.00    +0.000 A 
ATOM      8  C   UNL     1       2.605  14.004  18.172  0.00  0.00    +0.000 A 
ATOM      9  C   UNL     1       2.474  12.649  17.867  0.00  0.00    +0.000 A 
ATOM     10  C   UNL     1       1.815  11.801  18.759  0.00  0.00    +0.000 A 
ATOM     11  C   UNL     1       1.311  12.293  19.970  0.00  0.00    +0.000 A 
ATOM     12  C   UNL     1       1.484  13.644  20.284  0.00  0.00    +0.000 A 
ENDBRANCH   1  10
BRANCH   3  13
ATOM     13  C   UNL     1       3.018   7.162  18.250  0.00  0.00    +0.000 A 
ATOM     14  C   UNL     1       2.701   6.214  19.239  0.00  0.00    +0.000 A 
ATOM     15  C   UNL     1       3.490   5.067  19.381  0.00  0.00    +0.000 A 
ATOM     16  C   UNL     1       4.548   4.809  18.515  0.00  0.00    +0.000 A 
ATOM     17  C   UNL     1       4.886   5.776  17.566  0.00  0.00    +0.000 A 
ATOM     18  C   UNL     1       4.120   6.942  17.418  0.00  0.00    +0.000 A 
BRANCH  16  19
ATOM     19  N   UNL     1       5.437   3.777  18.838  0.00  0.00    +0.000 N 
ATOM     20  H   UNL     1       5.966   3.889  19.685  0.00  0.00    +0.000 HD
ATOM     21  H   UNL     1       5.122   2.859  18.652  0.00  0.00    +0.000 HD
ENDBRANCH  16  19
ENDBRANCH   3  13
BRANCH   5  22
ATOM     22  N   UNL     1      -0.714  10.427  17.480  0.00  0.00    +0.000 N 
ATOM     23  C   UNL     1      -1.729  10.775  18.497  0.00  0.00    +0.000 C 
ATOM     24  O   UNL     1      -1.516  10.561  19.679  0.00  0.00    +0.000 OA
ATOM     25  H   UNL     1      -0.872  10.607  16.487  0.00  0.00    +0.000 HD
BRANCH  23  26
ATOM     26  C   UNL     1      -3.024  11.234  17.975  0.00  0.00    +0.000 A 
ATOM     27  C   UNL     1      -3.395  11.079  16.591  0.00  0.00    +0.000 A 
ATOM     28  N   UNL     1      -4.686  11.349  16.393  0.00  0.00    +0.000 NA
ATOM     29  N   UNL     1      -5.188  11.577  17.637  0.00  0.00    +0.000 N 
ATOM     30  C   UNL     1      -6.496  11.608  18.106  0.00  0.00    +0.000 A 
ATOM     31  C   UNL     1      -6.563  11.240  19.398  0.00  0.00    +0.000 A 
ATOM     32  C   UNL     1      -5.973  12.515  20.146  0.00  0.00    +0.000 A 
ATOM     33  N   UNL     1      -4.707  12.279  19.893  0.00  0.00    +0.000 NA
ATOM     34  C   UNL     1      -4.217  11.735  18.636  0.00  0.00    +0.000 A 
ENDBRANCH  23  26
ENDBRANCH   5  22
TORSDOF 5
ENDMDL
MODEL 5
REMARK VINA RESULT:      -7.5      2.929      8.683
REMARK  Name = 
REMARK  6 active torsions:
REMARK  status: ('A' for Active; 'I' for Inactive)
REMARK    1  A    between atoms: C_1  and  C_2
REMARK    2  A    between atoms: C_5  and  N_6
REMARK    3  A    between atoms: C_8  and  C_9
REMARK    4  A    between atoms: C_12  and  N_13
REMARK    5  A    between atoms: C_17  and  N_18
REMARK    6  A    between atoms: C_19  and  C_21
REMARK                            x       y       z     vdW  Elec       q    Type
REMARK                         _______ _______ _______ _____ _____    ______ ____
ROOT
ATOM      1  N   UNL     1       0.162  11.822  19.079  0.00  0.00    +0.000 N 
ATOM      2  N   UNL     1      -1.040  12.432  18.895  0.00  0.00    +0.000 NA
ATOM      3  C   UNL     1      -1.910  11.434  18.724  0.00  0.00    +0.000 A 
ATOM      4  C   UNL     1      -1.272  10.175  18.883  0.00  0.00    +0.000 A 
ATOM      5  C   UNL     1       0.073  10.420  19.095  0.00  0.00    +0.000 A 
ENDROOT
BRANCH   1  10
ATOM      6  C   UNL     1       4.895  14.880  20.026  0.00  0.00    +0.000 C 
ATOM      7  C   UNL     1       3.637  14.097  19.775  0.00  0.00    +0.000 A 
ATOM      8  C   UNL     1       2.814  13.702  20.837  0.00  0.00    +0.000 A 
ATOM      9  C   UNL     1       1.654  12.964  20.599  0.00  0.00    +0.000 A 
ATOM     10  C   UNL     1       1.332  12.585  19.294  0.00  0.00    +0.000 A 
ATOM     11  C   UNL     1       2.148  12.965  18.220  0.00  0.00    +0.000 A 
ATOM     12  C   UNL     1       3.285  13.738  18.466  0.00  0.00    +0.000 A 
ENDBRANCH   1  10
BRANCH   3  13
ATOM     13  C   UNL     1      -3.308  11.648  18.389  0.00  0.00    +0.000 A 
ATOM     14  C   UNL     1      -3.767  11.356  17.093  0.00  0.00    +0.000 A 
ATOM     15  C   UNL     1      -5.092  11.640  16.745  0.00  0.00    +0.000 A 
ATOM     16  C   UNL     1      -5.991  12.144  17.680  0.00  0.00    +0.000 A 
ATOM     17  C   UNL     1      -5.517  12.473  18.951  0.00  0.00    +0.000 A 
ATOM     18  C   UNL     1      -4.187  12.215  19.317  0.00  0.00    +0.000 A 
BRANCH  16  19
ATOM     19  N   UNL     1      -7.227  12.619  17.228  0.00  0.00    +0.000 N 
ATOM     20  H   UNL     1      -7.797  11.970  16.716  0.00  0.00    +0.000 HD
ATOM     21  H   UNL     1      -7.714  13.218  17.844  0.00  0.00    +0.000 HD
ENDBRANCH  16  19
ENDBRANCH   3  13
BRANCH   5  22
ATOM     22  N   UNL     1       1.099   9.445  19.343  0.00  0.00    +0.000 N 
ATOM     23  C   UNL     1       1.749   8.722  18.228  0.00  0.00    +0.000 C 
ATOM     24  O   UNL     1       1.422   8.945  17.075  0.00  0.00    +0.000 OA
ATOM     25  H   UNL     1       1.368   9.277  20.314  0.00  0.00    +0.000 HD
BRANCH  23  26
ATOM     26  C   UNL     1       2.672   7.646  18.617  0.00  0.00    +0.000 A 
ATOM     27  C   UNL     1       2.501   6.887  19.830  0.00  0.00    +0.000 A 
ATOM     28  N   UNL     1       3.305   5.823  19.864  0.00  0.00    +0.000 NA
ATOM     29  N   UNL     1       3.922   5.817  18.652  0.00  0.00    +0.000 N 
ATOM     30  C   UNL     1       4.626   4.819  17.987  0.00  0.00    +0.000 A 
ATOM     31  C   UNL     1       4.529   4.956  16.652  0.00  0.00    +0.000 A 
ATOM     32  C   UNL     1       5.481   6.200  16.368  0.00  0.00    +0.000 A 
ATOM     33  N   UNL     1       4.651   7.134  16.768  0.00  0.00    +0.000 NA
ATOM     34  C   UNL     1       3.761   6.995  17.910  0.00  0.00    +0.000 A 
ENDBRANCH  23  26
ENDBRANCH   5  22
TORSDOF 5
ENDMDL
MODEL 6
REMARK VINA RESULT:      -7.4      0.663      1.089
REMARK  Name = 
REMARK  6 active torsions:
REMARK  status: ('A' for Active; 'I' for Inactive)
REMARK    1  A    between atoms: C_1  and  C_2
REMARK    2  A    between atoms: C_5  and  N_6
REMARK    3  A    between atoms: C_8  and  C_9
REMARK    4  A    between atoms: C_12  and  N_13
REMARK    5  A    between atoms: C_17  and  N_18
REMARK    6  A    between atoms: C_19  and  C_21
REMARK                            x       y       z     vdW  Elec       q    Type
REMARK                         _______ _______ _______ _____ _____    ______ ____
ROOT
ATOM      1  N   UNL     1       0.601  10.601  18.644  0.00  0.00    +0.000 N 
ATOM      2  N   UNL     1       0.811   9.265  18.795  0.00  0.00    +0.000 NA
ATOM      3  C   UNL     1       2.012   9.043  18.256  0.00  0.00    +0.000 A 
ATOM      4  C   UNL     1       2.610  10.259  17.833  0.00  0.00    +0.000 A 
ATOM      5  C   UNL     1       1.693  11.269  18.065  0.00  0.00    +0.000 A 
ENDROOT
BRANCH   1  10
ATOM      6  C   UNL     1      -4.179  13.064  20.575  0.00  0.00    +0.000 C 
ATOM      7  C   UNL     1      -2.930  12.393  20.076  0.00  0.00    +0.000 A 
ATOM      8  C   UNL     1      -1.797  12.289  20.892  0.00  0.00    +0.000 A 
ATOM      9  C   UNL     1      -0.636  11.678  20.419  0.00  0.00    +0.000 A 
ATOM     10  C   UNL     1      -0.592  11.200  19.108  0.00  0.00    +0.000 A 
ATOM     11  C   UNL     1      -1.714  11.303  18.274  0.00  0.00    +0.000 A 
ATOM     12  C   UNL     1      -2.884  11.881  18.772  0.00  0.00    +0.000 A 
ENDBRANCH   1  10
BRANCH   3  13
ATOM     13  C   UNL     1       2.584   7.714  18.112  0.00  0.00    +0.000 A 
ATOM     14  C   UNL     1       1.974   6.620  18.752  0.00  0.00    +0.000 A 
ATOM     15  C   UNL     1       2.569   5.356  18.683  0.00  0.00    +0.000 A 
ATOM     16  C   UNL     1       3.721   5.141  17.934  0.00  0.00    +0.000 A 
ATOM     17  C   UNL     1       4.346   6.239  17.340  0.00  0.00    +0.000 A 
ATOM     18  C   UNL     1       3.777   7.520  17.411  0.00  0.00    +0.000 A 
BRANCH  16  19
ATOM     19  N   UNL     1       4.395   3.924  18.083  0.00  0.00    +0.000 N 
ATOM     20  H   UNL     1       4.974   3.634  17.314  0.00  0.00    +0.000 HD
ATOM     21  H   UNL     1       4.759   3.736  18.983  0.00  0.00    +0.000 HD
ENDBRANCH  16  19
ENDBRANCH   3  13
BRANCH   5  22
ATOM     22  N   UNL     1       1.877  12.674  17.825  0.00  0.00    +0.000 N 
ATOM     23  C   UNL     1       2.326  13.580  18.904  0.00  0.00    +0.000 C 
ATOM     24  O   UNL     1       2.550  13.145  20.021  0.00  0.00    +0.000 OA
ATOM     25  H   UNL     1       1.693  13.021  16.882  0.00  0.00    +0.000 HD
BRANCH  23  26
ATOM     26  C   UNL     1       2.328  15.013  18.575  0.00  0.00    +0.000 A 
ATOM     27  C   UNL     1       3.387  15.625  17.813  0.00  0.00    +0.000 A 
ATOM     28  N   UNL     1       3.071  16.866  17.438  0.00  0.00    +0.000 NA
ATOM     29  N   UNL     1       1.786  17.036  17.854  0.00  0.00    +0.000 N 
ATOM     30  C   UNL     1       0.827  17.980  17.501  0.00  0.00    +0.000 A 
ATOM     31  C   UNL     1      -0.417  17.478  17.611  0.00  0.00    +0.000 A 
ATOM     32  C   UNL     1      -0.632  17.443  19.188  0.00  0.00    +0.000 A 
ATOM     33  N   UNL     1       0.083  16.368  19.424  0.00  0.00    +0.000 NA
ATOM     34  C   UNL     1       1.323  16.049  18.734  0.00  0.00    +0.000 A 
ENDBRANCH  23  26
ENDBRANCH   5  22
TORSDOF 5
ENDMDL
MODEL 7
REMARK VINA RESULT:      -7.4      1.139      1.618
REMARK  Name = 
REMARK  6 active torsions:
REMARK  status: ('A' for Active; 'I' for Inactive)
REMARK    1  A    between atoms: C_1  and  C_2
REMARK    2  A    between atoms: C_5  and  N_6
REMARK    3  A    between atoms: C_8  and  C_9
REMARK    4  A    between atoms: C_12  and  N_13
REMARK    5  A    between atoms: C_17  and  N_18
REMARK    6  A    between atoms: C_19  and  C_21
REMARK                            x       y       z     vdW  Elec       q    Type
REMARK                         _______ _______ _______ _____ _____    ______ ____
ROOT
ATOM      1  N   UNL     1       0.599   9.950  18.128  0.00  0.00    +0.000 N 
ATOM      2  N   UNL     1       0.856   8.622  18.274  0.00  0.00    +0.000 NA
ATOM      3  C   UNL     1       2.180   8.512  18.155  0.00  0.00    +0.000 A 
ATOM      4  C   UNL     1       2.784   9.789  18.017  0.00  0.00    +0.000 A 
ATOM      5  C   UNL     1       1.764  10.723  17.980  0.00  0.00    +0.000 A 
ENDROOT
BRANCH   1  10
ATOM      6  C   UNL     1      -4.724  12.000  18.452  0.00  0.00    +0.000 C 
ATOM      7  C   UNL     1      -3.331  11.441  18.382  0.00  0.00    +0.000 A 
ATOM      8  C   UNL     1      -2.358  11.821  19.315  0.00  0.00    +0.000 A 
ATOM      9  C   UNL     1      -1.062  11.310  19.237  0.00  0.00    +0.000 A 
ATOM     10  C   UNL     1      -0.724  10.442  18.198  0.00  0.00    +0.000 A 
ATOM     11  C   UNL     1      -1.682  10.057  17.250  0.00  0.00    +0.000 A 
ATOM     12  C   UNL     1      -2.987  10.544  17.361  0.00  0.00    +0.000 A 
ENDBRANCH   1  10
BRANCH   3  13
ATOM     13  C   UNL     1       2.872   7.233  18.144  0.00  0.00    +0.000 A 
ATOM     14  C   UNL     1       2.430   6.194  18.982  0.00  0.00    +0.000 A 
ATOM     15  C   UNL     1       3.144   4.992  19.033  0.00  0.00    +0.000 A 
ATOM     16  C   UNL     1       4.251   4.776  18.218  0.00  0.00    +0.000 A 
ATOM     17  C   UNL     1       4.711   5.827  17.423  0.00  0.00    +0.000 A 
ATOM     18  C   UNL     1       4.021   7.048  17.369  0.00  0.00    +0.000 A 
BRANCH  16  19
ATOM     19  N   UNL     1       5.056   3.659  18.470  0.00  0.00    +0.000 N 
ATOM     20  H   UNL     1       4.635   2.759  18.320  0.00  0.00    +0.000 HD
ATOM     21  H   UNL     1       6.003   3.736  18.197  0.00  0.00    +0.000 HD
ENDBRANCH  16  19
ENDBRANCH   3  13
BRANCH   5  22
ATOM     22  N   UNL     1       1.902  12.150  17.885  0.00  0.00    +0.000 N 
ATOM     23  C   UNL     1       2.064  12.983  19.097  0.00  0.00    +0.000 C 
ATOM     24  O   UNL     1       2.084  12.467  20.201  0.00  0.00    +0.000 OA
ATOM     25  H   UNL     1       1.892  12.565  16.952  0.00  0.00    +0.000 HD
BRANCH  23  26
ATOM     26  C   UNL     1       2.042  14.437  18.879  0.00  0.00    +0.000 A 
ATOM     27  C   UNL     1       3.035  15.111  18.081  0.00  0.00    +0.000 A 
ATOM     28  N   UNL     1       2.691  16.375  17.830  0.00  0.00    +0.000 NA
ATOM     29  N   UNL     1       1.446  16.508  18.362  0.00  0.00    +0.000 N 
ATOM     30  C   UNL     1       0.462  17.470  18.164  0.00  0.00    +0.000 A 
ATOM     31  C   UNL     1      -0.769  16.957  18.337  0.00  0.00    +0.000 A 
ATOM     32  C   UNL     1      -0.853  16.800  19.918  0.00  0.00    +0.000 A 
ATOM     33  N   UNL     1      -0.123  15.714  20.012  0.00  0.00    +0.000 NA
ATOM     34  C   UNL     1       1.055  15.453  19.199  0.00  0.00    +0.000 A 
ENDBRANCH  23  26
ENDBRANCH   5  22
TORSDOF 5
ENDMDL
MODEL 8
REMARK VINA RESULT:      -7.3      0.884      1.231
REMARK  Name = 
REMARK  6 active torsions:
REMARK  status: ('A' for Active; 'I' for Inactive)
REMARK    1  A    between atoms: C_1  and  C_2
REMARK    2  A    between atoms: C_5  and  N_6
REMARK    3  A    between atoms: C_8  and  C_9
REMARK    4  A    between atoms: C_12  and  N_13
REMARK    5  A    between atoms: C_17  and  N_18
REMARK    6  A    between atoms: C_19  and  C_21
REMARK                            x       y       z     vdW  Elec       q    Type
REMARK                         _______ _______ _______ _____ _____    ______ ____
ROOT
ATOM      1  N   UNL     1       0.783  10.647  19.006  0.00  0.00    +0.000 N 
ATOM      2  N   UNL     1       1.017   9.311  19.113  0.00  0.00    +0.000 NA
ATOM      3  C   UNL     1       2.094   9.087  18.358  0.00  0.00    +0.000 A 
ATOM      4  C   UNL     1       2.604  10.304  17.832  0.00  0.00    +0.000 A 
ATOM      5  C   UNL     1       1.749  11.314  18.233  0.00  0.00    +0.000 A 
ENDROOT
BRANCH   1  10
ATOM      6  C   UNL     1      -3.645  13.050  21.700  0.00  0.00    +0.000 C 
ATOM      7  C   UNL     1      -2.470  12.441  20.988  0.00  0.00    +0.000 A 
ATOM      8  C   UNL     1      -2.506  12.221  19.605  0.00  0.00    +0.000 A 
ATOM      9  C   UNL     1      -1.418  11.642  18.950  0.00  0.00    +0.000 A 
ATOM     10  C   UNL     1      -0.300  11.247  19.687  0.00  0.00    +0.000 A 
ATOM     11  C   UNL     1      -0.250  11.452  21.072  0.00  0.00    +0.000 A 
ATOM     12  C   UNL     1      -1.329  12.069  21.711  0.00  0.00    +0.000 A 
ENDBRANCH   1  10
BRANCH   3  13
ATOM     13  C   UNL     1       2.626   7.758  18.108  0.00  0.00    +0.000 A 
ATOM     14  C   UNL     1       3.852   7.613  17.434  0.00  0.00    +0.000 A 
ATOM     15  C   UNL     1       4.324   6.335  17.118  0.00  0.00    +0.000 A 
ATOM     16  C   UNL     1       3.638   5.193  17.521  0.00  0.00    +0.000 A 
ATOM     17  C   UNL     1       2.401   5.345  18.150  0.00  0.00    +0.000 A 
ATOM     18  C   UNL     1       1.898   6.617  18.460  0.00  0.00    +0.000 A 
BRANCH  16  19
ATOM     19  N   UNL     1       4.028   3.959  16.989  0.00  0.00    +0.000 N 
ATOM     20  H   UNL     1       4.004   3.173  17.614  0.00  0.00    +0.000 HD
ATOM     21  H   UNL     1       3.737   3.774  16.063  0.00  0.00    +0.000 HD
ENDBRANCH  16  19
ENDBRANCH   3  13
BRANCH   5  22
ATOM     22  N   UNL     1       1.886  12.719  17.963  0.00  0.00    +0.000 N 
ATOM     23  C   UNL     1       2.380  13.650  19.002  0.00  0.00    +0.000 C 
ATOM     24  O   UNL     1       2.682  13.235  20.108  0.00  0.00    +0.000 OA
ATOM     25  H   UNL     1       1.637  13.049  17.029  0.00  0.00    +0.000 HD
BRANCH  23  26
ATOM     26  C   UNL     1       2.331  15.077  18.655  0.00  0.00    +0.000 A 
ATOM     27  C   UNL     1       3.360  15.716  17.873  0.00  0.00    +0.000 A 
ATOM     28  N   UNL     1       2.998  16.940  17.487  0.00  0.00    +0.000 NA
ATOM     29  N   UNL     1       1.713  17.072  17.913  0.00  0.00    +0.000 N 
ATOM     30  C   UNL     1       0.719  17.978  17.560  0.00  0.00    +0.000 A 
ATOM     31  C   UNL     1      -0.506  17.436  17.688  0.00  0.00    +0.000 A 
ATOM     32  C   UNL     1      -0.704  17.414  19.268  0.00  0.00    +0.000 A 
ATOM     33  N   UNL     1       0.050  16.367  19.510  0.00  0.00    +0.000 NA
ATOM     34  C   UNL     1       1.292  16.081  18.810  0.00  0.00    +0.000 A 
ENDBRANCH  23  26
ENDBRANCH   5  22
TORSDOF 5
ENDMDL
MODEL 9
REMARK VINA RESULT:      -7.3      2.907      5.350
REMARK  Name = 
REMARK  6 active torsions:
REMARK  status: ('A' for Active; 'I' for Inactive)
REMARK    1  A    between atoms: C_1  and  C_2
REMARK    2  A    between atoms: C_5  and  N_6
REMARK    3  A    between atoms: C_8  and  C_9
REMARK    4  A    between atoms: C_12  and  N_13
REMARK    5  A    between atoms: C_17  and  N_18
REMARK    6  A    between atoms: C_19  and  C_21
REMARK                            x       y       z     vdW  Elec       q    Type
REMARK                         _______ _______ _______ _____ _____    ______ ____
ROOT
ATOM      1  N   UNL     1       1.633  10.491  18.396  0.00  0.00    +0.000 N 
ATOM      2  N   UNL     1       2.658   9.597  18.415  0.00  0.00    +0.000 NA
ATOM      3  C   UNL     1       2.130   8.457  17.964  0.00  0.00    +0.000 A 
ATOM      4  C   UNL     1       0.778   8.646  17.574  0.00  0.00    +0.000 A 
ATOM      5  C   UNL     1       0.445   9.957  17.867  0.00  0.00    +0.000 A 
ENDROOT
BRANCH   1  10
ATOM      6  C   UNL     1       2.441  15.911  20.012  0.00  0.00    +0.000 C 
ATOM      7  C   UNL     1       2.251  14.480  19.596  0.00  0.00    +0.000 A 
ATOM      8  C   UNL     1       2.648  14.044  18.326  0.00  0.00    +0.000 A 
ATOM      9  C   UNL     1       2.458  12.717  17.940  0.00  0.00    +0.000 A 
ATOM     10  C   UNL     1       1.832  11.826  18.814  0.00  0.00    +0.000 A 
ATOM     11  C   UNL     1       1.421  12.247  20.086  0.00  0.00    +0.000 A 
ATOM     12  C   UNL     1       1.652  13.568  20.477  0.00  0.00    +0.000 A 
ENDBRANCH   1  10
BRANCH   3  13
ATOM     13  C   UNL     1       2.864   7.204  17.922  0.00  0.00    +0.000 A 
ATOM     14  C   UNL     1       4.165   7.176  17.388  0.00  0.00    +0.000 A 
ATOM     15  C   UNL     1       4.841   5.956  17.271  0.00  0.00    +0.000 A 
ATOM     16  C   UNL     1       4.279   4.772  17.737  0.00  0.00    +0.000 A 
ATOM     17  C   UNL     1       2.970   4.801  18.224  0.00  0.00    +0.000 A 
ATOM     18  C   UNL     1       2.266   6.009  18.334  0.00  0.00    +0.000 A 
BRANCH  16  19
ATOM     19  N   UNL     1       4.891   3.563  17.392  0.00  0.00    +0.000 N 
ATOM     20  H   UNL     1       5.416   3.103  18.116  0.00  0.00    +0.000 HD
ATOM     21  H   UNL     1       4.372   2.966  16.800  0.00  0.00    +0.000 HD
ENDBRANCH  16  19
ENDBRANCH   3  13
BRANCH   5  22
ATOM     22  N   UNL     1      -0.811  10.607  17.612  0.00  0.00    +0.000 N 
ATOM     23  C   UNL     1      -1.746  10.918  18.715  0.00  0.00    +0.000 C 
ATOM     24  O   UNL     1      -1.463  10.626  19.864  0.00  0.00    +0.000 OA
ATOM     25  H   UNL     1      -1.028  10.853  16.645  0.00  0.00    +0.000 HD
BRANCH  23  26
ATOM     26  C   UNL     1      -3.058  11.443  18.310  0.00  0.00    +0.000 A 
ATOM     27  C   UNL     1      -3.561  11.305  16.967  0.00  0.00    +0.000 A 
ATOM     28  N   UNL     1      -4.849  11.643  16.884  0.00  0.00    +0.000 NA
ATOM     29  N   UNL     1      -5.222  11.899  18.167  0.00  0.00    +0.000 N 
ATOM     30  C   UNL     1      -6.479  11.999  18.753  0.00  0.00    +0.000 A 
ATOM     31  C   UNL     1      -6.447  11.637  20.048  0.00  0.00    +0.000 A 
ATOM     32  C   UNL     1      -5.725  12.881  20.732  0.00  0.00    +0.000 A 
ATOM     33  N   UNL     1      -4.502  12.578  20.366  0.00  0.00    +0.000 NA
ATOM     34  C   UNL     1      -4.158  12.008  19.073  0.00  0.00    +0.000 A 
ENDBRANCH  23  26
ENDBRANCH   5  22
TORSDOF 5
ENDMDL
