MODEL 1
REMARK VINA RESULT:      -8.4      0.000      0.000
REMARK  Name = 
REMARK  8 active torsions:
REMARK  status: ('A' for Active; 'I' for Inactive)
REMARK    1  A    between atoms: C_1  and  C_2
REMARK    2  A    between atoms: C_5  and  C_6
REMARK    3  A    between atoms: C_7  and  S_8
REMARK    4  A    between atoms: S_8  and  N_11
REMARK    5  A    between atoms: N_11  and  C_12
REMARK    6  A    between atoms: C_12  and  C_13
REMARK    7  A    between atoms: C_13  and  C_14
REMARK    8  A    between atoms: C_13  and  N_20
REMARK                            x       y       z     vdW  Elec       q    Type
REMARK                         _______ _______ _______ _____ _____    ______ ____
ROOT
ATOM      1  C   UNL     1       3.484   6.247  18.764  0.00  0.00    +0.000 C 
ENDROOT
BRANCH   1   2
ATOM      2  N   UNL     1       4.645   5.669  17.987  0.00  0.00    +0.000 NA
ATOM      3  C   UNL     1       4.972   6.438  16.775  0.00  0.00    +0.000 C 
ATOM      4  C   UNL     1       5.559   5.549  15.673  0.00  0.00    +0.000 C 
ATOM      5  C   UNL     1       7.060   5.312  15.762  0.00  0.00    +0.000 C 
ATOM      6  C   UNL     1       7.514   4.648  17.051  0.00  0.00    +0.000 C 
ATOM      7  C   UNL     1       7.223   5.497  18.279  0.00  0.00    +0.000 C 
ATOM      8  C   UNL     1       5.805   5.313  18.827  0.00  0.00    +0.000 C 
ENDBRANCH   1   2
BRANCH   1   9
ATOM      9  C   UNL     1       2.380   5.219  19.123  0.00  0.00    +0.000 A 
ATOM     10  C   UNL     1       1.823   4.374  18.149  0.00  0.00    +0.000 A 
ATOM     11  C   UNL     1       1.042   3.268  18.504  0.00  0.00    +0.000 A 
ATOM     12  C   UNL     1       0.766   3.002  19.841  0.00  0.00    +0.000 A 
ATOM     13  C   UNL     1       1.219   3.882  20.821  0.00  0.00    +0.000 A 
ATOM     14  C   UNL     1       2.013   4.986  20.467  0.00  0.00    +0.000 A 
ENDBRANCH   1   9
BRANCH   1  15
ATOM     15  C   UNL     1       2.917   7.501  18.008  0.00  0.00    +0.000 C 
BRANCH  15  16
ATOM     16  N   UNL     1       1.645   7.994  18.600  0.00  0.00    +0.000 NA
ATOM     17  H   UNL     1       0.877   7.333  18.453  0.00  0.00    +0.000 HD
BRANCH  16  18
ATOM     18  S   UNL     1       1.236   9.593  18.261  0.00  0.00    +0.000 S 
ATOM     19  O   UNL     1      -0.068   9.636  17.654  0.00  0.00    +0.000 OA
ATOM     20  O   UNL     1       2.392  10.219  17.654  0.00  0.00    +0.000 OA
BRANCH  18  27
ATOM     21  C   UNL     1       0.992  12.922  18.959  0.00  0.00    +0.000 C 
ATOM     22  C   UNL     1       0.975  11.818  19.947  0.00  0.00    +0.000 A 
ATOM     23  N   UNL     1       0.868  12.102  21.253  0.00  0.00    +0.000 NA
ATOM     24  O   UNL     1       0.869  10.889  21.911  0.00  0.00    +0.000 OA
ATOM     25  C   UNL     1       0.984   9.874  21.011  0.00  0.00    +0.000 A 
ATOM     26  C   UNL     1       0.986   8.514  21.574  0.00  0.00    +0.000 C 
ATOM     27  C   UNL     1       1.052  10.418  19.745  0.00  0.00    +0.000 A 
ENDBRANCH  18  27
ENDBRANCH  16  18
ENDBRANCH  15  16
ENDBRANCH   1  15
TORSDOF 6
ENDMDL
MODEL 2
REMARK VINA RESULT:      -8.3      0.429      1.589
REMARK  Name = 
REMARK  8 active torsions:
REMARK  status: ('A' for Active; 'I' for Inactive)
REMARK    1  A    between atoms: C_1  and  C_2
REMARK    2  A    between atoms: C_5  and  C_6
REMARK    3  A    between atoms: C_7  and  S_8
REMARK    4  A    between atoms: S_8  and  N_11
REMARK    5  A    between atoms: N_11  and  C_12
REMARK    6  A    between atoms: C_12  and  C_13
REMARK    7  A    between atoms: C_13  and  C_14
REMARK    8  A    between atoms: C_13  and  N_20
REMARK                            x       y       z     vdW  Elec       q    Type
REMARK                         _______ _______ _______ _____ _____    ______ ____
ROOT
ATOM      1  C   UNL     1       3.553   6.261  18.746  0.00  0.00    +0.000 C 
ENDROOT
BRANCH   1   2
ATOM      2  N   UNL     1       4.689   5.666  17.947  0.00  0.00    +0.000 NA
ATOM      3  C   UNL     1       4.946   6.376  16.683  0.00  0.00    +0.000 C 
ATOM      4  C   UNL     1       5.502   5.443  15.602  0.00  0.00    +0.000 C 
ATOM      5  C   UNL     1       7.010   5.238  15.635  0.00  0.00    +0.000 C 
ATOM      6  C   UNL     1       7.535   4.651  16.935  0.00  0.00    +0.000 C 
ATOM      7  C   UNL     1       7.281   5.557  18.130  0.00  0.00    +0.000 C 
ATOM      8  C   UNL     1       5.893   5.375  18.750  0.00  0.00    +0.000 C 
ENDBRANCH   1   2
BRANCH   1   9
ATOM      9  C   UNL     1       2.430   5.255  19.109  0.00  0.00    +0.000 A 
ATOM     10  C   UNL     1       1.866   4.408  18.140  0.00  0.00    +0.000 A 
ATOM     11  C   UNL     1       1.065   3.318  18.502  0.00  0.00    +0.000 A 
ATOM     12  C   UNL     1       0.777   3.071  19.840  0.00  0.00    +0.000 A 
ATOM     13  C   UNL     1       1.238   3.954  20.813  0.00  0.00    +0.000 A 
ATOM     14  C   UNL     1       2.052   5.042  20.452  0.00  0.00    +0.000 A 
ENDBRANCH   1   9
BRANCH   1  15
ATOM     15  C   UNL     1       3.004   7.535  18.011  0.00  0.00    +0.000 C 
BRANCH  15  16
ATOM     16  N   UNL     1       1.705   7.998  18.568  0.00  0.00    +0.000 NA
ATOM     17  H   UNL     1       0.951   7.334  18.373  0.00  0.00    +0.000 HD
BRANCH  16  18
ATOM     18  S   UNL     1       1.292   9.603  18.261  0.00  0.00    +0.000 S 
ATOM     19  O   UNL     1      -0.028   9.656  17.690  0.00  0.00    +0.000 OA
ATOM     20  O   UNL     1       2.433  10.233  17.630  0.00  0.00    +0.000 OA
BRANCH  18  27
ATOM     21  C   UNL     1       0.573   8.423  21.378  0.00  0.00    +0.000 C 
ATOM     22  C   UNL     1       0.828   9.837  21.016  0.00  0.00    +0.000 A 
ATOM     23  N   UNL     1       0.771  10.783  21.964  0.00  0.00    +0.000 NA
ATOM     24  O   UNL     1       1.060  11.977  21.334  0.00  0.00    +0.000 OA
ATOM     25  C   UNL     1       1.284  11.759  20.009  0.00  0.00    +0.000 A 
ATOM     26  C   UNL     1       1.618  12.948  19.210  0.00  0.00    +0.000 C 
ATOM     27  C   UNL     1       1.150  10.408  19.759  0.00  0.00    +0.000 A 
ENDBRANCH  18  27
ENDBRANCH  16  18
ENDBRANCH  15  16
ENDBRANCH   1  15
TORSDOF 6
ENDMDL
MODEL 3
REMARK VINA RESULT:      -8.2      3.329      6.699
REMARK  Name = 
REMARK  8 active torsions:
REMARK  status: ('A' for Active; 'I' for Inactive)
REMARK    1  A    between atoms: C_1  and  C_2
REMARK    2  A    between atoms: C_5  and  C_6
REMARK    3  A    between atoms: C_7  and  S_8
REMARK    4  A    between atoms: S_8  and  N_11
REMARK    5  A    between atoms: N_11  and  C_12
REMARK    6  A    between atoms: C_12  and  C_13
REMARK    7  A    between atoms: C_13  and  C_14
REMARK    8  A    between atoms: C_13  and  N_20
REMARK                            x       y       z     vdW  Elec       q    Type
REMARK                         _______ _______ _______ _____ _____    ______ ____
ROOT
ATOM      1  C   UNL     1       2.561   6.412  18.168  0.00  0.00    +0.000 C 
ENDROOT
BRANCH   1   2
ATOM      2  N   UNL     1       1.743   7.580  18.669  0.00  0.00    +0.000 NA
ATOM      3  C   UNL     1       2.043   7.942  20.064  0.00  0.00    +0.000 C 
ATOM      4  C   UNL     1       0.825   8.539  20.777  0.00  0.00    +0.000 C 
ATOM      5  C   UNL     1       0.623  10.034  20.575  0.00  0.00    +0.000 C 
ATOM      6  C   UNL     1       0.444  10.453  19.125  0.00  0.00    +0.000 C 
ATOM      7  C   UNL     1       1.667  10.149  18.274  0.00  0.00    +0.000 C 
ATOM      8  C   UNL     1       1.692   8.717  17.731  0.00  0.00    +0.000 C 
ENDBRANCH   1   2
BRANCH   1   9
ATOM      9  C   UNL     1       2.125   5.036  18.735  0.00  0.00    +0.000 A 
ATOM     10  C   UNL     1       1.624   4.908  20.041  0.00  0.00    +0.000 A 
ATOM     11  C   UNL     1       0.974   3.742  20.462  0.00  0.00    +0.000 A 
ATOM     12  C   UNL     1       0.845   2.658  19.599  0.00  0.00    +0.000 A 
ATOM     13  C   UNL     1       1.424   2.719  18.334  0.00  0.00    +0.000 A 
ATOM     14  C   UNL     1       2.066   3.894  17.906  0.00  0.00    +0.000 A 
ENDBRANCH   1   9
BRANCH   1  15
ATOM     15  C   UNL     1       4.087   6.701  18.397  0.00  0.00    +0.000 C 
BRANCH  15  16
ATOM     16  N   UNL     1       4.656   5.899  19.514  0.00  0.00    +0.000 NA
ATOM     17  H   UNL     1       4.786   6.463  20.358  0.00  0.00    +0.000 HD
BRANCH  16  18
ATOM     18  S   UNL     1       5.982   4.931  19.135  0.00  0.00    +0.000 S 
ATOM     19  O   UNL     1       5.538   3.585  18.888  0.00  0.00    +0.000 OA
ATOM     20  O   UNL     1       7.031   5.237  20.086  0.00  0.00    +0.000 OA
BRANCH  18  27
ATOM     21  C   UNL     1       5.617   3.686  15.981  0.00  0.00    +0.000 C 
ATOM     22  C   UNL     1       6.423   4.868  16.367  0.00  0.00    +0.000 A 
ATOM     23  N   UNL     1       7.101   5.540  15.426  0.00  0.00    +0.000 NA
ATOM     24  O   UNL     1       7.735   6.579  16.077  0.00  0.00    +0.000 OA
ATOM     25  C   UNL     1       7.450   6.534  17.408  0.00  0.00    +0.000 A 
ATOM     26  C   UNL     1       8.051   7.596  18.229  0.00  0.00    +0.000 C 
ATOM     27  C   UNL     1       6.613   5.461  17.639  0.00  0.00    +0.000 A 
ENDBRANCH  18  27
ENDBRANCH  16  18
ENDBRANCH  15  16
ENDBRANCH   1  15
TORSDOF 6
ENDMDL
MODEL 4
REMARK VINA RESULT:      -8.1      0.510      1.265
REMARK  Name = 
REMARK  8 active torsions:
REMARK  status: ('A' for Active; 'I' for Inactive)
REMARK    1  A    between atoms: C_1  and  C_2
REMARK    2  A    between atoms: C_5  and  C_6
REMARK    3  A    between atoms: C_7  and  S_8
REMARK    4  A    between atoms: S_8  and  N_11
REMARK    5  A    between atoms: N_11  and  C_12
REMARK    6  A    between atoms: C_12  and  C_13
REMARK    7  A    between atoms: C_13  and  C_14
REMARK    8  A    between atoms: C_13  and  N_20
REMARK                            x       y       z     vdW  Elec       q    Type
REMARK                         _______ _______ _______ _____ _____    ______ ____
ROOT
ATOM      1  C   UNL     1       3.392   6.568  18.884  0.00  0.00    +0.000 C 
ENDROOT
BRANCH   1   2
ATOM      2  N   UNL     1       4.697   6.150  18.247  0.00  0.00    +0.000 NA
ATOM      3  C   UNL     1       5.485   5.231  19.085  0.00  0.00    +0.000 C 
ATOM      4  C   UNL     1       6.991   5.386  18.849  0.00  0.00    +0.000 C 
ATOM      5  C   UNL     1       7.551   4.584  17.683  0.00  0.00    +0.000 C 
ATOM      6  C   UNL     1       6.930   4.918  16.337  0.00  0.00    +0.000 C 
ATOM      7  C   UNL     1       5.442   4.610  16.287  0.00  0.00    +0.000 C 
ATOM      8  C   UNL     1       4.566   5.742  16.835  0.00  0.00    +0.000 C 
ENDBRANCH   1   2
BRANCH   1   9
ATOM      9  C   UNL     1       2.393   5.405  19.117  0.00  0.00    +0.000 A 
ATOM     10  C   UNL     1       1.983   4.570  18.064  0.00  0.00    +0.000 A 
ATOM     11  C   UNL     1       1.314   3.365  18.307  0.00  0.00    +0.000 A 
ATOM     12  C   UNL     1       1.002   2.984  19.608  0.00  0.00    +0.000 A 
ATOM     13  C   UNL     1       1.304   3.842  20.663  0.00  0.00    +0.000 A 
ATOM     14  C   UNL     1       1.987   5.047  20.421  0.00  0.00    +0.000 A 
ENDBRANCH   1   9
BRANCH   1  15
ATOM     15  C   UNL     1       2.761   7.749  18.064  0.00  0.00    +0.000 C 
BRANCH  15  16
ATOM     16  N   UNL     1       1.494   8.245  18.666  0.00  0.00    +0.000 NA
ATOM     17  H   UNL     1       0.725   7.584  18.530  0.00  0.00    +0.000 HD
BRANCH  16  18
ATOM     18  S   UNL     1       1.082   9.843  18.322  0.00  0.00    +0.000 S 
ATOM     19  O   UNL     1      -0.235   9.884  17.744  0.00  0.00    +0.000 OA
ATOM     20  O   UNL     1       2.227  10.460  17.683  0.00  0.00    +0.000 OA
BRANCH  18  27
ATOM     21  C   UNL     1       1.657  13.109  19.114  0.00  0.00    +0.000 C 
ATOM     22  C   UNL     1       1.213  12.048  20.048  0.00  0.00    +0.000 A 
ATOM     23  N   UNL     1       1.016  12.346  21.340  0.00  0.00    +0.000 NA
ATOM     24  O   UNL     1       0.603  11.176  21.946  0.00  0.00    +0.000 OA
ATOM     25  C   UNL     1       0.556  10.171  21.028  0.00  0.00    +0.000 A 
ATOM     26  C   UNL     1       0.117   8.861  21.532  0.00  0.00    +0.000 C 
ATOM     27  C   UNL     1       0.934  10.681  19.802  0.00  0.00    +0.000 A 
ENDBRANCH  18  27
ENDBRANCH  16  18
ENDBRANCH  15  16
ENDBRANCH   1  15
TORSDOF 6
ENDMDL
MODEL 5
REMARK VINA RESULT:      -8.1      0.699      1.997
REMARK  Name = 
REMARK  8 active torsions:
REMARK  status: ('A' for Active; 'I' for Inactive)
REMARK    1  A    between atoms: C_1  and  C_2
REMARK    2  A    between atoms: C_5  and  C_6
REMARK    3  A    between atoms: C_7  and  S_8
REMARK    4  A    between atoms: S_8  and  N_11
REMARK    5  A    between atoms: N_11  and  C_12
REMARK    6  A    between atoms: C_12  and  C_13
REMARK    7  A    between atoms: C_13  and  C_14
REMARK    8  A    between atoms: C_13  and  N_20
REMARK                            x       y       z     vdW  Elec       q    Type
REMARK                         _______ _______ _______ _____ _____    ______ ____
ROOT
ATOM      1  C   UNL     1       3.387   6.466  18.900  0.00  0.00    +0.000 C 
ENDROOT
BRANCH   1   2
ATOM      2  N   UNL     1       4.684   6.069  18.234  0.00  0.00    +0.000 NA
ATOM      3  C   UNL     1       5.526   5.200  19.074  0.00  0.00    +0.000 C 
ATOM      4  C   UNL     1       7.018   5.394  18.786  0.00  0.00    +0.000 C 
ATOM      5  C   UNL     1       7.567   4.574  17.627  0.00  0.00    +0.000 C 
ATOM      6  C   UNL     1       6.896   4.849  16.292  0.00  0.00    +0.000 C 
ATOM      7  C   UNL     1       5.417   4.495  16.298  0.00  0.00    +0.000 C 
ATOM      8  C   UNL     1       4.523   5.615  16.839  0.00  0.00    +0.000 C 
ENDBRANCH   1   2
BRANCH   1   9
ATOM      9  C   UNL     1       2.402   5.291  19.133  0.00  0.00    +0.000 A 
ATOM     10  C   UNL     1       1.959   4.485  18.071  0.00  0.00    +0.000 A 
ATOM     11  C   UNL     1       1.305   3.270  18.302  0.00  0.00    +0.000 A 
ATOM     12  C   UNL     1       1.042   2.848  19.601  0.00  0.00    +0.000 A 
ATOM     13  C   UNL     1       1.377   3.676  20.669  0.00  0.00    +0.000 A 
ATOM     14  C   UNL     1       2.045   4.891  20.440  0.00  0.00    +0.000 A 
ENDBRANCH   1   9
BRANCH   1  15
ATOM     15  C   UNL     1       2.731   7.652  18.107  0.00  0.00    +0.000 C 
BRANCH  15  16
ATOM     16  N   UNL     1       1.607   8.281  18.853  0.00  0.00    +0.000 NA
ATOM     17  H   UNL     1       0.812   7.643  18.949  0.00  0.00    +0.000 HD
BRANCH  16  18
ATOM     18  S   UNL     1       1.173   9.837  18.372  0.00  0.00    +0.000 S 
ATOM     19  O   UNL     1      -0.145   9.810  17.796  0.00  0.00    +0.000 OA
ATOM     20  O   UNL     1       2.308  10.412  17.679  0.00  0.00    +0.000 OA
BRANCH  18  27
ATOM     21  C   UNL     1      -0.120   9.121  21.444  0.00  0.00    +0.000 C 
ATOM     22  C   UNL     1       0.445  10.422  21.015  0.00  0.00    +0.000 A 
ATOM     23  N   UNL     1       0.462  11.450  21.875  0.00  0.00    +0.000 NA
ATOM     24  O   UNL     1       1.049  12.504  21.202  0.00  0.00    +0.000 OA
ATOM     25  C   UNL     1       1.379  12.119  19.939  0.00  0.00    +0.000 A 
ATOM     26  C   UNL     1       2.029  13.143  19.106  0.00  0.00    +0.000 C 
ATOM     27  C   UNL     1       1.016  10.798  19.774  0.00  0.00    +0.000 A 
ENDBRANCH  18  27
ENDBRANCH  16  18
ENDBRANCH  15  16
ENDBRANCH   1  15
TORSDOF 6
ENDMDL
MODEL 6
REMARK VINA RESULT:      -8.1      0.514      1.591
REMARK  Name = 
REMARK  8 active torsions:
REMARK  status: ('A' for Active; 'I' for Inactive)
REMARK    1  A    between atoms: C_1  and  C_2
REMARK    2  A    between atoms: C_5  and  C_6
REMARK    3  A    between atoms: C_7  and  S_8
REMARK    4  A    between atoms: S_8  and  N_11
REMARK    5  A    between atoms: N_11  and  C_12
REMARK    6  A    between atoms: C_12  and  C_13
REMARK    7  A    between atoms: C_13  and  C_14
REMARK    8  A    between atoms: C_13  and  N_20
REMARK                            x       y       z     vdW  Elec       q    Type
REMARK                         _______ _______ _______ _____ _____    ______ ____
ROOT
ATOM      1  C   UNL     1       3.432   6.295  18.919  0.00  0.00    +0.000 C 
ENDROOT
BRANCH   1   2
ATOM      2  N   UNL     1       4.732   6.032  18.193  0.00  0.00    +0.000 NA
ATOM      3  C   UNL     1       5.543   4.974  18.819  0.00  0.00    +0.000 C 
ATOM      4  C   UNL     1       7.043   5.195  18.599  0.00  0.00    +0.000 C 
ATOM      5  C   UNL     1       7.593   4.652  17.289  0.00  0.00    +0.000 C 
ATOM      6  C   UNL     1       6.948   5.241  16.045  0.00  0.00    +0.000 C 
ATOM      7  C   UNL     1       5.462   4.929  15.955  0.00  0.00    +0.000 C 
ATOM      8  C   UNL     1       4.583   5.914  16.730  0.00  0.00    +0.000 C 
ENDBRANCH   1   2
BRANCH   1   9
ATOM      9  C   UNL     1       2.614   5.019  19.248  0.00  0.00    +0.000 A 
ATOM     10  C   UNL     1       2.286   4.681  20.571  0.00  0.00    +0.000 A 
ATOM     11  C   UNL     1       1.326   3.704  20.858  0.00  0.00    +0.000 A 
ATOM     12  C   UNL     1       0.698   3.011  19.827  0.00  0.00    +0.000 A 
ATOM     13  C   UNL     1       1.080   3.253  18.510  0.00  0.00    +0.000 A 
ATOM     14  C   UNL     1       2.035   4.243  18.220  0.00  0.00    +0.000 A 
ENDBRANCH   1   9
BRANCH   1  15
ATOM     15  C   UNL     1       2.594   7.360  18.127  0.00  0.00    +0.000 C 
BRANCH  15  16
ATOM     16  N   UNL     1       1.748   8.196  19.021  0.00  0.00    +0.000 NA
ATOM     17  H   UNL     1       0.978   7.658  19.427  0.00  0.00    +0.000 HD
BRANCH  16  18
ATOM     18  S   UNL     1       1.280   9.697  18.413  0.00  0.00    +0.000 S 
ATOM     19  O   UNL     1      -0.037   9.592  17.842  0.00  0.00    +0.000 OA
ATOM     20  O   UNL     1       2.402  10.237  17.673  0.00  0.00    +0.000 OA
BRANCH  18  27
ATOM     21  C   UNL     1       1.955  13.027  18.701  0.00  0.00    +0.000 C 
ATOM     22  C   UNL     1       1.424  12.146  19.769  0.00  0.00    +0.000 A 
ATOM     23  N   UNL     1       1.181  12.656  20.985  0.00  0.00    +0.000 NA
ATOM     24  O   UNL     1       0.691  11.614  21.747  0.00  0.00    +0.000 OA
ATOM     25  C   UNL     1       0.644  10.476  21.000  0.00  0.00    +0.000 A 
ATOM     26  C   UNL     1       0.127   9.281  21.684  0.00  0.00    +0.000 C 
ATOM     27  C   UNL     1       1.099  10.768  19.731  0.00  0.00    +0.000 A 
ENDBRANCH  18  27
ENDBRANCH  16  18
ENDBRANCH  15  16
ENDBRANCH   1  15
TORSDOF 6
ENDMDL
MODEL 7
REMARK VINA RESULT:      -8.1      3.882      6.279
REMARK  Name = 
REMARK  8 active torsions:
REMARK  status: ('A' for Active; 'I' for Inactive)
REMARK    1  A    between atoms: C_1  and  C_2
REMARK    2  A    between atoms: C_5  and  C_6
REMARK    3  A    between atoms: C_7  and  S_8
REMARK    4  A    between atoms: S_8  and  N_11
REMARK    5  A    between atoms: N_11  and  C_12
REMARK    6  A    between atoms: C_12  and  C_13
REMARK    7  A    between atoms: C_13  and  C_14
REMARK    8  A    between atoms: C_13  and  N_20
REMARK                            x       y       z     vdW  Elec       q    Type
REMARK                         _______ _______ _______ _____ _____    ______ ____
ROOT
ATOM      1  C   UNL     1       6.317   4.100  15.916  0.00  0.00    +0.000 C 
ENDROOT
BRANCH   1   2
ATOM      2  N   UNL     1       7.064   5.153  16.702  0.00  0.00    +0.000 NA
ATOM      3  C   UNL     1       6.366   6.449  16.746  0.00  0.00    +0.000 C 
ATOM      4  C   UNL     1       7.343   7.624  16.852  0.00  0.00    +0.000 C 
ATOM      5  C   UNL     1       7.789   7.971  18.265  0.00  0.00    +0.000 C 
ATOM      6  C   UNL     1       8.492   6.840  18.996  0.00  0.00    +0.000 C 
ATOM      7  C   UNL     1       7.594   5.631  19.203  0.00  0.00    +0.000 C 
ATOM      8  C   UNL     1       7.569   4.677  18.004  0.00  0.00    +0.000 C 
ENDBRANCH   1   2
BRANCH   1   9
ATOM      9  C   UNL     1       6.457   4.232  14.377  0.00  0.00    +0.000 A 
ATOM     10  C   UNL     1       7.445   5.046  13.799  0.00  0.00    +0.000 A 
ATOM     11  C   UNL     1       7.759   4.958  12.438  0.00  0.00    +0.000 A 
ATOM     12  C   UNL     1       7.063   4.080  11.612  0.00  0.00    +0.000 A 
ATOM     13  C   UNL     1       6.009   3.337  12.137  0.00  0.00    +0.000 A 
ATOM     14  C   UNL     1       5.702   3.416  13.507  0.00  0.00    +0.000 A 
ENDBRANCH   1   9
BRANCH   1  15
ATOM     15  C   UNL     1       4.819   4.058  16.383  0.00  0.00    +0.000 C 
BRANCH  15  16
ATOM     16  N   UNL     1       4.643   3.320  17.663  0.00  0.00    +0.000 NA
ATOM     17  H   UNL     1       5.298   2.538  17.742  0.00  0.00    +0.000 HD
BRANCH  16  18
ATOM     18  S   UNL     1       3.059   2.923  18.082  0.00  0.00    +0.000 S 
ATOM     19  O   UNL     1       3.044   1.641  18.734  0.00  0.00    +0.000 OA
ATOM     20  O   UNL     1       2.219   3.220  16.940  0.00  0.00    +0.000 OA
BRANCH  18  27
ATOM     21  C   UNL     1       2.867   6.327  18.058  0.00  0.00    +0.000 C 
ATOM     22  C   UNL     1       2.506   5.439  19.188  0.00  0.00    +0.000 A 
ATOM     23  N   UNL     1       2.068   5.975  20.336  0.00  0.00    +0.000 NA
ATOM     24  O   UNL     1       1.806   4.915  21.180  0.00  0.00    +0.000 OA
ATOM     25  C   UNL     1       2.090   3.741  20.551  0.00  0.00    +0.000 A 
ATOM     26  C   UNL     1       1.844   2.519  21.331  0.00  0.00    +0.000 C 
ATOM     27  C   UNL     1       2.537   4.025  19.276  0.00  0.00    +0.000 A 
ENDBRANCH  18  27
ENDBRANCH  16  18
ENDBRANCH  15  16
ENDBRANCH   1  15
TORSDOF 6
ENDMDL
MODEL 8
REMARK VINA RESULT:      -8.0      3.769      6.410
REMARK  Name = 
REMARK  8 active torsions:
REMARK  status: ('A' for Active; 'I' for Inactive)
REMARK    1  A    between atoms: C_1  and  C_2
REMARK    2  A    between atoms: C_5  and  C_6
REMARK    3  A    between atoms: C_7  and  S_8
REMARK    4  A    between atoms: S_8  and  N_11
REMARK    5  A    between atoms: N_11  and  C_12
REMARK    6  A    between atoms: C_12  and  C_13
REMARK    7  A    between atoms: C_13  and  C_14
REMARK    8  A    between atoms: C_13  and  N_20
REMARK                            x       y       z     vdW  Elec       q    Type
REMARK                         _______ _______ _______ _____ _____    ______ ____
ROOT
ATOM      1  C   UNL     1       6.231   4.110  15.957  0.00  0.00    +0.000 C 
ENDROOT
BRANCH   1   2
ATOM      2  N   UNL     1       6.992   5.165  16.725  0.00  0.00    +0.000 NA
ATOM      3  C   UNL     1       6.299   6.463  16.771  0.00  0.00    +0.000 C 
ATOM      4  C   UNL     1       7.281   7.637  16.855  0.00  0.00    +0.000 C 
ATOM      5  C   UNL     1       7.749   7.991  18.259  0.00  0.00    +0.000 C 
ATOM      6  C   UNL     1       8.461   6.863  18.987  0.00  0.00    +0.000 C 
ATOM      7  C   UNL     1       7.562   5.656  19.214  0.00  0.00    +0.000 C 
ATOM      8  C   UNL     1       7.516   4.696  18.022  0.00  0.00    +0.000 C 
ENDBRANCH   1   2
BRANCH   1   9
ATOM      9  C   UNL     1       6.366   4.219  14.415  0.00  0.00    +0.000 A 
ATOM     10  C   UNL     1       7.374   4.997  13.822  0.00  0.00    +0.000 A 
ATOM     11  C   UNL     1       7.678   4.882  12.460  0.00  0.00    +0.000 A 
ATOM     12  C   UNL     1       6.953   4.015  11.649  0.00  0.00    +0.000 A 
ATOM     13  C   UNL     1       5.881   3.309  12.189  0.00  0.00    +0.000 A 
ATOM     14  C   UNL     1       5.583   3.414  13.559  0.00  0.00    +0.000 A 
ENDBRANCH   1   9
BRANCH   1  15
ATOM     15  C   UNL     1       4.734   4.092  16.430  0.00  0.00    +0.000 C 
BRANCH  15  16
ATOM     16  N   UNL     1       4.505   3.143  17.553  0.00  0.00    +0.000 NA
ATOM     17  H   UNL     1       5.009   2.263  17.415  0.00  0.00    +0.000 HD
BRANCH  16  18
ATOM     18  S   UNL     1       2.904   2.938  18.038  0.00  0.00    +0.000 S 
ATOM     19  O   UNL     1       2.766   1.673  18.710  0.00  0.00    +0.000 OA
ATOM     20  O   UNL     1       2.059   3.318  16.925  0.00  0.00    +0.000 OA
BRANCH  18  27
ATOM     21  C   UNL     1       2.128   2.599  21.341  0.00  0.00    +0.000 C 
ATOM     22  C   UNL     1       2.228   3.874  20.593  0.00  0.00    +0.000 A 
ATOM     23  N   UNL     1       1.989   5.032  21.225  0.00  0.00    +0.000 NA
ATOM     24  O   UNL     1       2.168   6.027  20.285  0.00  0.00    +0.000 OA
ATOM     25  C   UNL     1       2.507   5.477  19.087  0.00  0.00    +0.000 A 
ATOM     26  C   UNL     1       2.743   6.427  17.989  0.00  0.00    +0.000 C 
ATOM     27  C   UNL     1       2.561   4.106  19.235  0.00  0.00    +0.000 A 
ENDBRANCH  18  27
ENDBRANCH  16  18
ENDBRANCH  15  16
ENDBRANCH   1  15
TORSDOF 6
ENDMDL
MODEL 9
REMARK VINA RESULT:      -8.0      3.358      6.614
REMARK  Name = 
REMARK  8 active torsions:
REMARK  status: ('A' for Active; 'I' for Inactive)
REMARK    1  A    between atoms: C_1  and  C_2
REMARK    2  A    between atoms: C_5  and  C_6
REMARK    3  A    between atoms: C_7  and  S_8
REMARK    4  A    between atoms: S_8  and  N_11
REMARK    5  A    between atoms: N_11  and  C_12
REMARK    6  A    between atoms: C_12  and  C_13
REMARK    7  A    between atoms: C_13  and  C_14
REMARK    8  A    between atoms: C_13  and  N_20
REMARK                            x       y       z     vdW  Elec       q    Type
REMARK                         _______ _______ _______ _____ _____    ______ ____
ROOT
ATOM      1  C   UNL     1       2.581   6.398  18.151  0.00  0.00    +0.000 C 
ENDROOT
BRANCH   1   2
ATOM      2  N   UNL     1       1.767   7.571  18.648  0.00  0.00    +0.000 NA
ATOM      3  C   UNL     1       2.068   7.938  20.042  0.00  0.00    +0.000 C 
ATOM      4  C   UNL     1       0.852   8.543  20.752  0.00  0.00    +0.000 C 
ATOM      5  C   UNL     1       0.657  10.037  20.544  0.00  0.00    +0.000 C 
ATOM      6  C   UNL     1       0.480  10.451  19.093  0.00  0.00    +0.000 C 
ATOM      7  C   UNL     1       1.702  10.139  18.243  0.00  0.00    +0.000 C 
ATOM      8  C   UNL     1       1.721   8.705  17.705  0.00  0.00    +0.000 C 
ENDBRANCH   1   2
BRANCH   1   9
ATOM      9  C   UNL     1       2.141   5.027  18.726  0.00  0.00    +0.000 A 
ATOM     10  C   UNL     1       1.640   4.907  20.033  0.00  0.00    +0.000 A 
ATOM     11  C   UNL     1       0.987   3.745  20.461  0.00  0.00    +0.000 A 
ATOM     12  C   UNL     1       0.855   2.658  19.603  0.00  0.00    +0.000 A 
ATOM     13  C   UNL     1       1.433   2.710  18.338  0.00  0.00    +0.000 A 
ATOM     14  C   UNL     1       2.078   3.881  17.903  0.00  0.00    +0.000 A 
ENDBRANCH   1   9
BRANCH   1  15
ATOM     15  C   UNL     1       4.108   6.684  18.378  0.00  0.00    +0.000 C 
BRANCH  15  16
ATOM     16  N   UNL     1       4.671   5.898  19.509  0.00  0.00    +0.000 NA
ATOM     17  H   UNL     1       4.810   6.478  20.341  0.00  0.00    +0.000 HD
BRANCH  16  18
ATOM     18  S   UNL     1       5.986   4.908  19.146  0.00  0.00    +0.000 S 
ATOM     19  O   UNL     1       5.525   3.565  18.916  0.00  0.00    +0.000 OA
ATOM     20  O   UNL     1       7.036   5.213  20.096  0.00  0.00    +0.000 OA
BRANCH  18  27
ATOM     21  C   UNL     1       8.056   7.498  18.350  0.00  0.00    +0.000 C 
ATOM     22  C   UNL     1       7.475   6.520  17.400  0.00  0.00    +0.000 A 
ATOM     23  N   UNL     1       7.748   6.626  16.093  0.00  0.00    +0.000 NA
ATOM     24  O   UNL     1       7.085   5.584  15.475  0.00  0.00    +0.000 OA
ATOM     25  C   UNL     1       6.406   4.854  16.402  0.00  0.00    +0.000 A 
ATOM     26  C   UNL     1       5.660   3.697  15.886  0.00  0.00    +0.000 C 
ATOM     27  C   UNL     1       6.628   5.411  17.645  0.00  0.00    +0.000 A 
ENDBRANCH  18  27
ENDBRANCH  16  18
ENDBRANCH  15  16
ENDBRANCH   1  15
TORSDOF 6
ENDMDL
