MODEL 1
REMARK VINA RESULT:      -7.6      0.000      0.000
REMARK  Name = 
REMARK  6 active torsions:
REMARK  status: ('A' for Active; 'I' for Inactive)
REMARK    1  A    between atoms: C_1  and  C_2
REMARK    2  A    between atoms: C_2  and  C_3
REMARK    3  A    between atoms: C_3  and  O_4
REMARK    4  A    between atoms: C_3  and  C_18
REMARK    5  A    between atoms: O_4  and  C_5
REMARK    6  A    between atoms: C_5  and  C_7
REMARK                            x       y       z     vdW  Elec       q    Type
REMARK                         _______ _______ _______ _____ _____    ______ ____
ROOT
ATOM      1  C   UNL     1       4.918   3.605  19.191  0.00  0.00    +0.000 C 
ATOM      2  O   UNL     1       5.207   2.617  19.846  0.00  0.00    +0.000 OA
ENDROOT
BRANCH   1   3
ATOM      3  C   UNL     1       5.905   4.531  18.524  0.00  0.00    +0.000 A 
ATOM      4  C   UNL     1       6.602   5.461  19.321  0.00  0.00    +0.000 A 
ATOM      5  C   UNL     1       7.381   6.460  18.741  0.00  0.00    +0.000 A 
ATOM      6  C   UNL     1       7.464   6.541  17.359  0.00  0.00    +0.000 A 
ATOM      7  F   UNL     1       8.175   7.553  16.827  0.00  0.00    +0.000 F 
ATOM      8  C   UNL     1       6.843   5.605  16.529  0.00  0.00    +0.000 A 
ATOM      9  C   UNL     1       6.995   5.703  15.130  0.00  0.00    +0.000 A 
ATOM     10  C   UNL     1       6.449   4.747  14.280  0.00  0.00    +0.000 A 
ATOM     11  C   UNL     1       5.740   3.681  14.819  0.00  0.00    +0.000 A 
ATOM     12  C   UNL     1       5.553   3.588  16.202  0.00  0.00    +0.000 A 
ATOM     13  C   UNL     1       6.074   4.552  17.101  0.00  0.00    +0.000 A 
ENDBRANCH   1   3
BRANCH   1  14
ATOM     14  O   UNL     1       3.650   3.985  18.907  0.00  0.00    +0.000 OA
BRANCH  14  15
ATOM     15  C   UNL     1       2.570   3.148  19.385  0.00  0.00    +0.000 C 
BRANCH  15  16
ATOM     16  C   UNL     1       1.468   2.994  18.309  0.00  0.00    +0.000 C 
ATOM     17  N   UNL     1       0.595   1.959  18.492  0.00  0.00    +0.000 N 
ATOM     18  O   UNL     1       1.329   3.748  17.350  0.00  0.00    +0.000 OA
ATOM     19  H   UNL     1       0.878   1.160  19.059  0.00  0.00    +0.000 HD
ATOM     20  H   UNL     1      -0.082   1.798  17.758  0.00  0.00    +0.000 HD
ENDBRANCH  15  16
BRANCH  15  22
ATOM     21  C   UNL     1       1.691   5.230  20.653  0.00  0.00    +0.000 C 
ATOM     22  C   UNL     1       1.991   3.757  20.657  0.00  0.00    +0.000 C 
ATOM     23  C   UNL     1       2.196   3.068  21.989  0.00  0.00    +0.000 C 
ATOM     24  O   UNL     1       0.953   2.975  21.277  0.00  0.00    +0.000 OA
ENDBRANCH  15  22
ENDBRANCH  14  15
ENDBRANCH   1  14
TORSDOF 5
ENDMDL
MODEL 2
REMARK VINA RESULT:      -7.3      3.574      6.266
REMARK  Name = 
REMARK  6 active torsions:
REMARK  status: ('A' for Active; 'I' for Inactive)
REMARK    1  A    between atoms: C_1  and  C_2
REMARK    2  A    between atoms: C_2  and  C_3
REMARK    3  A    between atoms: C_3  and  O_4
REMARK    4  A    between atoms: C_3  and  C_18
REMARK    5  A    between atoms: O_4  and  C_5
REMARK    6  A    between atoms: C_5  and  C_7
REMARK                            x       y       z     vdW  Elec       q    Type
REMARK                         _______ _______ _______ _____ _____    ______ ____
ROOT
ATOM      1  C   UNL     1       3.948   6.486  17.827  0.00  0.00    +0.000 C 
ATOM      2  O   UNL     1       3.708   7.532  17.246  0.00  0.00    +0.000 OA
ENDROOT
BRANCH   1   3
ATOM      3  C   UNL     1       2.981   5.732  18.705  0.00  0.00    +0.000 A 
ATOM      4  C   UNL     1       2.421   6.396  19.816  0.00  0.00    +0.000 A 
ATOM      5  C   UNL     1       1.672   5.700  20.763  0.00  0.00    +0.000 A 
ATOM      6  C   UNL     1       1.482   4.335  20.611  0.00  0.00    +0.000 A 
ATOM      7  F   UNL     1       0.807   3.680  21.573  0.00  0.00    +0.000 F 
ATOM      8  C   UNL     1       1.964   3.645  19.495  0.00  0.00    +0.000 A 
ATOM      9  C   UNL     1       1.705   2.265  19.362  0.00  0.00    +0.000 A 
ATOM     10  C   UNL     1       2.108   1.565  18.230  0.00  0.00    +0.000 A 
ATOM     11  C   UNL     1       2.779   2.237  17.216  0.00  0.00    +0.000 A 
ATOM     12  C   UNL     1       3.071   3.598  17.348  0.00  0.00    +0.000 A 
ATOM     13  C   UNL     1       2.698   4.344  18.495  0.00  0.00    +0.000 A 
ENDBRANCH   1   3
BRANCH   1  14
ATOM     14  O   UNL     1       5.112   5.804  17.715  0.00  0.00    +0.000 OA
BRANCH  14  15
ATOM     15  C   UNL     1       6.110   6.314  16.799  0.00  0.00    +0.000 C 
BRANCH  15  16
ATOM     16  C   UNL     1       6.652   5.188  15.885  0.00  0.00    +0.000 C 
ATOM     17  N   UNL     1       7.524   5.580  14.908  0.00  0.00    +0.000 N 
ATOM     18  O   UNL     1       6.369   3.999  16.011  0.00  0.00    +0.000 OA
ATOM     19  H   UNL     1       7.509   6.546  14.584  0.00  0.00    +0.000 HD
ATOM     20  H   UNL     1       7.825   4.869  14.254  0.00  0.00    +0.000 HD
ENDBRANCH  15  16
BRANCH  15  22
ATOM     21  C   UNL     1       7.827   6.152  18.732  0.00  0.00    +0.000 C 
ATOM     22  C   UNL     1       7.245   6.945  17.596  0.00  0.00    +0.000 C 
ATOM     23  C   UNL     1       7.421   8.448  17.604  0.00  0.00    +0.000 C 
ATOM     24  O   UNL     1       8.249   7.598  16.796  0.00  0.00    +0.000 OA
ENDBRANCH  15  22
ENDBRANCH  14  15
ENDBRANCH   1  14
TORSDOF 5
ENDMDL
MODEL 3
REMARK VINA RESULT:      -7.2      3.441      6.191
REMARK  Name = 
REMARK  6 active torsions:
REMARK  status: ('A' for Active; 'I' for Inactive)
REMARK    1  A    between atoms: C_1  and  C_2
REMARK    2  A    between atoms: C_2  and  C_3
REMARK    3  A    between atoms: C_3  and  O_4
REMARK    4  A    between atoms: C_3  and  C_18
REMARK    5  A    between atoms: O_4  and  C_5
REMARK    6  A    between atoms: C_5  and  C_7
REMARK                            x       y       z     vdW  Elec       q    Type
REMARK                         _______ _______ _______ _____ _____    ______ ____
ROOT
ATOM      1  C   UNL     1       4.246   3.769  17.041  0.00  0.00    +0.000 C 
ATOM      2  O   UNL     1       3.569   3.502  16.061  0.00  0.00    +0.000 OA
ENDROOT
BRANCH   1   3
ATOM      3  C   UNL     1       3.742   3.837  18.461  0.00  0.00    +0.000 A 
ATOM      4  C   UNL     1       3.795   2.672  19.252  0.00  0.00    +0.000 A 
ATOM      5  C   UNL     1       3.177   2.625  20.500  0.00  0.00    +0.000 A 
ATOM      6  C   UNL     1       2.496   3.739  20.964  0.00  0.00    +0.000 A 
ATOM      7  F   UNL     1       1.858   3.644  22.146  0.00  0.00    +0.000 F 
ATOM      8  C   UNL     1       2.468   4.937  20.245  0.00  0.00    +0.000 A 
ATOM      9  C   UNL     1       1.801   6.058  20.780  0.00  0.00    +0.000 A 
ATOM     10  C   UNL     1       1.815   7.284  20.123  0.00  0.00    +0.000 A 
ATOM     11  C   UNL     1       2.497   7.404  18.918  0.00  0.00    +0.000 A 
ATOM     12  C   UNL     1       3.136   6.292  18.359  0.00  0.00    +0.000 A 
ATOM     13  C   UNL     1       3.126   5.020  18.985  0.00  0.00    +0.000 A 
ENDBRANCH   1   3
BRANCH   1  14
ATOM     14  O   UNL     1       5.583   3.983  17.006  0.00  0.00    +0.000 OA
BRANCH  14  15
ATOM     15  C   UNL     1       6.062   5.150  16.296  0.00  0.00    +0.000 C 
BRANCH  15  16
ATOM     16  C   UNL     1       6.828   4.744  15.013  0.00  0.00    +0.000 C 
ATOM     17  N   UNL     1       6.352   3.645  14.355  0.00  0.00    +0.000 N 
ATOM     18  O   UNL     1       7.790   5.359  14.558  0.00  0.00    +0.000 OA
ATOM     19  H   UNL     1       5.800   2.957  14.867  0.00  0.00    +0.000 HD
ATOM     20  H   UNL     1       6.888   3.322  13.561  0.00  0.00    +0.000 HD
ENDBRANCH  15  16
BRANCH  15  22
ATOM     21  C   UNL     1       7.753   5.217  18.259  0.00  0.00    +0.000 C 
ATOM     22  C   UNL     1       6.964   5.962  17.219  0.00  0.00    +0.000 C 
ATOM     23  C   UNL     1       6.692   7.434  17.441  0.00  0.00    +0.000 C 
ATOM     24  O   UNL     1       7.731   6.986  16.559  0.00  0.00    +0.000 OA
ENDBRANCH  15  22
ENDBRANCH  14  15
ENDBRANCH   1  14
TORSDOF 5
ENDMDL
MODEL 4
REMARK VINA RESULT:      -7.2      3.299      6.205
REMARK  Name = 
REMARK  6 active torsions:
REMARK  status: ('A' for Active; 'I' for Inactive)
REMARK    1  A    between atoms: C_1  and  C_2
REMARK    2  A    between atoms: C_2  and  C_3
REMARK    3  A    between atoms: C_3  and  O_4
REMARK    4  A    between atoms: C_3  and  C_18
REMARK    5  A    between atoms: O_4  and  C_5
REMARK    6  A    between atoms: C_5  and  C_7
REMARK                            x       y       z     vdW  Elec       q    Type
REMARK                         _______ _______ _______ _____ _____    ______ ____
ROOT
ATOM      1  C   UNL     1       4.062   4.333  16.833  0.00  0.00    +0.000 C 
ATOM      2  O   UNL     1       3.621   3.695  15.892  0.00  0.00    +0.000 OA
ENDROOT
BRANCH   1   3
ATOM      3  C   UNL     1       3.234   5.000  17.903  0.00  0.00    +0.000 A 
ATOM      4  C   UNL     1       3.196   6.409  17.947  0.00  0.00    +0.000 A 
ATOM      5  C   UNL     1       2.604   7.075  19.018  0.00  0.00    +0.000 A 
ATOM      6  C   UNL     1       2.051   6.341  20.055  0.00  0.00    +0.000 A 
ATOM      7  F   UNL     1       1.540   7.013  21.103  0.00  0.00    +0.000 F 
ATOM      8  C   UNL     1       2.008   4.945  20.026  0.00  0.00    +0.000 A 
ATOM      9  C   UNL     1       1.392   4.243  21.083  0.00  0.00    +0.000 A 
ATOM     10  C   UNL     1       1.269   2.858  21.050  0.00  0.00    +0.000 A 
ATOM     11  C   UNL     1       1.764   2.155  19.959  0.00  0.00    +0.000 A 
ATOM     12  C   UNL     1       2.406   2.834  18.918  0.00  0.00    +0.000 A 
ATOM     13  C   UNL     1       2.572   4.243  18.923  0.00  0.00    +0.000 A 
ENDBRANCH   1   3
BRANCH   1  14
ATOM     14  O   UNL     1       5.382   4.486  17.096  0.00  0.00    +0.000 OA
BRANCH  14  15
ATOM     15  C   UNL     1       6.109   5.488  16.346  0.00  0.00    +0.000 C 
BRANCH  15  16
ATOM     16  C   UNL     1       6.894   4.845  15.177  0.00  0.00    +0.000 C 
ATOM     17  N   UNL     1       6.500   3.588  14.812  0.00  0.00    +0.000 N 
ATOM     18  O   UNL     1       7.801   5.403  14.564  0.00  0.00    +0.000 OA
ATOM     19  H   UNL     1       6.008   3.003  15.487  0.00  0.00    +0.000 HD
ATOM     20  H   UNL     1       7.053   3.125  14.103  0.00  0.00    +0.000 HD
ENDBRANCH  15  16
BRANCH  15  22
ATOM     21  C   UNL     1       7.776   5.414  18.329  0.00  0.00    +0.000 C 
ATOM     22  C   UNL     1       7.060   6.223  17.284  0.00  0.00    +0.000 C 
ATOM     23  C   UNL     1       6.900   7.711  17.510  0.00  0.00    +0.000 C 
ATOM     24  O   UNL     1       7.913   7.187  16.638  0.00  0.00    +0.000 OA
ENDBRANCH  15  22
ENDBRANCH  14  15
ENDBRANCH   1  14
TORSDOF 5
ENDMDL
MODEL 5
REMARK VINA RESULT:      -6.9      1.598      2.047
REMARK  Name = 
REMARK  6 active torsions:
REMARK  status: ('A' for Active; 'I' for Inactive)
REMARK    1  A    between atoms: C_1  and  C_2
REMARK    2  A    between atoms: C_2  and  C_3
REMARK    3  A    between atoms: C_3  and  O_4
REMARK    4  A    between atoms: C_3  and  C_18
REMARK    5  A    between atoms: O_4  and  C_5
REMARK    6  A    between atoms: C_5  and  C_7
REMARK                            x       y       z     vdW  Elec       q    Type
REMARK                         _______ _______ _______ _____ _____    ______ ____
ROOT
ATOM      1  C   UNL     1       4.978   3.711  19.423  0.00  0.00    +0.000 C 
ATOM      2  O   UNL     1       5.096   2.508  19.589  0.00  0.00    +0.000 OA
ENDROOT
BRANCH   1   3
ATOM      3  C   UNL     1       5.952   4.591  18.679  0.00  0.00    +0.000 A 
ATOM      4  C   UNL     1       6.739   5.500  19.415  0.00  0.00    +0.000 A 
ATOM      5  C   UNL     1       7.514   6.461  18.770  0.00  0.00    +0.000 A 
ATOM      6  C   UNL     1       7.505   6.526  17.385  0.00  0.00    +0.000 A 
ATOM      7  F   UNL     1       8.216   7.503  16.793  0.00  0.00    +0.000 F 
ATOM      8  C   UNL     1       6.791   5.607  16.611  0.00  0.00    +0.000 A 
ATOM      9  C   UNL     1       6.850   5.685  15.204  0.00  0.00    +0.000 A 
ATOM     10  C   UNL     1       6.210   4.744  14.405  0.00  0.00    +0.000 A 
ATOM     11  C   UNL     1       5.498   3.712  15.005  0.00  0.00    +0.000 A 
ATOM     12  C   UNL     1       5.404   3.640  16.399  0.00  0.00    +0.000 A 
ATOM     13  C   UNL     1       6.023   4.592  17.248  0.00  0.00    +0.000 A 
ENDBRANCH   1   3
BRANCH   1  14
ATOM     14  O   UNL     1       3.910   4.434  19.834  0.00  0.00    +0.000 OA
BRANCH  14  15
ATOM     15  C   UNL     1       2.917   4.796  18.845  0.00  0.00    +0.000 C 
BRANCH  15  16
ATOM     16  C   UNL     1       2.463   6.265  19.025  0.00  0.00    +0.000 C 
ATOM     17  N   UNL     1       2.523   6.757  20.298  0.00  0.00    +0.000 N 
ATOM     18  O   UNL     1       2.094   6.992  18.105  0.00  0.00    +0.000 OA
ATOM     19  H   UNL     1       2.501   6.110  21.086  0.00  0.00    +0.000 HD
ATOM     20  H   UNL     1       2.156   7.689  20.444  0.00  0.00    +0.000 HD
ENDBRANCH  15  16
BRANCH  15  22
ATOM     21  C   UNL     1       0.886   3.939  20.206  0.00  0.00    +0.000 C 
ATOM     22  C   UNL     1       1.726   3.852  18.963  0.00  0.00    +0.000 C 
ATOM     23  C   UNL     1       1.693   2.569  18.161  0.00  0.00    +0.000 C 
ATOM     24  O   UNL     1       0.941   3.725  17.763  0.00  0.00    +0.000 OA
ENDBRANCH  15  22
ENDBRANCH  14  15
ENDBRANCH   1  14
TORSDOF 5
ENDMDL
MODEL 6
REMARK VINA RESULT:      -6.9      1.084      1.084
REMARK  Name = 
REMARK  6 active torsions:
REMARK  status: ('A' for Active; 'I' for Inactive)
REMARK    1  A    between atoms: C_1  and  C_2
REMARK    2  A    between atoms: C_2  and  C_3
REMARK    3  A    between atoms: C_3  and  O_4
REMARK    4  A    between atoms: C_3  and  C_18
REMARK    5  A    between atoms: O_4  and  C_5
REMARK    6  A    between atoms: C_5  and  C_7
REMARK                            x       y       z     vdW  Elec       q    Type
REMARK                         _______ _______ _______ _____ _____    ______ ____
ROOT
ATOM      1  C   UNL     1       5.022   3.736  19.420  0.00  0.00    +0.000 C 
ATOM      2  O   UNL     1       5.207   2.564  19.705  0.00  0.00    +0.000 OA
ENDROOT
BRANCH   1   3
ATOM      3  C   UNL     1       5.987   4.615  18.662  0.00  0.00    +0.000 A 
ATOM      4  C   UNL     1       6.814   5.493  19.391  0.00  0.00    +0.000 A 
ATOM      5  C   UNL     1       7.585   6.455  18.741  0.00  0.00    +0.000 A 
ATOM      6  C   UNL     1       7.531   6.550  17.359  0.00  0.00    +0.000 A 
ATOM      7  F   UNL     1       8.241   7.527  16.765  0.00  0.00    +0.000 F 
ATOM      8  C   UNL     1       6.776   5.662  16.590  0.00  0.00    +0.000 A 
ATOM      9  C   UNL     1       6.790   5.769  15.183  0.00  0.00    +0.000 A 
ATOM     10  C   UNL     1       6.106   4.857  14.387  0.00  0.00    +0.000 A 
ATOM     11  C   UNL     1       5.396   3.825  14.987  0.00  0.00    +0.000 A 
ATOM     12  C   UNL     1       5.346   3.724  16.382  0.00  0.00    +0.000 A 
ATOM     13  C   UNL     1       6.011   4.646  17.230  0.00  0.00    +0.000 A 
ENDBRANCH   1   3
BRANCH   1  14
ATOM     14  O   UNL     1       3.881   4.413  19.689  0.00  0.00    +0.000 OA
BRANCH  14  15
ATOM     15  C   UNL     1       2.626   3.806  19.298  0.00  0.00    +0.000 C 
BRANCH  15  16
ATOM     16  C   UNL     1       2.075   4.454  18.004  0.00  0.00    +0.000 C 
ATOM     17  N   UNL     1       2.524   5.715  17.730  0.00  0.00    +0.000 N 
ATOM     18  O   UNL     1       1.306   3.896  17.225  0.00  0.00    +0.000 OA
ATOM     19  H   UNL     1       2.873   6.298  18.490  0.00  0.00    +0.000 HD
ATOM     20  H   UNL     1       2.113   6.181  16.931  0.00  0.00    +0.000 HD
ENDBRANCH  15  16
BRANCH  15  22
ATOM     21  C   UNL     1       1.304   5.343  20.911  0.00  0.00    +0.000 C 
ATOM     22  C   UNL     1       1.623   3.954  20.436  0.00  0.00    +0.000 C 
ATOM     23  C   UNL     1       1.368   2.795  21.376  0.00  0.00    +0.000 C 
ATOM     24  O   UNL     1       0.455   3.119  20.317  0.00  0.00    +0.000 OA
ENDBRANCH  15  22
ENDBRANCH  14  15
ENDBRANCH   1  14
TORSDOF 5
ENDMDL
MODEL 7
REMARK VINA RESULT:      -6.9      3.258      6.016
REMARK  Name = 
REMARK  6 active torsions:
REMARK  status: ('A' for Active; 'I' for Inactive)
REMARK    1  A    between atoms: C_1  and  C_2
REMARK    2  A    between atoms: C_2  and  C_3
REMARK    3  A    between atoms: C_3  and  O_4
REMARK    4  A    between atoms: C_3  and  C_18
REMARK    5  A    between atoms: O_4  and  C_5
REMARK    6  A    between atoms: C_5  and  C_7
REMARK                            x       y       z     vdW  Elec       q    Type
REMARK                         _______ _______ _______ _____ _____    ______ ____
ROOT
ATOM      1  C   UNL     1       3.659   6.823  17.866  0.00  0.00    +0.000 C 
ATOM      2  O   UNL     1       3.264   7.495  16.928  0.00  0.00    +0.000 OA
ENDROOT
BRANCH   1   3
ATOM      3  C   UNL     1       2.795   5.952  18.744  0.00  0.00    +0.000 A 
ATOM      4  C   UNL     1       2.268   6.502  19.930  0.00  0.00    +0.000 A 
ATOM      5  C   UNL     1       1.623   5.699  20.867  0.00  0.00    +0.000 A 
ATOM      6  C   UNL     1       1.504   4.338  20.631  0.00  0.00    +0.000 A 
ATOM      7  F   UNL     1       0.930   3.578  21.581  0.00  0.00    +0.000 F 
ATOM      8  C   UNL     1       1.955   3.757  19.442  0.00  0.00    +0.000 A 
ATOM      9  C   UNL     1       1.769   2.375  19.227  0.00  0.00    +0.000 A 
ATOM     10  C   UNL     1       2.142   1.779  18.026  0.00  0.00    +0.000 A 
ATOM     11  C   UNL     1       2.707   2.559  17.025  0.00  0.00    +0.000 A 
ATOM     12  C   UNL     1       2.926   3.924  17.236  0.00  0.00    +0.000 A 
ATOM     13  C   UNL     1       2.582   4.566  18.453  0.00  0.00    +0.000 A 
ENDBRANCH   1   3
BRANCH   1  14
ATOM     14  O   UNL     1       4.960   6.706  18.223  0.00  0.00    +0.000 OA
BRANCH  14  15
ATOM     15  C   UNL     1       5.664   5.503  17.833  0.00  0.00    +0.000 C 
BRANCH  15  16
ATOM     16  C   UNL     1       6.175   4.731  19.073  0.00  0.00    +0.000 C 
ATOM     17  N   UNL     1       7.254   5.273  19.712  0.00  0.00    +0.000 N 
ATOM     18  O   UNL     1       5.655   3.708  19.513  0.00  0.00    +0.000 OA
ATOM     19  H   UNL     1       7.878   5.896  19.198  0.00  0.00    +0.000 HD
ATOM     20  H   UNL     1       7.647   4.739  20.476  0.00  0.00    +0.000 HD
ENDBRANCH  15  16
BRANCH  15  22
ATOM     21  C   UNL     1       7.475   7.218  17.129  0.00  0.00    +0.000 C 
ATOM     22  C   UNL     1       6.828   5.877  16.922  0.00  0.00    +0.000 C 
ATOM     23  C   UNL     1       6.984   5.203  15.576  0.00  0.00    +0.000 C 
ATOM     24  O   UNL     1       7.783   4.820  16.706  0.00  0.00    +0.000 OA
ENDBRANCH  15  22
ENDBRANCH  14  15
ENDBRANCH   1  14
TORSDOF 5
ENDMDL
MODEL 8
REMARK VINA RESULT:      -6.9      1.515      2.304
REMARK  Name = 
REMARK  6 active torsions:
REMARK  status: ('A' for Active; 'I' for Inactive)
REMARK    1  A    between atoms: C_1  and  C_2
REMARK    2  A    between atoms: C_2  and  C_3
REMARK    3  A    between atoms: C_3  and  O_4
REMARK    4  A    between atoms: C_3  and  C_18
REMARK    5  A    between atoms: O_4  and  C_5
REMARK    6  A    between atoms: C_5  and  C_7
REMARK                            x       y       z     vdW  Elec       q    Type
REMARK                         _______ _______ _______ _____ _____    ______ ____
ROOT
ATOM      1  C   UNL     1       3.297   4.385  17.799  0.00  0.00    +0.000 C 
ATOM      2  O   UNL     1       2.237   4.971  17.651  0.00  0.00    +0.000 OA
ENDROOT
BRANCH   1   3
ATOM      3  C   UNL     1       4.665   4.980  17.575  0.00  0.00    +0.000 A 
ATOM      4  C   UNL     1       5.214   5.805  18.577  0.00  0.00    +0.000 A 
ATOM      5  C   UNL     1       6.383   6.527  18.349  0.00  0.00    +0.000 A 
ATOM      6  C   UNL     1       7.009   6.437  17.115  0.00  0.00    +0.000 A 
ATOM      7  F   UNL     1       8.102   7.193  16.904  0.00  0.00    +0.000 F 
ATOM      8  C   UNL     1       6.538   5.585  16.113  0.00  0.00    +0.000 A 
ATOM      9  C   UNL     1       7.236   5.492  14.890  0.00  0.00    +0.000 A 
ATOM     10  C   UNL     1       6.834   4.602  13.900  0.00  0.00    +0.000 A 
ATOM     11  C   UNL     1       5.726   3.794  14.119  0.00  0.00    +0.000 A 
ATOM     12  C   UNL     1       5.004   3.897  15.313  0.00  0.00    +0.000 A 
ATOM     13  C   UNL     1       5.367   4.807  16.338  0.00  0.00    +0.000 A 
ENDBRANCH   1   3
BRANCH   1  14
ATOM     14  O   UNL     1       3.406   3.115  18.255  0.00  0.00    +0.000 OA
BRANCH  14  15
ATOM     15  C   UNL     1       3.757   2.923  19.646  0.00  0.00    +0.000 C 
BRANCH  15  16
ATOM     16  C   UNL     1       4.580   1.626  19.838  0.00  0.00    +0.000 C 
ATOM     17  N   UNL     1       4.410   0.664  18.883  0.00  0.00    +0.000 N 
ATOM     18  O   UNL     1       5.373   1.440  20.758  0.00  0.00    +0.000 OA
ATOM     19  H   UNL     1       3.553   0.655  18.330  0.00  0.00    +0.000 HD
ATOM     20  H   UNL     1       4.880  -0.219  19.036  0.00  0.00    +0.000 HD
ENDBRANCH  15  16
BRANCH  15  22
ATOM     21  C   UNL     1       1.296   2.156  19.905  0.00  0.00    +0.000 C 
ATOM     22  C   UNL     1       2.483   2.874  20.482  0.00  0.00    +0.000 C 
ATOM     23  C   UNL     1       2.244   3.908  21.561  0.00  0.00    +0.000 C 
ATOM     24  O   UNL     1       2.693   2.582  21.877  0.00  0.00    +0.000 OA
ENDBRANCH  15  22
ENDBRANCH  14  15
ENDBRANCH   1  14
TORSDOF 5
ENDMDL
MODEL 9
REMARK VINA RESULT:      -6.9      1.213      1.925
REMARK  Name = 
REMARK  6 active torsions:
REMARK  status: ('A' for Active; 'I' for Inactive)
REMARK    1  A    between atoms: C_1  and  C_2
REMARK    2  A    between atoms: C_2  and  C_3
REMARK    3  A    between atoms: C_3  and  O_4
REMARK    4  A    between atoms: C_3  and  C_18
REMARK    5  A    between atoms: O_4  and  C_5
REMARK    6  A    between atoms: C_5  and  C_7
REMARK                            x       y       z     vdW  Elec       q    Type
REMARK                         _______ _______ _______ _____ _____    ______ ____
ROOT
ATOM      1  C   UNL     1       4.811   3.485  19.307  0.00  0.00    +0.000 C 
ATOM      2  O   UNL     1       5.056   2.412  19.835  0.00  0.00    +0.000 OA
ENDROOT
BRANCH   1   3
ATOM      3  C   UNL     1       5.827   4.398  18.667  0.00  0.00    +0.000 A 
ATOM      4  C   UNL     1       6.585   5.249  19.495  0.00  0.00    +0.000 A 
ATOM      5  C   UNL     1       7.400   6.240  18.950  0.00  0.00    +0.000 A 
ATOM      6  C   UNL     1       7.458   6.391  17.573  0.00  0.00    +0.000 A 
ATOM      7  F   UNL     1       8.206   7.394  17.078  0.00  0.00    +0.000 F 
ATOM      8  C   UNL     1       6.775   5.531  16.709  0.00  0.00    +0.000 A 
ATOM      9  C   UNL     1       6.903   5.695  15.314  0.00  0.00    +0.000 A 
ATOM     10  C   UNL     1       6.293   4.814  14.428  0.00  0.00    +0.000 A 
ATOM     11  C   UNL     1       5.544   3.755  14.927  0.00  0.00    +0.000 A 
ATOM     12  C   UNL     1       5.382   3.597  16.308  0.00  0.00    +0.000 A 
ATOM     13  C   UNL     1       5.968   4.487  17.244  0.00  0.00    +0.000 A 
ENDBRANCH   1   3
BRANCH   1  14
ATOM     14  O   UNL     1       3.564   3.992  19.159  0.00  0.00    +0.000 OA
BRANCH  14  15
ATOM     15  C   UNL     1       2.961   4.649  20.299  0.00  0.00    +0.000 C 
BRANCH  15  16
ATOM     16  C   UNL     1       1.991   3.698  21.040  0.00  0.00    +0.000 C 
ATOM     17  N   UNL     1       0.882   3.312  20.341  0.00  0.00    +0.000 N 
ATOM     18  O   UNL     1       2.180   3.264  22.175  0.00  0.00    +0.000 OA
ATOM     19  H   UNL     1       0.549   3.893  19.573  0.00  0.00    +0.000 HD
ATOM     20  H   UNL     1       0.201   2.754  20.839  0.00  0.00    +0.000 HD
ENDBRANCH  15  16
BRANCH  15  22
ATOM     21  C   UNL     1       2.208   6.181  18.350  0.00  0.00    +0.000 C 
ATOM     22  C   UNL     1       2.225   5.897  19.825  0.00  0.00    +0.000 C 
ATOM     23  C   UNL     1       1.987   7.046  20.782  0.00  0.00    +0.000 C 
ATOM     24  O   UNL     1       0.947   6.113  20.454  0.00  0.00    +0.000 OA
ENDBRANCH  15  22
ENDBRANCH  14  15
ENDBRANCH   1  14
TORSDOF 5
ENDMDL
