MODEL 1
REMARK VINA RESULT:      -9.2      0.000      0.000
REMARK  Name = 
REMARK  3 active torsions:
REMARK  status: ('A' for Active; 'I' for Inactive)
REMARK    1  A    between atoms: C_2  and  C_3
REMARK    2  A    between atoms: C_4  and  C_5
REMARK    3  A    between atoms: N_12  and  C_13
REMARK                            x       y       z     vdW  Elec       q    Type
REMARK                         _______ _______ _______ _____ _____    ______ ____
ROOT
ATOM      1  O   UNL     1       6.654   7.332  16.489  0.00  0.00    +0.000 OA
ATOM      2  C   UNL     1       7.149   7.168  17.598  0.00  0.00    +0.000 C 
ATOM      3  N   UNL     1       6.733   6.272  18.567  0.00  0.00    +0.000 N 
ATOM      4  H   UNL     1       7.141   6.354  19.489  0.00  0.00    +0.000 HD
ENDROOT
BRANCH   3   5
ATOM      5  C   UNL     1       5.684   5.334  18.432  0.00  0.00    +0.000 A 
ATOM      6  C   UNL     1       5.645   4.382  17.408  0.00  0.00    +0.000 A 
ATOM      7  C   UNL     1       4.550   3.528  17.270  0.00  0.00    +0.000 A 
ATOM      8  C   UNL     1       3.493   3.633  18.165  0.00  0.00    +0.000 A 
ATOM      9  O   UNL     1       2.376   2.808  17.938  0.00  0.00    +0.000 OA
ATOM     10  C   UNL     1       1.240   2.917  18.724  0.00  0.00    +0.000 A 
ATOM     11  O   UNL     1       0.218   2.280  18.496  0.00  0.00    +0.000 OA
ATOM     12  C   UNL     1       1.314   3.833  19.877  0.00  0.00    +0.000 A 
ATOM     13  C   UNL     1       2.385   4.591  20.126  0.00  0.00    +0.000 A 
ATOM     14  C   UNL     1       3.524   4.537  19.224  0.00  0.00    +0.000 A 
ATOM     15  C   UNL     1       4.637   5.376  19.368  0.00  0.00    +0.000 A 
ENDBRANCH   3   5
BRANCH   2  16
ATOM     16  C   UNL     1       8.302   7.996  18.048  0.00  0.00    +0.000 C 
ATOM     17  C   UNL     1       8.138   9.318  18.222  0.00  0.00    +0.000 C 
BRANCH  17  18
ATOM     18  C   UNL     1       9.198  10.243  18.649  0.00  0.00    +0.000 A 
ATOM     19  C   UNL     1      10.051  10.879  17.733  0.00  0.00    +0.000 A 
ATOM     20  C   UNL     1      11.032  11.769  18.176  0.00  0.00    +0.000 A 
ATOM     21  C   UNL     1      11.152  12.038  19.533  0.00  0.00    +0.000 A 
ATOM     22  F   UNL     1      12.093  12.892  19.954  0.00  0.00    +0.000 F 
ATOM     23  C   UNL     1      10.305  11.439  20.455  0.00  0.00    +0.000 A 
ATOM     24  C   UNL     1       9.325  10.546  20.014  0.00  0.00    +0.000 A 
ENDBRANCH  17  18
ENDBRANCH   2  16
TORSDOF 3
ENDMDL
MODEL 2
REMARK VINA RESULT:      -9.1      1.289      1.486
REMARK  Name = 
REMARK  3 active torsions:
REMARK  status: ('A' for Active; 'I' for Inactive)
REMARK    1  A    between atoms: C_2  and  C_3
REMARK    2  A    between atoms: C_4  and  C_5
REMARK    3  A    between atoms: N_12  and  C_13
REMARK                            x       y       z     vdW  Elec       q    Type
REMARK                         _______ _______ _______ _____ _____    ______ ____
ROOT
ATOM      1  O   UNL     1       7.914   6.426  18.473  0.00  0.00    +0.000 OA
ATOM      2  C   UNL     1       7.318   7.282  17.832  0.00  0.00    +0.000 C 
ATOM      3  N   UNL     1       6.059   7.170  17.269  0.00  0.00    +0.000 N 
ATOM      4  H   UNL     1       5.759   7.903  16.640  0.00  0.00    +0.000 HD
ENDROOT
BRANCH   3   5
ATOM      5  C   UNL     1       5.199   6.054  17.380  0.00  0.00    +0.000 A 
ATOM      6  C   UNL     1       5.270   4.952  16.521  0.00  0.00    +0.000 A 
ATOM      7  C   UNL     1       4.348   3.910  16.620  0.00  0.00    +0.000 A 
ATOM      8  C   UNL     1       3.351   3.978  17.585  0.00  0.00    +0.000 A 
ATOM      9  O   UNL     1       2.396   2.945  17.594  0.00  0.00    +0.000 OA
ATOM     10  C   UNL     1       1.314   2.985  18.459  0.00  0.00    +0.000 A 
ATOM     11  O   UNL     1       0.416   2.151  18.429  0.00  0.00    +0.000 OA
ATOM     12  C   UNL     1       1.291   4.079  19.447  0.00  0.00    +0.000 A 
ATOM     13  C   UNL     1       2.215   5.043  19.473  0.00  0.00    +0.000 A 
ATOM     14  C   UNL     1       3.282   5.038  18.486  0.00  0.00    +0.000 A 
ATOM     15  C   UNL     1       4.226   6.070  18.393  0.00  0.00    +0.000 A 
ENDBRANCH   3   5
BRANCH   2  16
ATOM     16  C   UNL     1       7.950   8.601  17.552  0.00  0.00    +0.000 C 
ATOM     17  C   UNL     1       8.530   9.283  18.554  0.00  0.00    +0.000 C 
BRANCH  17  18
ATOM     18  C   UNL     1       9.174  10.596  18.409  0.00  0.00    +0.000 A 
ATOM     19  C   UNL     1      10.485  10.841  18.847  0.00  0.00    +0.000 A 
ATOM     20  C   UNL     1      11.071  12.097  18.671  0.00  0.00    +0.000 A 
ATOM     21  C   UNL     1      10.354  13.105  18.041  0.00  0.00    +0.000 A 
ATOM     22  F   UNL     1      10.918  14.307  17.872  0.00  0.00    +0.000 F 
ATOM     23  C   UNL     1       9.065  12.880  17.578  0.00  0.00    +0.000 A 
ATOM     24  C   UNL     1       8.477  11.625  17.757  0.00  0.00    +0.000 A 
ENDBRANCH  17  18
ENDBRANCH   2  16
TORSDOF 3
ENDMDL
MODEL 3
REMARK VINA RESULT:      -9.0      1.047      1.048
REMARK  Name = 
REMARK  3 active torsions:
REMARK  status: ('A' for Active; 'I' for Inactive)
REMARK    1  A    between atoms: C_2  and  C_3
REMARK    2  A    between atoms: C_4  and  C_5
REMARK    3  A    between atoms: N_12  and  C_13
REMARK                            x       y       z     vdW  Elec       q    Type
REMARK                         _______ _______ _______ _____ _____    ______ ____
ROOT
ATOM      1  O   UNL     1       7.952   6.042  17.527  0.00  0.00    +0.000 OA
ATOM      2  C   UNL     1       7.264   7.055  17.529  0.00  0.00    +0.000 C 
ATOM      3  N   UNL     1       5.882   7.118  17.511  0.00  0.00    +0.000 N 
ATOM      4  H   UNL     1       5.455   8.023  17.361  0.00  0.00    +0.000 HD
ENDROOT
BRANCH   3   5
ATOM      5  C   UNL     1       5.001   6.013  17.546  0.00  0.00    +0.000 A 
ATOM      6  C   UNL     1       4.977   5.030  16.550  0.00  0.00    +0.000 A 
ATOM      7  C   UNL     1       4.036   4.001  16.587  0.00  0.00    +0.000 A 
ATOM      8  C   UNL     1       3.118   3.961  17.629  0.00  0.00    +0.000 A 
ATOM      9  O   UNL     1       2.138   2.952  17.581  0.00  0.00    +0.000 OA
ATOM     10  C   UNL     1       1.127   2.898  18.528  0.00  0.00    +0.000 A 
ATOM     11  O   UNL     1       0.207   2.091  18.462  0.00  0.00    +0.000 OA
ATOM     12  C   UNL     1       1.210   3.855  19.646  0.00  0.00    +0.000 A 
ATOM     13  C   UNL     1       2.160   4.791  19.722  0.00  0.00    +0.000 A 
ATOM     14  C   UNL     1       3.148   4.895  18.661  0.00  0.00    +0.000 A 
ATOM     15  C   UNL     1       4.110   5.914  18.627  0.00  0.00    +0.000 A 
ENDBRANCH   3   5
BRANCH   2  16
ATOM     16  C   UNL     1       7.894   8.404  17.515  0.00  0.00    +0.000 C 
ATOM     17  C   UNL     1       8.413   8.904  18.649  0.00  0.00    +0.000 C 
BRANCH  17  18
ATOM     18  C   UNL     1       9.048  10.224  18.767  0.00  0.00    +0.000 A 
ATOM     19  C   UNL     1       8.828  11.248  17.832  0.00  0.00    +0.000 A 
ATOM     20  C   UNL     1       9.432  12.497  17.991  0.00  0.00    +0.000 A 
ATOM     21  C   UNL     1      10.244  12.731  19.092  0.00  0.00    +0.000 A 
ATOM     22  F   UNL     1      10.821  13.930  19.243  0.00  0.00    +0.000 F 
ATOM     23  C   UNL     1      10.458  11.742  20.043  0.00  0.00    +0.000 A 
ATOM     24  C   UNL     1       9.856  10.491  19.883  0.00  0.00    +0.000 A 
ENDBRANCH  17  18
ENDBRANCH   2  16
TORSDOF 3
ENDMDL
MODEL 4
REMARK VINA RESULT:      -8.9      1.503      1.693
REMARK  Name = 
REMARK  3 active torsions:
REMARK  status: ('A' for Active; 'I' for Inactive)
REMARK    1  A    between atoms: C_2  and  C_3
REMARK    2  A    between atoms: C_4  and  C_5
REMARK    3  A    between atoms: N_12  and  C_13
REMARK                            x       y       z     vdW  Elec       q    Type
REMARK                         _______ _______ _______ _____ _____    ______ ____
ROOT
ATOM      1  O   UNL     1       8.193   6.891  18.557  0.00  0.00    +0.000 OA
ATOM      2  C   UNL     1       7.649   7.663  17.777  0.00  0.00    +0.000 C 
ATOM      3  N   UNL     1       6.459   7.458  17.102  0.00  0.00    +0.000 N 
ATOM      4  H   UNL     1       6.210   8.117  16.376  0.00  0.00    +0.000 HD
ENDROOT
BRANCH   3   5
ATOM      5  C   UNL     1       5.614   6.332  17.235  0.00  0.00    +0.000 A 
ATOM      6  C   UNL     1       5.773   5.170  16.471  0.00  0.00    +0.000 A 
ATOM      7  C   UNL     1       4.866   4.115  16.582  0.00  0.00    +0.000 A 
ATOM      8  C   UNL     1       3.799   4.230  17.463  0.00  0.00    +0.000 A 
ATOM      9  O   UNL     1       2.867   3.177  17.482  0.00  0.00    +0.000 OA
ATOM     10  C   UNL     1       1.722   3.253  18.260  0.00  0.00    +0.000 A 
ATOM     11  O   UNL     1       0.846   2.397  18.229  0.00  0.00    +0.000 OA
ATOM     12  C   UNL     1       1.603   4.418  19.156  0.00  0.00    +0.000 A 
ATOM     13  C   UNL     1       2.504   5.405  19.176  0.00  0.00    +0.000 A 
ATOM     14  C   UNL     1       3.641   5.353  18.273  0.00  0.00    +0.000 A 
ATOM     15  C   UNL     1       4.569   6.399  18.171  0.00  0.00    +0.000 A 
ENDBRANCH   3   5
BRANCH   2  16
ATOM     16  C   UNL     1       8.279   8.968  17.433  0.00  0.00    +0.000 C 
ATOM     17  C   UNL     1       8.680   9.789  18.418  0.00  0.00    +0.000 C 
BRANCH  17  18
ATOM     18  C   UNL     1       9.301  11.104  18.209  0.00  0.00    +0.000 A 
ATOM     19  C   UNL     1       8.545  12.256  17.941  0.00  0.00    +0.000 A 
ATOM     20  C   UNL     1       9.171  13.493  17.771  0.00  0.00    +0.000 A 
ATOM     21  C   UNL     1      10.551  13.585  17.885  0.00  0.00    +0.000 A 
ATOM     22  F   UNL     1      11.149  14.772  17.722  0.00  0.00    +0.000 F 
ATOM     23  C   UNL     1      11.318  12.464  18.173  0.00  0.00    +0.000 A 
ATOM     24  C   UNL     1      10.694  11.225  18.340  0.00  0.00    +0.000 A 
ENDBRANCH  17  18
ENDBRANCH   2  16
TORSDOF 3
ENDMDL
MODEL 5
REMARK VINA RESULT:      -8.7      1.841      2.227
REMARK  Name = 
REMARK  3 active torsions:
REMARK  status: ('A' for Active; 'I' for Inactive)
REMARK    1  A    between atoms: C_2  and  C_3
REMARK    2  A    between atoms: C_4  and  C_5
REMARK    3  A    between atoms: N_12  and  C_13
REMARK                            x       y       z     vdW  Elec       q    Type
REMARK                         _______ _______ _______ _____ _____    ______ ____
ROOT
ATOM      1  O   UNL     1       8.483   7.660  18.822  0.00  0.00    +0.000 OA
ATOM      2  C   UNL     1       8.006   8.283  17.882  0.00  0.00    +0.000 C 
ATOM      3  N   UNL     1       6.997   7.862  17.034  0.00  0.00    +0.000 N 
ATOM      4  H   UNL     1       6.812   8.419  16.210  0.00  0.00    +0.000 HD
ENDROOT
BRANCH   3   5
ATOM      5  C   UNL     1       6.285   6.644  17.135  0.00  0.00    +0.000 A 
ATOM      6  C   UNL     1       6.842   5.409  16.787  0.00  0.00    +0.000 A 
ATOM      7  C   UNL     1       6.074   4.244  16.828  0.00  0.00    +0.000 A 
ATOM      8  C   UNL     1       4.744   4.324  17.220  0.00  0.00    +0.000 A 
ATOM      9  O   UNL     1       3.988   3.139  17.169  0.00  0.00    +0.000 OA
ATOM     10  C   UNL     1       2.631   3.148  17.450  0.00  0.00    +0.000 A 
ATOM     11  O   UNL     1       1.926   2.153  17.325  0.00  0.00    +0.000 OA
ATOM     12  C   UNL     1       2.059   4.419  17.931  0.00  0.00    +0.000 A 
ATOM     13  C   UNL     1       2.778   5.542  18.022  0.00  0.00    +0.000 A 
ATOM     14  C   UNL     1       4.175   5.531  17.619  0.00  0.00    +0.000 A 
ATOM     15  C   UNL     1       4.959   6.692  17.595  0.00  0.00    +0.000 A 
ENDBRANCH   3   5
BRANCH   2  16
ATOM     16  C   UNL     1       8.527   9.630  17.518  0.00  0.00    +0.000 C 
ATOM     17  C   UNL     1       9.099  10.395  18.463  0.00  0.00    +0.000 C 
BRANCH  17  18
ATOM     18  C   UNL     1       9.638  11.743  18.233  0.00  0.00    +0.000 A 
ATOM     19  C   UNL     1      10.854  11.960  17.566  0.00  0.00    +0.000 A 
ATOM     20  C   UNL     1      11.323  13.258  17.347  0.00  0.00    +0.000 A 
ATOM     21  C   UNL     1      10.569  14.341  17.779  0.00  0.00    +0.000 A 
ATOM     22  F   UNL     1      11.020  15.584  17.567  0.00  0.00    +0.000 F 
ATOM     23  C   UNL     1       9.352  14.152  18.420  0.00  0.00    +0.000 A 
ATOM     24  C   UNL     1       8.884  12.854  18.643  0.00  0.00    +0.000 A 
ENDBRANCH  17  18
ENDBRANCH   2  16
TORSDOF 3
ENDMDL
MODEL 6
REMARK VINA RESULT:      -8.5      1.059      1.466
REMARK  Name = 
REMARK  3 active torsions:
REMARK  status: ('A' for Active; 'I' for Inactive)
REMARK    1  A    between atoms: C_2  and  C_3
REMARK    2  A    between atoms: C_4  and  C_5
REMARK    3  A    between atoms: N_12  and  C_13
REMARK                            x       y       z     vdW  Elec       q    Type
REMARK                         _______ _______ _______ _____ _____    ______ ____
ROOT
ATOM      1  O   UNL     1       7.092   6.529  16.153  0.00  0.00    +0.000 OA
ATOM      2  C   UNL     1       7.079   7.068  17.253  0.00  0.00    +0.000 C 
ATOM      3  N   UNL     1       6.063   7.015  18.191  0.00  0.00    +0.000 N 
ATOM      4  H   UNL     1       6.127   7.633  18.989  0.00  0.00    +0.000 HD
ENDROOT
BRANCH   3   5
ATOM      5  C   UNL     1       4.865   6.274  18.073  0.00  0.00    +0.000 A 
ATOM      6  C   UNL     1       3.625   6.871  17.819  0.00  0.00    +0.000 A 
ATOM      7  C   UNL     1       2.458   6.106  17.790  0.00  0.00    +0.000 A 
ATOM      8  C   UNL     1       2.540   4.739  18.016  0.00  0.00    +0.000 A 
ATOM      9  O   UNL     1       1.330   4.022  18.058  0.00  0.00    +0.000 OA
ATOM     10  C   UNL     1       1.313   2.672  18.372  0.00  0.00    +0.000 A 
ATOM     11  O   UNL     1       0.271   2.041  18.508  0.00  0.00    +0.000 OA
ATOM     12  C   UNL     1       2.620   2.008  18.526  0.00  0.00    +0.000 A 
ATOM     13  C   UNL     1       3.777   2.671  18.449  0.00  0.00    +0.000 A 
ATOM     14  C   UNL     1       3.764   4.107  18.223  0.00  0.00    +0.000 A 
ATOM     15  C   UNL     1       4.934   4.880  18.229  0.00  0.00    +0.000 A 
ENDBRANCH   3   5
BRANCH   2  16
ATOM     16  C   UNL     1       8.219   7.916  17.699  0.00  0.00    +0.000 C 
ATOM     17  C   UNL     1       7.987   9.172  18.115  0.00  0.00    +0.000 C 
BRANCH  17  18
ATOM     18  C   UNL     1       9.026  10.109  18.566  0.00  0.00    +0.000 A 
ATOM     19  C   UNL     1       9.839  10.815  17.666  0.00  0.00    +0.000 A 
ATOM     20  C   UNL     1      10.801  11.715  18.132  0.00  0.00    +0.000 A 
ATOM     21  C   UNL     1      10.940  11.923  19.498  0.00  0.00    +0.000 A 
ATOM     22  F   UNL     1      11.862  12.786  19.942  0.00  0.00    +0.000 F 
ATOM     23  C   UNL     1      10.131  11.254  20.406  0.00  0.00    +0.000 A 
ATOM     24  C   UNL     1       9.171  10.351  19.941  0.00  0.00    +0.000 A 
ENDBRANCH  17  18
ENDBRANCH   2  16
TORSDOF 3
ENDMDL
MODEL 7
REMARK VINA RESULT:      -8.2      1.051      1.124
REMARK  Name = 
REMARK  3 active torsions:
REMARK  status: ('A' for Active; 'I' for Inactive)
REMARK    1  A    between atoms: C_2  and  C_3
REMARK    2  A    between atoms: C_4  and  C_5
REMARK    3  A    between atoms: N_12  and  C_13
REMARK                            x       y       z     vdW  Elec       q    Type
REMARK                         _______ _______ _______ _____ _____    ______ ____
ROOT
ATOM      1  O   UNL     1       7.470   6.522  16.298  0.00  0.00    +0.000 OA
ATOM      2  C   UNL     1       7.378   7.244  17.283  0.00  0.00    +0.000 C 
ATOM      3  N   UNL     1       6.524   7.076  18.357  0.00  0.00    +0.000 N 
ATOM      4  H   UNL     1       6.452   7.834  19.024  0.00  0.00    +0.000 HD
ENDROOT
BRANCH   3   5
ATOM      5  C   UNL     1       5.630   5.997  18.545  0.00  0.00    +0.000 A 
ATOM      6  C   UNL     1       6.033   4.758  19.054  0.00  0.00    +0.000 A 
ATOM      7  C   UNL     1       5.131   3.698  19.147  0.00  0.00    +0.000 A 
ATOM      8  C   UNL     1       3.821   3.886  18.726  0.00  0.00    +0.000 A 
ATOM      9  O   UNL     1       2.969   2.767  18.762  0.00  0.00    +0.000 OA
ATOM     10  C   UNL     1       1.675   2.842  18.271  0.00  0.00    +0.000 A 
ATOM     11  O   UNL     1       0.939   1.864  18.203  0.00  0.00    +0.000 OA
ATOM     12  C   UNL     1       1.202   4.170  17.841  0.00  0.00    +0.000 A 
ATOM     13  C   UNL     1       1.991   5.249  17.840  0.00  0.00    +0.000 A 
ATOM     14  C   UNL     1       3.376   5.121  18.260  0.00  0.00    +0.000 A 
ATOM     15  C   UNL     1       4.284   6.187  18.190  0.00  0.00    +0.000 A 
ENDBRANCH   3   5
BRANCH   2  16
ATOM     16  C   UNL     1       8.212   8.472  17.406  0.00  0.00    +0.000 C 
ATOM     17  C   UNL     1       8.473   8.976  18.624  0.00  0.00    +0.000 C 
BRANCH  17  18
ATOM     18  C   UNL     1       9.268  10.185  18.875  0.00  0.00    +0.000 A 
ATOM     19  C   UNL     1       9.784  10.973  17.834  0.00  0.00    +0.000 A 
ATOM     20  C   UNL     1      10.517  12.129  18.113  0.00  0.00    +0.000 A 
ATOM     21  C   UNL     1      10.722  12.509  19.432  0.00  0.00    +0.000 A 
ATOM     22  F   UNL     1      11.424  13.618  19.697  0.00  0.00    +0.000 F 
ATOM     23  C   UNL     1      10.202  11.760  20.479  0.00  0.00    +0.000 A 
ATOM     24  C   UNL     1       9.471  10.601  20.201  0.00  0.00    +0.000 A 
ENDBRANCH  17  18
ENDBRANCH   2  16
TORSDOF 3
ENDMDL
MODEL 8
REMARK VINA RESULT:      -8.1      1.224      1.964
REMARK  Name = 
REMARK  3 active torsions:
REMARK  status: ('A' for Active; 'I' for Inactive)
REMARK    1  A    between atoms: C_2  and  C_3
REMARK    2  A    between atoms: C_4  and  C_5
REMARK    3  A    between atoms: N_12  and  C_13
REMARK                            x       y       z     vdW  Elec       q    Type
REMARK                         _______ _______ _______ _____ _____    ______ ____
ROOT
ATOM      1  O   UNL     1       7.481   6.289  16.492  0.00  0.00    +0.000 OA
ATOM      2  C   UNL     1       7.217   7.279  17.162  0.00  0.00    +0.000 C 
ATOM      3  N   UNL     1       6.004   7.579  17.756  0.00  0.00    +0.000 N 
ATOM      4  H   UNL     1       5.890   8.504  18.150  0.00  0.00    +0.000 HD
ENDROOT
BRANCH   3   5
ATOM      5  C   UNL     1       4.852   6.761  17.746  0.00  0.00    +0.000 A 
ATOM      6  C   UNL     1       3.552   7.279  17.772  0.00  0.00    +0.000 A 
ATOM      7  C   UNL     1       2.447   6.429  17.840  0.00  0.00    +0.000 A 
ATOM      8  C   UNL     1       2.651   5.056  17.884  0.00  0.00    +0.000 A 
ATOM      9  O   UNL     1       1.513   4.244  18.035  0.00  0.00    +0.000 OA
ATOM     10  C   UNL     1       1.634   2.871  18.183  0.00  0.00    +0.000 A 
ATOM     11  O   UNL     1       0.671   2.146  18.409  0.00  0.00    +0.000 OA
ATOM     12  C   UNL     1       2.987   2.302  18.041  0.00  0.00    +0.000 A 
ATOM     13  C   UNL     1       4.070   3.062  17.857  0.00  0.00    +0.000 A 
ATOM     14  C   UNL     1       3.930   4.508  17.811  0.00  0.00    +0.000 A 
ATOM     15  C   UNL     1       5.033   5.368  17.720  0.00  0.00    +0.000 A 
ENDBRANCH   3   5
BRANCH   2  16
ATOM     16  C   UNL     1       8.237   8.341  17.386  0.00  0.00    +0.000 C 
ATOM     17  C   UNL     1       8.184   9.085  18.503  0.00  0.00    +0.000 C 
BRANCH  17  18
ATOM     18  C   UNL     1       9.122  10.168  18.832  0.00  0.00    +0.000 A 
ATOM     19  C   UNL     1       9.381  10.559  20.155  0.00  0.00    +0.000 A 
ATOM     20  C   UNL     1      10.297  11.578  20.428  0.00  0.00    +0.000 A 
ATOM     21  C   UNL     1      10.967  12.196  19.382  0.00  0.00    +0.000 A 
ATOM     22  F   UNL     1      11.845  13.171  19.646  0.00  0.00    +0.000 F 
ATOM     23  C   UNL     1      10.746  11.810  18.067  0.00  0.00    +0.000 A 
ATOM     24  C   UNL     1       9.827  10.793  17.792  0.00  0.00    +0.000 A 
ENDBRANCH  17  18
ENDBRANCH   2  16
TORSDOF 3
ENDMDL
MODEL 9
REMARK VINA RESULT:      -8.0      6.602      9.182
REMARK  Name = 
REMARK  3 active torsions:
REMARK  status: ('A' for Active; 'I' for Inactive)
REMARK    1  A    between atoms: C_2  and  C_3
REMARK    2  A    between atoms: C_4  and  C_5
REMARK    3  A    between atoms: N_12  and  C_13
REMARK                            x       y       z     vdW  Elec       q    Type
REMARK                         _______ _______ _______ _____ _____    ______ ____
ROOT
ATOM      1  O   UNL     1       2.739   9.899  17.739  0.00  0.00    +0.000 OA
ATOM      2  C   UNL     1       1.743   9.277  18.089  0.00  0.00    +0.000 C 
ATOM      3  N   UNL     1       1.675   7.932  18.406  0.00  0.00    +0.000 N 
ATOM      4  H   UNL     1       0.757   7.524  18.530  0.00  0.00    +0.000 HD
ENDROOT
BRANCH   3   5
ATOM      5  C   UNL     1       2.765   7.032  18.439  0.00  0.00    +0.000 A 
ATOM      6  C   UNL     1       3.017   6.186  19.525  0.00  0.00    +0.000 A 
ATOM      7  C   UNL     1       4.150   5.372  19.546  0.00  0.00    +0.000 A 
ATOM      8  C   UNL     1       5.031   5.411  18.472  0.00  0.00    +0.000 A 
ATOM      9  O   UNL     1       6.200   4.634  18.574  0.00  0.00    +0.000 OA
ATOM     10  C   UNL     1       7.177   4.689  17.592  0.00  0.00    +0.000 A 
ATOM     11  O   UNL     1       8.246   4.098  17.695  0.00  0.00    +0.000 OA
ATOM     12  C   UNL     1       6.870   5.485  16.391  0.00  0.00    +0.000 A 
ATOM     13  C   UNL     1       5.745   6.194  16.266  0.00  0.00    +0.000 A 
ATOM     14  C   UNL     1       4.783   6.206  17.356  0.00  0.00    +0.000 A 
ATOM     15  C   UNL     1       3.631   7.004  17.334  0.00  0.00    +0.000 A 
ENDBRANCH   3   5
BRANCH   2  16
ATOM     16  C   UNL     1       0.418   9.950  18.178  0.00  0.00    +0.000 C 
ATOM     17  C   UNL     1      -0.562   9.598  17.329  0.00  0.00    +0.000 C 
BRANCH  17  18
ATOM     18  C   UNL     1      -1.905  10.195  17.308  0.00  0.00    +0.000 A 
ATOM     19  C   UNL     1      -2.406  10.950  18.380  0.00  0.00    +0.000 A 
ATOM     20  C   UNL     1      -3.679  11.520  18.313  0.00  0.00    +0.000 A 
ATOM     21  C   UNL     1      -4.447  11.352  17.169  0.00  0.00    +0.000 A 
ATOM     22  F   UNL     1      -5.667  11.901  17.107  0.00  0.00    +0.000 F 
ATOM     23  C   UNL     1      -3.964  10.630  16.086  0.00  0.00    +0.000 A 
ATOM     24  C   UNL     1      -2.691  10.055  16.153  0.00  0.00    +0.000 A 
ENDBRANCH  17  18
ENDBRANCH   2  16
TORSDOF 3
ENDMDL
