MODEL 1
REMARK VINA RESULT:      -7.1      0.000      0.000
REMARK  Name = 
REMARK  7 active torsions:
REMARK  status: ('A' for Active; 'I' for Inactive)
REMARK    1  A    between atoms: C_1  and  O_2
REMARK    2  A    between atoms: O_2  and  C_3
REMARK    3  A    between atoms: C_5  and  O_6
REMARK    4  A    between atoms: C_9  and  C_10
REMARK    5  A    between atoms: C_10  and  C_11
REMARK    6  A    between atoms: C_12  and  C_13
REMARK    7  A    between atoms: C_16  and  O_17
REMARK                            x       y       z     vdW  Elec       q    Type
REMARK                         _______ _______ _______ _____ _____    ______ ____
ROOT
ATOM      1  C   UNL     1       3.891   3.785  18.139  0.00  0.00    +0.000 C 
ENDROOT
BRANCH   1   7
ATOM      2  C   UNL     1       6.259   4.749  17.690  0.00  0.00    +0.000 A 
ATOM      3  C   UNL     1       7.230   5.152  16.756  0.00  0.00    +0.000 A 
ATOM      4  C   UNL     1       7.007   5.001  15.394  0.00  0.00    +0.000 A 
ATOM      5  C   UNL     1       5.828   4.441  14.936  0.00  0.00    +0.000 A 
ATOM      6  C   UNL     1       4.855   4.042  15.854  0.00  0.00    +0.000 A 
ATOM      7  C   UNL     1       5.045   4.183  17.248  0.00  0.00    +0.000 A 
BRANCH   2   9
ATOM      8  C   UNL     1       7.775   5.733  19.268  0.00  0.00    +0.000 C 
ATOM      9  O   UNL     1       6.710   4.841  18.979  0.00  0.00    +0.000 OA
ENDBRANCH   2   9
BRANCH   4  10
ATOM     10  O   UNL     1       7.935   5.386  14.471  0.00  0.00    +0.000 OA
ATOM     11  H   UNL     1       8.181   6.309  14.646  0.00  0.00    +0.000 HD
ENDBRANCH   4  10
ENDBRANCH   1   7
BRANCH   1  12
ATOM     12  C   UNL     1       3.037   4.894  18.706  0.00  0.00    +0.000 C 
ATOM     13  C   UNL     1       2.801   6.040  18.047  0.00  0.00    +0.000 C 
BRANCH  13  14
ATOM     14  C   UNL     1       2.287   7.291  18.639  0.00  0.00    +0.000 A 
ATOM     15  C   UNL     1       2.002   7.294  20.016  0.00  0.00    +0.000 A 
ATOM     16  C   UNL     1       1.391   8.392  20.630  0.00  0.00    +0.000 A 
ATOM     17  C   UNL     1       1.078   9.509  19.868  0.00  0.00    +0.000 A 
ATOM     18  C   UNL     1       1.396   9.551  18.514  0.00  0.00    +0.000 A 
ATOM     19  C   UNL     1       2.006   8.448  17.902  0.00  0.00    +0.000 A 
BRANCH  17  20
ATOM     20  O   UNL     1       0.445  10.585  20.412  0.00  0.00    +0.000 OA
ATOM     21  H   UNL     1      -0.076  11.023  19.719  0.00  0.00    +0.000 HD
ENDBRANCH  17  20
ENDBRANCH  13  14
ENDBRANCH   1  12
TORSDOF 6
ENDMDL
MODEL 2
REMARK VINA RESULT:      -7.0      0.335      1.152
REMARK  Name = 
REMARK  7 active torsions:
REMARK  status: ('A' for Active; 'I' for Inactive)
REMARK    1  A    between atoms: C_1  and  O_2
REMARK    2  A    between atoms: O_2  and  C_3
REMARK    3  A    between atoms: C_5  and  O_6
REMARK    4  A    between atoms: C_9  and  C_10
REMARK    5  A    between atoms: C_10  and  C_11
REMARK    6  A    between atoms: C_12  and  C_13
REMARK    7  A    between atoms: C_16  and  O_17
REMARK                            x       y       z     vdW  Elec       q    Type
REMARK                         _______ _______ _______ _____ _____    ______ ____
ROOT
ATOM      1  C   UNL     1       3.711   4.047  18.094  0.00  0.00    +0.000 C 
ENDROOT
BRANCH   1   7
ATOM      2  C   UNL     1       6.161   4.810  17.703  0.00  0.00    +0.000 A 
ATOM      3  C   UNL     1       7.181   5.137  16.792  0.00  0.00    +0.000 A 
ATOM      4  C   UNL     1       6.975   5.015  15.424  0.00  0.00    +0.000 A 
ATOM      5  C   UNL     1       5.763   4.560  14.938  0.00  0.00    +0.000 A 
ATOM      6  C   UNL     1       4.741   4.238  15.832  0.00  0.00    +0.000 A 
ATOM      7  C   UNL     1       4.914   4.353  17.231  0.00  0.00    +0.000 A 
BRANCH   2   9
ATOM      8  C   UNL     1       7.692   5.688  19.328  0.00  0.00    +0.000 C 
ATOM      9  O   UNL     1       6.591   4.855  19.001  0.00  0.00    +0.000 OA
ENDBRANCH   2   9
BRANCH   4  10
ATOM     10  O   UNL     1       7.952   5.327  14.523  0.00  0.00    +0.000 OA
ATOM     11  H   UNL     1       8.576   4.585  14.476  0.00  0.00    +0.000 HD
ENDBRANCH   4  10
ENDBRANCH   1   7
BRANCH   1  12
ATOM     12  C   UNL     1       2.707   5.155  18.304  0.00  0.00    +0.000 C 
ATOM     13  C   UNL     1       3.034   6.456  18.233  0.00  0.00    +0.000 C 
BRANCH  13  14
ATOM     14  C   UNL     1       2.231   7.581  18.752  0.00  0.00    +0.000 A 
ATOM     15  C   UNL     1       1.904   8.618  17.861  0.00  0.00    +0.000 A 
ATOM     16  C   UNL     1       1.260   9.779  18.301  0.00  0.00    +0.000 A 
ATOM     17  C   UNL     1       0.920   9.900  19.641  0.00  0.00    +0.000 A 
ATOM     18  C   UNL     1       1.186   8.867  20.533  0.00  0.00    +0.000 A 
ATOM     19  C   UNL     1       1.833   7.706  20.089  0.00  0.00    +0.000 A 
BRANCH  17  20
ATOM     20  O   UNL     1       0.329  11.030  20.124  0.00  0.00    +0.000 OA
ATOM     21  H   UNL     1      -0.154  11.462  19.400  0.00  0.00    +0.000 HD
ENDBRANCH  17  20
ENDBRANCH  13  14
ENDBRANCH   1  12
TORSDOF 6
ENDMDL
MODEL 3
REMARK VINA RESULT:      -6.6      2.206      3.825
REMARK  Name = 
REMARK  7 active torsions:
REMARK  status: ('A' for Active; 'I' for Inactive)
REMARK    1  A    between atoms: C_1  and  O_2
REMARK    2  A    between atoms: O_2  and  C_3
REMARK    3  A    between atoms: C_5  and  O_6
REMARK    4  A    between atoms: C_9  and  C_10
REMARK    5  A    between atoms: C_10  and  C_11
REMARK    6  A    between atoms: C_12  and  C_13
REMARK    7  A    between atoms: C_16  and  O_17
REMARK                            x       y       z     vdW  Elec       q    Type
REMARK                         _______ _______ _______ _____ _____    ______ ____
ROOT
ATOM      1  C   UNL     1       3.434   7.066  17.931  0.00  0.00    +0.000 C 
ENDROOT
BRANCH   1   7
ATOM      2  C   UNL     1       4.349   4.670  18.326  0.00  0.00    +0.000 A 
ATOM      3  C   UNL     1       4.103   3.286  18.365  0.00  0.00    +0.000 A 
ATOM      4  C   UNL     1       2.822   2.789  18.162  0.00  0.00    +0.000 A 
ATOM      5  C   UNL     1       1.767   3.652  17.927  0.00  0.00    +0.000 A 
ATOM      6  C   UNL     1       2.001   5.027  17.881  0.00  0.00    +0.000 A 
ATOM      7  C   UNL     1       3.292   5.569  18.080  0.00  0.00    +0.000 A 
BRANCH   2   9
ATOM      8  C   UNL     1       6.689   4.664  17.796  0.00  0.00    +0.000 C 
ATOM      9  O   UNL     1       5.632   4.978  18.689  0.00  0.00    +0.000 OA
ENDBRANCH   2   9
BRANCH   4  10
ATOM     10  O   UNL     1       2.561   1.450  18.195  0.00  0.00    +0.000 OA
ATOM     11  H   UNL     1       3.325   0.996  18.585  0.00  0.00    +0.000 HD
ENDBRANCH   4  10
ENDBRANCH   1   7
BRANCH   1  12
ATOM     12  C   UNL     1       2.175   7.895  18.020  0.00  0.00    +0.000 C 
ATOM     13  C   UNL     1       2.167   9.226  17.839  0.00  0.00    +0.000 C 
BRANCH  13  14
ATOM     14  C   UNL     1       1.085  10.148  18.239  0.00  0.00    +0.000 A 
ATOM     15  C   UNL     1      -0.240   9.750  17.990  0.00  0.00    +0.000 A 
ATOM     16  C   UNL     1      -1.315  10.615  18.216  0.00  0.00    +0.000 A 
ATOM     17  C   UNL     1      -1.069  11.887  18.715  0.00  0.00    +0.000 A 
ATOM     18  C   UNL     1       0.228  12.287  19.018  0.00  0.00    +0.000 A 
ATOM     19  C   UNL     1       1.303  11.418  18.787  0.00  0.00    +0.000 A 
BRANCH  17  20
ATOM     20  O   UNL     1      -2.079  12.779  18.912  0.00  0.00    +0.000 OA
ATOM     21  H   UNL     1      -2.233  12.868  19.868  0.00  0.00    +0.000 HD
ENDBRANCH  17  20
ENDBRANCH  13  14
ENDBRANCH   1  12
TORSDOF 6
ENDMDL
MODEL 4
REMARK VINA RESULT:      -6.6      2.963      7.865
REMARK  Name = 
REMARK  7 active torsions:
REMARK  status: ('A' for Active; 'I' for Inactive)
REMARK    1  A    between atoms: C_1  and  O_2
REMARK    2  A    between atoms: O_2  and  C_3
REMARK    3  A    between atoms: C_5  and  O_6
REMARK    4  A    between atoms: C_9  and  C_10
REMARK    5  A    between atoms: C_10  and  C_11
REMARK    6  A    between atoms: C_12  and  C_13
REMARK    7  A    between atoms: C_16  and  O_17
REMARK                            x       y       z     vdW  Elec       q    Type
REMARK                         _______ _______ _______ _____ _____    ______ ____
ROOT
ATOM      1  C   UNL     1       1.860   8.713  18.333  0.00  0.00    +0.000 C 
ENDROOT
BRANCH   1   7
ATOM      2  C   UNL     1       0.487  10.370  19.785  0.00  0.00    +0.000 A 
ATOM      3  C   UNL     1       0.022  10.744  21.058  0.00  0.00    +0.000 A 
ATOM      4  C   UNL     1       0.292   9.956  22.169  0.00  0.00    +0.000 A 
ATOM      5  C   UNL     1       1.015   8.784  22.037  0.00  0.00    +0.000 A 
ATOM      6  C   UNL     1       1.487   8.406  20.778  0.00  0.00    +0.000 A 
ATOM      7  C   UNL     1       1.235   9.185  19.625  0.00  0.00    +0.000 A 
BRANCH   2   9
ATOM      8  C   UNL     1      -1.243  10.873  18.201  0.00  0.00    +0.000 C 
ATOM      9  O   UNL     1       0.006  11.186  18.797  0.00  0.00    +0.000 OA
ENDBRANCH   2   9
BRANCH   4  10
ATOM     10  O   UNL     1      -0.150  10.300  23.414  0.00  0.00    +0.000 OA
ATOM     11  H   UNL     1       0.561  10.127  24.053  0.00  0.00    +0.000 HD
ENDBRANCH   4  10
ENDBRANCH   1   7
BRANCH   1  12
ATOM     12  C   UNL     1       2.581   7.386  18.354  0.00  0.00    +0.000 C 
ATOM     13  C   UNL     1       2.077   6.275  17.793  0.00  0.00    +0.000 C 
BRANCH  13  14
ATOM     14  C   UNL     1       2.523   4.893  18.055  0.00  0.00    +0.000 A 
ATOM     15  C   UNL     1       3.829   4.707  18.542  0.00  0.00    +0.000 A 
ATOM     16  C   UNL     1       4.374   3.428  18.692  0.00  0.00    +0.000 A 
ATOM     17  C   UNL     1       3.603   2.320  18.373  0.00  0.00    +0.000 A 
ATOM     18  C   UNL     1       2.291   2.474  17.937  0.00  0.00    +0.000 A 
ATOM     19  C   UNL     1       1.748   3.757  17.786  0.00  0.00    +0.000 A 
BRANCH  17  20
ATOM     20  O   UNL     1       4.105   1.056  18.463  0.00  0.00    +0.000 OA
ATOM     21  H   UNL     1       5.028   1.109  18.763  0.00  0.00    +0.000 HD
ENDBRANCH  17  20
ENDBRANCH  13  14
ENDBRANCH   1  12
TORSDOF 6
ENDMDL
MODEL 5
REMARK VINA RESULT:      -6.6      2.740      7.897
REMARK  Name = 
REMARK  7 active torsions:
REMARK  status: ('A' for Active; 'I' for Inactive)
REMARK    1  A    between atoms: C_1  and  O_2
REMARK    2  A    between atoms: O_2  and  C_3
REMARK    3  A    between atoms: C_5  and  O_6
REMARK    4  A    between atoms: C_9  and  C_10
REMARK    5  A    between atoms: C_10  and  C_11
REMARK    6  A    between atoms: C_12  and  C_13
REMARK    7  A    between atoms: C_16  and  O_17
REMARK                            x       y       z     vdW  Elec       q    Type
REMARK                         _______ _______ _______ _____ _____    ______ ____
ROOT
ATOM      1  C   UNL     1       1.633   8.991  18.221  0.00  0.00    +0.000 C 
ENDROOT
BRANCH   1   7
ATOM      2  C   UNL     1       0.372  10.726  19.682  0.00  0.00    +0.000 A 
ATOM      3  C   UNL     1      -0.084  11.112  20.955  0.00  0.00    +0.000 A 
ATOM      4  C   UNL     1       0.102  10.285  22.055  0.00  0.00    +0.000 A 
ATOM      5  C   UNL     1       0.732   9.062  21.911  0.00  0.00    +0.000 A 
ATOM      6  C   UNL     1       1.194   8.670  20.653  0.00  0.00    +0.000 A 
ATOM      7  C   UNL     1       1.025   9.488  19.511  0.00  0.00    +0.000 A 
BRANCH   2   9
ATOM      8  C   UNL     1      -1.380  11.577  18.281  0.00  0.00    +0.000 C 
ATOM      9  O   UNL     1      -0.026  11.596  18.703  0.00  0.00    +0.000 OA
ENDBRANCH   2   9
BRANCH   4  10
ATOM     10  O   UNL     1      -0.332  10.640  23.298  0.00  0.00    +0.000 OA
ATOM     11  H   UNL     1      -0.640  11.561  23.267  0.00  0.00    +0.000 HD
ENDBRANCH   4  10
ENDBRANCH   1   7
BRANCH   1  12
ATOM     12  C   UNL     1       2.626   7.857  18.312  0.00  0.00    +0.000 C 
ATOM     13  C   UNL     1       2.308   6.586  18.015  0.00  0.00    +0.000 C 
BRANCH  13  14
ATOM     14  C   UNL     1       3.082   5.388  18.397  0.00  0.00    +0.000 A 
ATOM     15  C   UNL     1       2.373   4.195  18.620  0.00  0.00    +0.000 A 
ATOM     16  C   UNL     1       3.011   3.050  19.110  0.00  0.00    +0.000 A 
ATOM     17  C   UNL     1       4.375   3.089  19.361  0.00  0.00    +0.000 A 
ATOM     18  C   UNL     1       5.109   4.242  19.101  0.00  0.00    +0.000 A 
ATOM     19  C   UNL     1       4.466   5.387  18.612  0.00  0.00    +0.000 A 
BRANCH  17  20
ATOM     20  O   UNL     1       5.032   2.013  19.878  0.00  0.00    +0.000 OA
ATOM     21  H   UNL     1       5.463   1.533  19.151  0.00  0.00    +0.000 HD
ENDBRANCH  17  20
ENDBRANCH  13  14
ENDBRANCH   1  12
TORSDOF 6
ENDMDL
MODEL 6
REMARK VINA RESULT:      -6.5      1.854      3.231
REMARK  Name = 
REMARK  7 active torsions:
REMARK  status: ('A' for Active; 'I' for Inactive)
REMARK    1  A    between atoms: C_1  and  O_2
REMARK    2  A    between atoms: O_2  and  C_3
REMARK    3  A    between atoms: C_5  and  O_6
REMARK    4  A    between atoms: C_9  and  C_10
REMARK    5  A    between atoms: C_10  and  C_11
REMARK    6  A    between atoms: C_12  and  C_13
REMARK    7  A    between atoms: C_16  and  O_17
REMARK                            x       y       z     vdW  Elec       q    Type
REMARK                         _______ _______ _______ _____ _____    ______ ____
ROOT
ATOM      1  C   UNL     1       3.540   7.497  17.326  0.00  0.00    +0.000 C 
ENDROOT
BRANCH   1   7
ATOM      2  C   UNL     1       4.526   5.172  17.923  0.00  0.00    +0.000 A 
ATOM      3  C   UNL     1       5.661   4.355  18.070  0.00  0.00    +0.000 A 
ATOM      4  C   UNL     1       6.925   4.837  17.755  0.00  0.00    +0.000 A 
ATOM      5  C   UNL     1       7.084   6.127  17.282  0.00  0.00    +0.000 A 
ATOM      6  C   UNL     1       5.964   6.949  17.137  0.00  0.00    +0.000 A 
ATOM      7  C   UNL     1       4.663   6.493  17.451  0.00  0.00    +0.000 A 
BRANCH   2   9
ATOM      8  C   UNL     1       3.007   3.441  17.250  0.00  0.00    +0.000 C 
ATOM      9  O   UNL     1       3.362   4.486  18.142  0.00  0.00    +0.000 OA
ENDBRANCH   2   9
BRANCH   4  10
ATOM     10  O   UNL     1       8.040   4.062  17.890  0.00  0.00    +0.000 OA
ATOM     11  H   UNL     1       8.401   3.884  17.007  0.00  0.00    +0.000 HD
ENDBRANCH   4  10
ENDBRANCH   1   7
BRANCH   1  12
ATOM     12  C   UNL     1       2.643   7.690  18.525  0.00  0.00    +0.000 C 
ATOM     13  C   UNL     1       1.741   8.682  18.607  0.00  0.00    +0.000 C 
BRANCH  13  14
ATOM     14  C   UNL     1       1.083   9.154  19.841  0.00  0.00    +0.000 A 
ATOM     15  C   UNL     1       0.458  10.413  19.809  0.00  0.00    +0.000 A 
ATOM     16  C   UNL     1      -0.074  10.991  20.966  0.00  0.00    +0.000 A 
ATOM     17  C   UNL     1      -0.000  10.298  22.166  0.00  0.00    +0.000 A 
ATOM     18  C   UNL     1       0.567   9.029  22.215  0.00  0.00    +0.000 A 
ATOM     19  C   UNL     1       1.101   8.454  21.054  0.00  0.00    +0.000 A 
BRANCH  17  20
ATOM     20  O   UNL     1      -0.467  10.838  23.327  0.00  0.00    +0.000 OA
ATOM     21  H   UNL     1      -1.248  10.334  23.613  0.00  0.00    +0.000 HD
ENDBRANCH  17  20
ENDBRANCH  13  14
ENDBRANCH   1  12
TORSDOF 6
ENDMDL
MODEL 7
REMARK VINA RESULT:      -6.5      1.831      8.012
REMARK  Name = 
REMARK  7 active torsions:
REMARK  status: ('A' for Active; 'I' for Inactive)
REMARK    1  A    between atoms: C_1  and  O_2
REMARK    2  A    between atoms: O_2  and  C_3
REMARK    3  A    between atoms: C_5  and  O_6
REMARK    4  A    between atoms: C_9  and  C_10
REMARK    5  A    between atoms: C_10  and  C_11
REMARK    6  A    between atoms: C_12  and  C_13
REMARK    7  A    between atoms: C_16  and  O_17
REMARK                            x       y       z     vdW  Elec       q    Type
REMARK                         _______ _______ _______ _____ _____    ______ ____
ROOT
ATOM      1  C   UNL     1       1.076   9.325  18.064  0.00  0.00    +0.000 C 
ENDROOT
BRANCH   1   7
ATOM      2  C   UNL     1      -0.220  10.678  19.860  0.00  0.00    +0.000 A 
ATOM      3  C   UNL     1      -0.496  10.903  21.221  0.00  0.00    +0.000 A 
ATOM      4  C   UNL     1       0.067  10.096  22.200  0.00  0.00    +0.000 A 
ATOM      5  C   UNL     1       0.900   9.049  21.850  0.00  0.00    +0.000 A 
ATOM      6  C   UNL     1       1.186   8.819  20.503  0.00  0.00    +0.000 A 
ATOM      7  C   UNL     1       0.634   9.623  19.478  0.00  0.00    +0.000 A 
BRANCH   2   9
ATOM      8  C   UNL     1      -0.490  12.772  18.721  0.00  0.00    +0.000 C 
ATOM      9  O   UNL     1      -0.970  11.476  19.040  0.00  0.00    +0.000 OA
ENDBRANCH   2   9
BRANCH   4  10
ATOM     10  O   UNL     1      -0.188  10.297  23.526  0.00  0.00    +0.000 OA
ATOM     11  H   UNL     1      -0.054  11.237  23.727  0.00  0.00    +0.000 HD
ENDBRANCH   4  10
ENDBRANCH   1   7
BRANCH   1  12
ATOM     12  C   UNL     1       2.405   8.630  17.884  0.00  0.00    +0.000 C 
ATOM     13  C   UNL     1       2.528   7.293  17.852  0.00  0.00    +0.000 C 
BRANCH  13  14
ATOM     14  C   UNL     1       3.782   6.534  18.028  0.00  0.00    +0.000 A 
ATOM     15  C   UNL     1       4.795   6.714  17.070  0.00  0.00    +0.000 A 
ATOM     16  C   UNL     1       5.960   5.939  17.089  0.00  0.00    +0.000 A 
ATOM     17  C   UNL     1       6.126   4.987  18.085  0.00  0.00    +0.000 A 
ATOM     18  C   UNL     1       5.161   4.825  19.074  0.00  0.00    +0.000 A 
ATOM     19  C   UNL     1       3.995   5.602  19.051  0.00  0.00    +0.000 A 
BRANCH  17  20
ATOM     20  O   UNL     1       7.223   4.180  18.120  0.00  0.00    +0.000 OA
ATOM     21  H   UNL     1       8.018   4.738  18.162  0.00  0.00    +0.000 HD
ENDBRANCH  17  20
ENDBRANCH  13  14
ENDBRANCH   1  12
TORSDOF 6
ENDMDL
MODEL 8
REMARK VINA RESULT:      -6.4      2.574      4.076
REMARK  Name = 
REMARK  7 active torsions:
REMARK  status: ('A' for Active; 'I' for Inactive)
REMARK    1  A    between atoms: C_1  and  O_2
REMARK    2  A    between atoms: O_2  and  C_3
REMARK    3  A    between atoms: C_5  and  O_6
REMARK    4  A    between atoms: C_9  and  C_10
REMARK    5  A    between atoms: C_10  and  C_11
REMARK    6  A    between atoms: C_12  and  C_13
REMARK    7  A    between atoms: C_16  and  O_17
REMARK                            x       y       z     vdW  Elec       q    Type
REMARK                         _______ _______ _______ _____ _____    ______ ____
ROOT
ATOM      1  C   UNL     1       2.970   6.963  17.836  0.00  0.00    +0.000 C 
ENDROOT
BRANCH   1   7
ATOM      2  C   UNL     1       3.689   4.809  19.093  0.00  0.00    +0.000 A 
ATOM      3  C   UNL     1       3.445   3.455  19.383  0.00  0.00    +0.000 A 
ATOM      4  C   UNL     1       2.317   2.816  18.884  0.00  0.00    +0.000 A 
ATOM      5  C   UNL     1       1.411   3.508  18.101  0.00  0.00    +0.000 A 
ATOM      6  C   UNL     1       1.646   4.851  17.802  0.00  0.00    +0.000 A 
ATOM      7  C   UNL     1       2.785   5.533  18.289  0.00  0.00    +0.000 A 
BRANCH   2   9
ATOM      8  C   UNL     1       6.041   5.279  19.166  0.00  0.00    +0.000 C 
ATOM      9  O   UNL     1       4.763   5.302  19.783  0.00  0.00    +0.000 OA
ENDBRANCH   2   9
BRANCH   4  10
ATOM     10  O   UNL     1       2.061   1.503  19.154  0.00  0.00    +0.000 OA
ATOM     11  H   UNL     1       1.394   1.457  19.859  0.00  0.00    +0.000 HD
ENDBRANCH   4  10
ENDBRANCH   1   7
BRANCH   1  12
ATOM     12  C   UNL     1       2.312   8.043  18.660  0.00  0.00    +0.000 C 
ATOM     13  C   UNL     1       2.005   7.883  19.958  0.00  0.00    +0.000 C 
BRANCH  13  14
ATOM     14  C   UNL     1       1.072   8.720  20.737  0.00  0.00    +0.000 A 
ATOM     15  C   UNL     1       0.321   9.684  20.043  0.00  0.00    +0.000 A 
ATOM     16  C   UNL     1      -0.486  10.604  20.720  0.00  0.00    +0.000 A 
ATOM     17  C   UNL     1      -0.561  10.551  22.105  0.00  0.00    +0.000 A 
ATOM     18  C   UNL     1       0.132   9.574  22.812  0.00  0.00    +0.000 A 
ATOM     19  C   UNL     1       0.941   8.655  22.131  0.00  0.00    +0.000 A 
BRANCH  17  20
ATOM     20  O   UNL     1      -1.301  11.452  22.810  0.00  0.00    +0.000 OA
ATOM     21  H   UNL     1      -2.058  11.727  22.266  0.00  0.00    +0.000 HD
ENDBRANCH  17  20
ENDBRANCH  13  14
ENDBRANCH   1  12
TORSDOF 6
ENDMDL
MODEL 9
REMARK VINA RESULT:      -6.4      1.996      8.098
REMARK  Name = 
REMARK  7 active torsions:
REMARK  status: ('A' for Active; 'I' for Inactive)
REMARK    1  A    between atoms: C_1  and  O_2
REMARK    2  A    between atoms: O_2  and  C_3
REMARK    3  A    between atoms: C_5  and  O_6
REMARK    4  A    between atoms: C_9  and  C_10
REMARK    5  A    between atoms: C_10  and  C_11
REMARK    6  A    between atoms: C_12  and  C_13
REMARK    7  A    between atoms: C_16  and  O_17
REMARK                            x       y       z     vdW  Elec       q    Type
REMARK                         _______ _______ _______ _____ _____    ______ ____
ROOT
ATOM      1  C   UNL     1       1.405   9.413  18.171  0.00  0.00    +0.000 C 
ENDROOT
BRANCH   1   7
ATOM      2  C   UNL     1       0.002  10.721  19.920  0.00  0.00    +0.000 A 
ATOM      3  C   UNL     1      -0.410  10.866  21.257  0.00  0.00    +0.000 A 
ATOM      4  C   UNL     1      -0.011   9.953  22.224  0.00  0.00    +0.000 A 
ATOM      5  C   UNL     1       0.790   8.878  21.882  0.00  0.00    +0.000 A 
ATOM      6  C   UNL     1       1.210   8.727  20.559  0.00  0.00    +0.000 A 
ATOM      7  C   UNL     1       0.827   9.639  19.549  0.00  0.00    +0.000 A 
BRANCH   2   9
ATOM      8  C   UNL     1      -1.861  12.162  19.464  0.00  0.00    +0.000 C 
ATOM      9  O   UNL     1      -0.601  11.627  19.090  0.00  0.00    +0.000 OA
ENDBRANCH   2   9
BRANCH   4  10
ATOM     10  O   UNL     1      -0.399  10.075  23.526  0.00  0.00    +0.000 OA
ATOM     11  H   UNL     1      -0.979   9.328  23.747  0.00  0.00    +0.000 HD
ENDBRANCH   4  10
ENDBRANCH   1   7
BRANCH   1  12
ATOM     12  C   UNL     1       1.969   8.045  17.870  0.00  0.00    +0.000 C 
ATOM     13  C   UNL     1       3.288   7.793  17.840  0.00  0.00    +0.000 C 
BRANCH  13  14
ATOM     14  C   UNL     1       3.930   6.612  17.230  0.00  0.00    +0.000 A 
ATOM     15  C   UNL     1       3.518   5.342  17.670  0.00  0.00    +0.000 A 
ATOM     16  C   UNL     1       4.165   4.178  17.241  0.00  0.00    +0.000 A 
ATOM     17  C   UNL     1       5.221   4.279  16.348  0.00  0.00    +0.000 A 
ATOM     18  C   UNL     1       5.616   5.520  15.857  0.00  0.00    +0.000 A 
ATOM     19  C   UNL     1       4.967   6.684  16.291  0.00  0.00    +0.000 A 
BRANCH  17  20
ATOM     20  O   UNL     1       5.908   3.177  15.934  0.00  0.00    +0.000 OA
ATOM     21  H   UNL     1       6.774   3.166  16.376  0.00  0.00    +0.000 HD
ENDBRANCH  17  20
ENDBRANCH  13  14
ENDBRANCH   1  12
TORSDOF 6
ENDMDL
