MODEL 1
REMARK VINA RESULT:      -8.8      0.000      0.000
REMARK  Name = 
REMARK  8 active torsions:
REMARK  status: ('A' for Active; 'I' for Inactive)
REMARK    1  A    between atoms: C_2  and  C_4
REMARK    2  A    between atoms: C_9  and  C_10
REMARK    3  A    between atoms: C_10  and  C_11
REMARK    4  A    between atoms: C_11  and  C_12
REMARK    5  A    between atoms: C_12  and  C_13
REMARK    6  A    between atoms: C_13  and  C_14
REMARK    7  A    between atoms: C_14  and  C_15
REMARK    8  A    between atoms: C_19  and  C_20
REMARK                            x       y       z     vdW  Elec       q    Type
REMARK                         _______ _______ _______ _____ _____    ______ ____
ROOT
ATOM      1  C   UNL     1       1.161   4.320  20.424  0.00  0.00    +0.000 C 
ENDROOT
BRANCH   1   2
ATOM      2  C   UNL     1       1.664   3.091  19.661  0.00  0.00    +0.000 C 
BRANCH   2   3
ATOM      3  C   UNL     1       3.124   2.762  19.981  0.00  0.00    +0.000 C 
BRANCH   3   9
ATOM      4  C   UNL     1       6.578   4.475  15.429  0.00  0.00    +0.000 A 
ATOM      5  C   UNL     1       7.503   4.776  16.437  0.00  0.00    +0.000 A 
ATOM      6  C   UNL     1       7.191   4.603  17.791  0.00  0.00    +0.000 A 
ATOM      7  C   UNL     1       5.920   4.094  18.068  0.00  0.00    +0.000 A 
ATOM      8  N   UNL     1       5.292   3.767  19.240  0.00  0.00    +0.000 N 
ATOM      9  C   UNL     1       4.052   3.263  18.932  0.00  0.00    +0.000 A 
ATOM     10  N   UNL     1       3.840   3.281  17.634  0.00  0.00    +0.000 NA
ATOM     11  C   UNL     1       4.989   3.783  17.086  0.00  0.00    +0.000 A 
ATOM     12  C   UNL     1       5.304   3.982  15.740  0.00  0.00    +0.000 A 
ATOM     13  H   UNL     1       5.679   3.856  20.169  0.00  0.00    +0.000 HD
BRANCH   4  15
ATOM     14  N   UNL     1       7.824   5.542  13.675  0.00  0.00    +0.000 NA
ATOM     15  C   UNL     1       6.950   4.645  14.000  0.00  0.00    +0.000 C 
ATOM     16  N   UNL     1       6.371   3.869  13.040  0.00  0.00    +0.000 N 
ATOM     17  H   UNL     1       8.008   5.491  12.673  0.00  0.00    +0.000 HD
ATOM     18  H   UNL     1       6.405   4.229  12.096  0.00  0.00    +0.000 HD
ATOM     19  H   UNL     1       5.452   3.500  13.270  0.00  0.00    +0.000 HD
ENDBRANCH   4  15
ENDBRANCH   3   9
ENDBRANCH   2   3
ENDBRANCH   1   2
BRANCH   1  20
ATOM     20  C   UNL     1       2.264   5.294  20.849  0.00  0.00    +0.000 C 
BRANCH  20  21
ATOM     21  C   UNL     1       2.690   6.222  19.709  0.00  0.00    +0.000 C 
BRANCH  21  22
ATOM     22  C   UNL     1       2.017   7.543  19.803  0.00  0.00    +0.000 A 
ATOM     23  N   UNL     1       1.761   8.368  18.808  0.00  0.00    +0.000 NA
ATOM     24  C   UNL     1       1.090   9.424  19.369  0.00  0.00    +0.000 A 
ATOM     25  C   UNL     1       0.583  10.582  18.766  0.00  0.00    +0.000 A 
ATOM     26  C   UNL     1      -0.079  11.517  19.575  0.00  0.00    +0.000 A 
ATOM     27  C   UNL     1      -0.224  11.299  20.954  0.00  0.00    +0.000 A 
ATOM     28  C   UNL     1       0.284  10.149  21.569  0.00  0.00    +0.000 A 
ATOM     29  C   UNL     1       0.934   9.240  20.739  0.00  0.00    +0.000 A 
ATOM     30  N   UNL     1       1.535   8.035  20.989  0.00  0.00    +0.000 N 
ATOM     31  H   UNL     1       1.602   7.578  21.887  0.00  0.00    +0.000 HD
BRANCH  26  32
ATOM     32  C   UNL     1      -0.624  12.770  18.980  0.00  0.00    +0.000 C 
ATOM     33  N   UNL     1      -0.782  13.865  19.653  0.00  0.00    +0.000 NA
ATOM     34  N   UNL     1      -0.993  12.806  17.669  0.00  0.00    +0.000 N 
ATOM     35  H   UNL     1      -0.442  13.769  20.614  0.00  0.00    +0.000 HD
ATOM     36  H   UNL     1      -1.402  11.960  17.293  0.00  0.00    +0.000 HD
ATOM     37  H   UNL     1      -1.553  13.632  17.475  0.00  0.00    +0.000 HD
ENDBRANCH  26  32
ENDBRANCH  21  22
ENDBRANCH  20  21
ENDBRANCH   1  20
TORSDOF 8
ENDMDL
MODEL 2
REMARK VINA RESULT:      -8.5      0.851      1.175
REMARK  Name = 
REMARK  8 active torsions:
REMARK  status: ('A' for Active; 'I' for Inactive)
REMARK    1  A    between atoms: C_2  and  C_4
REMARK    2  A    between atoms: C_9  and  C_10
REMARK    3  A    between atoms: C_10  and  C_11
REMARK    4  A    between atoms: C_11  and  C_12
REMARK    5  A    between atoms: C_12  and  C_13
REMARK    6  A    between atoms: C_13  and  C_14
REMARK    7  A    between atoms: C_14  and  C_15
REMARK    8  A    between atoms: C_19  and  C_20
REMARK                            x       y       z     vdW  Elec       q    Type
REMARK                         _______ _______ _______ _____ _____    ______ ____
ROOT
ATOM      1  C   UNL     1       1.122   4.557  20.233  0.00  0.00    +0.000 C 
ENDROOT
BRANCH   1   2
ATOM      2  C   UNL     1       1.379   3.192  20.879  0.00  0.00    +0.000 C 
BRANCH   2   3
ATOM      3  C   UNL     1       1.973   2.182  19.895  0.00  0.00    +0.000 C 
BRANCH   3   9
ATOM      4  C   UNL     1       6.057   4.281  16.087  0.00  0.00    +0.000 A 
ATOM      5  C   UNL     1       6.698   4.727  17.250  0.00  0.00    +0.000 A 
ATOM      6  C   UNL     1       6.130   4.537  18.516  0.00  0.00    +0.000 A 
ATOM      7  C   UNL     1       4.909   3.859  18.547  0.00  0.00    +0.000 A 
ATOM      8  N   UNL     1       4.095   3.468  19.576  0.00  0.00    +0.000 N 
ATOM      9  C   UNL     1       3.027   2.790  19.040  0.00  0.00    +0.000 A 
ATOM     10  N   UNL     1       3.096   2.754  17.728  0.00  0.00    +0.000 NA
ATOM     11  C   UNL     1       4.258   3.402  17.407  0.00  0.00    +0.000 A 
ATOM     12  C   UNL     1       4.823   3.620  16.149  0.00  0.00    +0.000 A 
ATOM     13  H   UNL     1       4.260   3.627  20.560  0.00  0.00    +0.000 HD
BRANCH   4  15
ATOM     14  N   UNL     1       6.387   3.689  13.783  0.00  0.00    +0.000 NA
ATOM     15  C   UNL     1       6.699   4.476  14.760  0.00  0.00    +0.000 C 
ATOM     16  N   UNL     1       7.612   5.472  14.578  0.00  0.00    +0.000 N 
ATOM     17  H   UNL     1       6.866   3.991  12.935  0.00  0.00    +0.000 HD
ATOM     18  H   UNL     1       8.238   5.362  13.791  0.00  0.00    +0.000 HD
ATOM     19  H   UNL     1       8.106   5.773  15.414  0.00  0.00    +0.000 HD
ENDBRANCH   4  15
ENDBRANCH   3   9
ENDBRANCH   2   3
ENDBRANCH   1   2
BRANCH   1  20
ATOM     20  C   UNL     1       1.917   5.710  20.854  0.00  0.00    +0.000 C 
BRANCH  20  21
ATOM     21  C   UNL     1       2.376   6.728  19.809  0.00  0.00    +0.000 C 
BRANCH  21  22
ATOM     22  C   UNL     1       1.672   8.026  19.967  0.00  0.00    +0.000 A 
ATOM     23  N   UNL     1       1.389   8.890  19.013  0.00  0.00    +0.000 NA
ATOM     24  C   UNL     1       0.696   9.901  19.627  0.00  0.00    +0.000 A 
ATOM     25  C   UNL     1       0.157  11.074  19.081  0.00  0.00    +0.000 A 
ATOM     26  C   UNL     1      -0.522  11.954  19.936  0.00  0.00    +0.000 A 
ATOM     27  C   UNL     1      -0.653  11.667  21.304  0.00  0.00    +0.000 A 
ATOM     28  C   UNL     1      -0.113  10.503  21.862  0.00  0.00    +0.000 A 
ATOM     29  C   UNL     1       0.554   9.650  20.987  0.00  0.00    +0.000 A 
ATOM     30  N   UNL     1       1.186   8.450  21.178  0.00  0.00    +0.000 N 
ATOM     31  H   UNL     1       1.269   7.954  22.053  0.00  0.00    +0.000 HD
BRANCH  26  32
ATOM     32  C   UNL     1      -1.101  13.219  19.403  0.00  0.00    +0.000 C 
ATOM     33  N   UNL     1      -0.533  13.926  18.479  0.00  0.00    +0.000 NA
ATOM     34  N   UNL     1      -2.281  13.695  19.891  0.00  0.00    +0.000 N 
ATOM     35  H   UNL     1       0.322  13.480  18.136  0.00  0.00    +0.000 HD
ATOM     36  H   UNL     1      -2.453  13.547  20.878  0.00  0.00    +0.000 HD
ATOM     37  H   UNL     1      -2.423  14.662  19.610  0.00  0.00    +0.000 HD
ENDBRANCH  26  32
ENDBRANCH  21  22
ENDBRANCH  20  21
ENDBRANCH   1  20
TORSDOF 8
ENDMDL
MODEL 3
REMARK VINA RESULT:      -8.5      1.544      2.322
REMARK  Name = 
REMARK  8 active torsions:
REMARK  status: ('A' for Active; 'I' for Inactive)
REMARK    1  A    between atoms: C_2  and  C_4
REMARK    2  A    between atoms: C_9  and  C_10
REMARK    3  A    between atoms: C_10  and  C_11
REMARK    4  A    between atoms: C_11  and  C_12
REMARK    5  A    between atoms: C_12  and  C_13
REMARK    6  A    between atoms: C_13  and  C_14
REMARK    7  A    between atoms: C_14  and  C_15
REMARK    8  A    between atoms: C_19  and  C_20
REMARK                            x       y       z     vdW  Elec       q    Type
REMARK                         _______ _______ _______ _____ _____    ______ ____
ROOT
ATOM      1  C   UNL     1       1.672   3.342  20.670  0.00  0.00    +0.000 C 
ENDROOT
BRANCH   1   2
ATOM      2  C   UNL     1       1.636   2.425  19.445  0.00  0.00    +0.000 C 
BRANCH   2   3
ATOM      3  C   UNL     1       3.002   1.811  19.134  0.00  0.00    +0.000 C 
BRANCH   3   9
ATOM      4  C   UNL     1       6.863   6.139  17.739  0.00  0.00    +0.000 A 
ATOM      5  C   UNL     1       6.562   5.779  16.419  0.00  0.00    +0.000 A 
ATOM      6  C   UNL     1       5.690   4.723  16.130  0.00  0.00    +0.000 A 
ATOM      7  C   UNL     1       5.125   4.074  17.230  0.00  0.00    +0.000 A 
ATOM      8  N   UNL     1       4.224   3.048  17.335  0.00  0.00    +0.000 N 
ATOM      9  C   UNL     1       3.980   2.831  18.669  0.00  0.00    +0.000 A 
ATOM     10  N   UNL     1       4.698   3.635  19.422  0.00  0.00    +0.000 NA
ATOM     11  C   UNL     1       5.404   4.416  18.547  0.00  0.00    +0.000 A 
ATOM     12  C   UNL     1       6.294   5.456  18.822  0.00  0.00    +0.000 A 
ATOM     13  H   UNL     1       3.793   2.552  16.568  0.00  0.00    +0.000 HD
BRANCH   4  15
ATOM     14  N   UNL     1       7.773   8.298  17.212  0.00  0.00    +0.000 NA
ATOM     15  C   UNL     1       7.774   7.281  18.012  0.00  0.00    +0.000 C 
ATOM     16  N   UNL     1       8.607   7.255  19.091  0.00  0.00    +0.000 N 
ATOM     17  H   UNL     1       8.406   9.014  17.569  0.00  0.00    +0.000 HD
ATOM     18  H   UNL     1       9.406   7.873  19.051  0.00  0.00    +0.000 HD
ATOM     19  H   UNL     1       8.862   6.329  19.425  0.00  0.00    +0.000 HD
ENDBRANCH   4  15
ENDBRANCH   3   9
ENDBRANCH   2   3
ENDBRANCH   1   2
BRANCH   1  20
ATOM     20  C   UNL     1       1.179   4.768  20.407  0.00  0.00    +0.000 C 
BRANCH  20  21
ATOM     21  C   UNL     1       2.331   5.745  20.164  0.00  0.00    +0.000 C 
BRANCH  21  22
ATOM     22  C   UNL     1       1.850   7.149  20.100  0.00  0.00    +0.000 A 
ATOM     23  N   UNL     1       1.762   7.903  19.023  0.00  0.00    +0.000 NA
ATOM     24  C   UNL     1       1.222   9.089  19.447  0.00  0.00    +0.000 A 
ATOM     25  C   UNL     1       0.915  10.244  18.715  0.00  0.00    +0.000 A 
ATOM     26  C   UNL     1       0.355  11.334  19.397  0.00  0.00    +0.000 A 
ATOM     27  C   UNL     1       0.116  11.270  20.779  0.00  0.00    +0.000 A 
ATOM     28  C   UNL     1       0.424  10.126  21.523  0.00  0.00    +0.000 A 
ATOM     29  C   UNL     1       0.977   9.061  20.816  0.00  0.00    +0.000 A 
ATOM     30  N   UNL     1       1.388   7.814  21.208  0.00  0.00    +0.000 N 
ATOM     31  H   UNL     1       1.346   7.441  22.144  0.00  0.00    +0.000 HD
BRANCH  26  32
ATOM     32  C   UNL     1       0.024  12.588  18.663  0.00  0.00    +0.000 C 
ATOM     33  N   UNL     1      -0.904  12.659  17.763  0.00  0.00    +0.000 NA
ATOM     34  N   UNL     1       0.713  13.736  18.915  0.00  0.00    +0.000 N 
ATOM     35  H   UNL     1      -1.402  11.770  17.664  0.00  0.00    +0.000 HD
ATOM     36  H   UNL     1       1.697  13.633  19.131  0.00  0.00    +0.000 HD
ATOM     37  H   UNL     1       0.542  14.426  18.189  0.00  0.00    +0.000 HD
ENDBRANCH  26  32
ENDBRANCH  21  22
ENDBRANCH  20  21
ENDBRANCH   1  20
TORSDOF 8
ENDMDL
MODEL 4
REMARK VINA RESULT:      -8.5      2.675      3.681
REMARK  Name = 
REMARK  8 active torsions:
REMARK  status: ('A' for Active; 'I' for Inactive)
REMARK    1  A    between atoms: C_2  and  C_4
REMARK    2  A    between atoms: C_9  and  C_10
REMARK    3  A    between atoms: C_10  and  C_11
REMARK    4  A    between atoms: C_11  and  C_12
REMARK    5  A    between atoms: C_12  and  C_13
REMARK    6  A    between atoms: C_13  and  C_14
REMARK    7  A    between atoms: C_14  and  C_15
REMARK    8  A    between atoms: C_19  and  C_20
REMARK                            x       y       z     vdW  Elec       q    Type
REMARK                         _______ _______ _______ _____ _____    ______ ____
ROOT
ATOM      1  C   UNL     1       1.782   7.834  20.341  0.00  0.00    +0.000 C 
ENDROOT
BRANCH   1   2
ATOM      2  C   UNL     1       1.265   6.409  20.126  0.00  0.00    +0.000 C 
BRANCH   2   3
ATOM      3  C   UNL     1       2.312   5.348  20.472  0.00  0.00    +0.000 C 
BRANCH   3   9
ATOM      4  C   UNL     1       6.300   4.826  16.067  0.00  0.00    +0.000 A 
ATOM      5  C   UNL     1       7.238   4.948  17.100  0.00  0.00    +0.000 A 
ATOM      6  C   UNL     1       6.840   5.151  18.427  0.00  0.00    +0.000 A 
ATOM      7  C   UNL     1       5.464   5.199  18.656  0.00  0.00    +0.000 A 
ATOM      8  N   UNL     1       4.721   5.343  19.798  0.00  0.00    +0.000 N 
ATOM      9  C   UNL     1       3.393   5.278  19.453  0.00  0.00    +0.000 A 
ATOM     10  N   UNL     1       3.245   5.134  18.155  0.00  0.00    +0.000 NA
ATOM     11  C   UNL     1       4.515   5.075  17.649  0.00  0.00    +0.000 A 
ATOM     12  C   UNL     1       4.925   4.897  16.326  0.00  0.00    +0.000 A 
ATOM     13  H   UNL     1       5.083   5.452  20.735  0.00  0.00    +0.000 HD
BRANCH   4  15
ATOM     14  N   UNL     1       6.306   3.559  14.027  0.00  0.00    +0.000 NA
ATOM     15  C   UNL     1       6.754   4.586  14.672  0.00  0.00    +0.000 C 
ATOM     16  N   UNL     1       7.640   5.438  14.081  0.00  0.00    +0.000 N 
ATOM     17  H   UNL     1       6.666   3.571  13.072  0.00  0.00    +0.000 HD
ATOM     18  H   UNL     1       8.151   5.069  13.290  0.00  0.00    +0.000 HD
ATOM     19  H   UNL     1       8.245   5.951  14.716  0.00  0.00    +0.000 HD
ENDBRANCH   4  15
ENDBRANCH   3   9
ENDBRANCH   2   3
ENDBRANCH   1   2
BRANCH   1  20
ATOM     20  C   UNL     1       1.655   8.744  19.116  0.00  0.00    +0.000 C 
BRANCH  20  21
ATOM     21  C   UNL     1       1.115  10.130  19.476  0.00  0.00    +0.000 C 
BRANCH  21  22
ATOM     22  C   UNL     1      -0.219  10.369  18.868  0.00  0.00    +0.000 A 
ATOM     23  N   UNL     1      -1.223  11.031  19.407  0.00  0.00    +0.000 NA
ATOM     24  C   UNL     1      -2.215  11.030  18.461  0.00  0.00    +0.000 A 
ATOM     25  C   UNL     1      -3.497  11.591  18.510  0.00  0.00    +0.000 A 
ATOM     26  C   UNL     1      -4.328  11.453  17.388  0.00  0.00    +0.000 A 
ATOM     27  C   UNL     1      -3.885  10.763  16.248  0.00  0.00    +0.000 A 
ATOM     28  C   UNL     1      -2.609  10.192  16.189  0.00  0.00    +0.000 A 
ATOM     29  C   UNL     1      -1.809  10.349  17.318  0.00  0.00    +0.000 A 
ATOM     30  N   UNL     1      -0.535   9.936  17.604  0.00  0.00    +0.000 N 
ATOM     31  H   UNL     1       0.075   9.417  16.990  0.00  0.00    +0.000 HD
BRANCH  26  32
ATOM     32  C   UNL     1      -5.705  12.022  17.400  0.00  0.00    +0.000 C 
ATOM     33  N   UNL     1      -5.974  13.234  17.034  0.00  0.00    +0.000 NA
ATOM     34  N   UNL     1      -6.759  11.266  17.816  0.00  0.00    +0.000 N 
ATOM     35  H   UNL     1      -5.139  13.720  16.694  0.00  0.00    +0.000 HD
ATOM     36  H   UNL     1      -6.577  10.614  18.569  0.00  0.00    +0.000 HD
ATOM     37  H   UNL     1      -7.573  11.848  17.990  0.00  0.00    +0.000 HD
ENDBRANCH  26  32
ENDBRANCH  21  22
ENDBRANCH  20  21
ENDBRANCH   1  20
TORSDOF 8
ENDMDL
MODEL 5
REMARK VINA RESULT:      -8.4      1.886      2.978
REMARK  Name = 
REMARK  8 active torsions:
REMARK  status: ('A' for Active; 'I' for Inactive)
REMARK    1  A    between atoms: C_2  and  C_4
REMARK    2  A    between atoms: C_9  and  C_10
REMARK    3  A    between atoms: C_10  and  C_11
REMARK    4  A    between atoms: C_11  and  C_12
REMARK    5  A    between atoms: C_12  and  C_13
REMARK    6  A    between atoms: C_13  and  C_14
REMARK    7  A    between atoms: C_14  and  C_15
REMARK    8  A    between atoms: C_19  and  C_20
REMARK                            x       y       z     vdW  Elec       q    Type
REMARK                         _______ _______ _______ _____ _____    ______ ____
ROOT
ATOM      1  C   UNL     1       1.544   2.407  21.140  0.00  0.00    +0.000 C 
ENDROOT
BRANCH   1   2
ATOM      2  C   UNL     1       3.015   2.043  20.917  0.00  0.00    +0.000 C 
BRANCH   2   3
ATOM      3  C   UNL     1       3.346   1.828  19.438  0.00  0.00    +0.000 C 
BRANCH   3   9
ATOM      4  C   UNL     1       6.868   6.344  17.769  0.00  0.00    +0.000 A 
ATOM      5  C   UNL     1       6.367   6.068  16.490  0.00  0.00    +0.000 A 
ATOM      6  C   UNL     1       5.476   5.011  16.267  0.00  0.00    +0.000 A 
ATOM      7  C   UNL     1       5.104   4.273  17.392  0.00  0.00    +0.000 A 
ATOM      8  N   UNL     1       4.247   3.218  17.564  0.00  0.00    +0.000 N 
ATOM      9  C   UNL     1       4.222   2.903  18.901  0.00  0.00    +0.000 A 
ATOM     10  N   UNL     1       5.036   3.673  19.587  0.00  0.00    +0.000 NA
ATOM     11  C   UNL     1       5.582   4.531  18.671  0.00  0.00    +0.000 A 
ATOM     12  C   UNL     1       6.489   5.573  18.877  0.00  0.00    +0.000 A 
ATOM     13  H   UNL     1       3.707   2.765  16.840  0.00  0.00    +0.000 HD
BRANCH   4  15
ATOM     14  N   UNL     1       7.808   8.456  17.117  0.00  0.00    +0.000 NA
ATOM     15  C   UNL     1       7.793   7.489  17.977  0.00  0.00    +0.000 C 
ATOM     16  N   UNL     1       8.621   7.517  19.060  0.00  0.00    +0.000 N 
ATOM     17  H   UNL     1       8.449   9.184  17.434  0.00  0.00    +0.000 HD
ATOM     18  H   UNL     1       9.428   8.122  18.986  0.00  0.00    +0.000 HD
ATOM     19  H   UNL     1       8.863   6.610  19.450  0.00  0.00    +0.000 HD
ENDBRANCH   4  15
ENDBRANCH   3   9
ENDBRANCH   2   3
ENDBRANCH   1   2
BRANCH   1  20
ATOM     20  C   UNL     1       1.155   3.801  20.636  0.00  0.00    +0.000 C 
BRANCH  20  21
ATOM     21  C   UNL     1       2.009   4.904  21.265  0.00  0.00    +0.000 C 
BRANCH  21  22
ATOM     22  C   UNL     1       1.907   6.173  20.500  0.00  0.00    +0.000 A 
ATOM     23  N   UNL     1       1.298   7.277  20.884  0.00  0.00    +0.000 NA
ATOM     24  C   UNL     1       1.513   8.184  19.879  0.00  0.00    +0.000 A 
ATOM     25  C   UNL     1       1.087   9.514  19.771  0.00  0.00    +0.000 A 
ATOM     26  C   UNL     1       1.453  10.238  18.626  0.00  0.00    +0.000 A 
ATOM     27  C   UNL     1       2.221   9.641  17.614  0.00  0.00    +0.000 A 
ATOM     28  C   UNL     1       2.646   8.311  17.707  0.00  0.00    +0.000 A 
ATOM     29  C   UNL     1       2.268   7.621  18.856  0.00  0.00    +0.000 A 
ATOM     30  N   UNL     1       2.504   6.339  19.276  0.00  0.00    +0.000 N 
ATOM     31  H   UNL     1       3.037   5.639  18.781  0.00  0.00    +0.000 HD
BRANCH  26  32
ATOM     32  C   UNL     1       1.013  11.652  18.461  0.00  0.00    +0.000 C 
ATOM     33  N   UNL     1      -0.226  12.023  18.533  0.00  0.00    +0.000 NA
ATOM     34  N   UNL     1       1.926  12.632  18.212  0.00  0.00    +0.000 N 
ATOM     35  H   UNL     1      -0.841  11.238  18.765  0.00  0.00    +0.000 HD
ATOM     36  H   UNL     1       2.715  12.376  17.632  0.00  0.00    +0.000 HD
ATOM     37  H   UNL     1       1.466  13.481  17.894  0.00  0.00    +0.000 HD
ENDBRANCH  26  32
ENDBRANCH  21  22
ENDBRANCH  20  21
ENDBRANCH   1  20
TORSDOF 8
ENDMDL
MODEL 6
REMARK VINA RESULT:      -8.4      2.179      7.466
REMARK  Name = 
REMARK  8 active torsions:
REMARK  status: ('A' for Active; 'I' for Inactive)
REMARK    1  A    between atoms: C_2  and  C_4
REMARK    2  A    between atoms: C_9  and  C_10
REMARK    3  A    between atoms: C_10  and  C_11
REMARK    4  A    between atoms: C_11  and  C_12
REMARK    5  A    between atoms: C_12  and  C_13
REMARK    6  A    between atoms: C_13  and  C_14
REMARK    7  A    between atoms: C_14  and  C_15
REMARK    8  A    between atoms: C_19  and  C_20
REMARK                            x       y       z     vdW  Elec       q    Type
REMARK                         _______ _______ _______ _____ _____    ______ ____
ROOT
ATOM      1  C   UNL     1       1.694   2.998  19.233  0.00  0.00    +0.000 C 
ENDROOT
BRANCH   1   2
ATOM      2  C   UNL     1       1.098   3.891  20.326  0.00  0.00    +0.000 C 
BRANCH   2   3
ATOM      3  C   UNL     1       2.128   4.854  20.920  0.00  0.00    +0.000 C 
BRANCH   3   9
ATOM      4  C   UNL     1       1.120  10.430  19.057  0.00  0.00    +0.000 A 
ATOM      5  C   UNL     1       1.864  10.034  17.938  0.00  0.00    +0.000 A 
ATOM      6  C   UNL     1       2.426   8.754  17.850  0.00  0.00    +0.000 A 
ATOM      7  C   UNL     1       2.180   7.900  18.927  0.00  0.00    +0.000 A 
ATOM      8  N   UNL     1       2.527   6.597  19.171  0.00  0.00    +0.000 N 
ATOM      9  C   UNL     1       1.982   6.231  20.378  0.00  0.00    +0.000 A 
ATOM     10  N   UNL     1       1.336   7.232  20.932  0.00  0.00    +0.000 NA
ATOM     11  C   UNL     1       1.440   8.268  20.044  0.00  0.00    +0.000 A 
ATOM     12  C   UNL     1       0.905   9.555  20.130  0.00  0.00    +0.000 A 
ATOM     13  H   UNL     1       3.069   6.000  18.562  0.00  0.00    +0.000 HD
BRANCH   4  15
ATOM     14  N   UNL     1       1.184  12.760  19.637  0.00  0.00    +0.000 NA
ATOM     15  C   UNL     1       0.515  11.787  19.107  0.00  0.00    +0.000 C 
ATOM     16  N   UNL     1      -0.735  12.003  18.607  0.00  0.00    +0.000 N 
ATOM     17  H   UNL     1       0.657  13.628  19.540  0.00  0.00    +0.000 HD
ATOM     18  H   UNL     1      -1.214  12.826  18.948  0.00  0.00    +0.000 HD
ATOM     19  H   UNL     1      -1.345  11.191  18.589  0.00  0.00    +0.000 HD
ENDBRANCH   4  15
ENDBRANCH   3   9
ENDBRANCH   2   3
ENDBRANCH   1   2
BRANCH   1  20
ATOM     20  C   UNL     1       1.632   3.597  17.825  0.00  0.00    +0.000 C 
BRANCH  20  21
ATOM     21  C   UNL     1       2.837   3.198  16.971  0.00  0.00    +0.000 C 
BRANCH  21  22
ATOM     22  C   UNL     1       4.015   4.054  17.259  0.00  0.00    +0.000 A 
ATOM     23  N   UNL     1       4.138   5.340  16.996  0.00  0.00    +0.000 NA
ATOM     24  C   UNL     1       5.367   5.700  17.484  0.00  0.00    +0.000 A 
ATOM     25  C   UNL     1       6.003   6.948  17.470  0.00  0.00    +0.000 A 
ATOM     26  C   UNL     1       7.276   7.052  18.051  0.00  0.00    +0.000 A 
ATOM     27  C   UNL     1       7.897   5.931  18.625  0.00  0.00    +0.000 A 
ATOM     28  C   UNL     1       7.275   4.678  18.638  0.00  0.00    +0.000 A 
ATOM     29  C   UNL     1       6.012   4.608  18.056  0.00  0.00    +0.000 A 
ATOM     30  N   UNL     1       5.130   3.573  17.897  0.00  0.00    +0.000 N 
ATOM     31  H   UNL     1       5.267   2.622  18.208  0.00  0.00    +0.000 HD
BRANCH  26  32
ATOM     32  C   UNL     1       7.996   8.356  18.049  0.00  0.00    +0.000 C 
ATOM     33  N   UNL     1       7.788   9.281  17.167  0.00  0.00    +0.000 NA
ATOM     34  N   UNL     1       8.934   8.626  19.000  0.00  0.00    +0.000 N 
ATOM     35  H   UNL     1       7.042   9.020  16.517  0.00  0.00    +0.000 HD
ATOM     36  H   UNL     1       9.497   7.845  19.312  0.00  0.00    +0.000 HD
ATOM     37  H   UNL     1       9.494   9.432  18.736  0.00  0.00    +0.000 HD
ENDBRANCH  26  32
ENDBRANCH  21  22
ENDBRANCH  20  21
ENDBRANCH   1  20
TORSDOF 8
ENDMDL
MODEL 7
REMARK VINA RESULT:      -8.3      6.460      9.204
REMARK  Name = 
REMARK  8 active torsions:
REMARK  status: ('A' for Active; 'I' for Inactive)
REMARK    1  A    between atoms: C_2  and  C_4
REMARK    2  A    between atoms: C_9  and  C_10
REMARK    3  A    between atoms: C_10  and  C_11
REMARK    4  A    between atoms: C_11  and  C_12
REMARK    5  A    between atoms: C_12  and  C_13
REMARK    6  A    between atoms: C_13  and  C_14
REMARK    7  A    between atoms: C_14  and  C_15
REMARK    8  A    between atoms: C_19  and  C_20
REMARK                            x       y       z     vdW  Elec       q    Type
REMARK                         _______ _______ _______ _____ _____    ______ ____
ROOT
ATOM      1  C   UNL     1       6.982   7.361  17.512  0.00  0.00    +0.000 C 
ENDROOT
BRANCH   1   2
ATOM      2  C   UNL     1       7.624   8.751  17.491  0.00  0.00    +0.000 C 
BRANCH   2   3
ATOM      3  C   UNL     1       8.542   8.989  18.692  0.00  0.00    +0.000 C 
BRANCH   3   9
ATOM      4  C   UNL     1      10.914  14.436  18.160  0.00  0.00    +0.000 A 
ATOM      5  C   UNL     1      11.232  14.269  19.514  0.00  0.00    +0.000 A 
ATOM      6  C   UNL     1      10.853  13.119  20.217  0.00  0.00    +0.000 A 
ATOM      7  C   UNL     1      10.165  12.150  19.485  0.00  0.00    +0.000 A 
ATOM      8  N   UNL     1       9.679  10.913  19.816  0.00  0.00    +0.000 N 
ATOM      9  C   UNL     1       9.120  10.359  18.690  0.00  0.00    +0.000 A 
ATOM     10  N   UNL     1       9.192  11.183  17.668  0.00  0.00    +0.000 NA
ATOM     11  C   UNL     1       9.844  12.290  18.140  0.00  0.00    +0.000 A 
ATOM     12  C   UNL     1      10.207  13.452  17.456  0.00  0.00    +0.000 A 
ATOM     13  H   UNL     1       9.740  10.472  20.723  0.00  0.00    +0.000 HD
BRANCH   4  15
ATOM     14  N   UNL     1      12.323  16.366  17.917  0.00  0.00    +0.000 NA
ATOM     15  C   UNL     1      11.354  15.657  17.436  0.00  0.00    +0.000 C 
ATOM     16  N   UNL     1      10.737  16.031  16.279  0.00  0.00    +0.000 N 
ATOM     17  H   UNL     1      12.539  17.130  17.276  0.00  0.00    +0.000 HD
ATOM     18  H   UNL     1      10.842  17.001  16.012  0.00  0.00    +0.000 HD
ATOM     19  H   UNL     1       9.778  15.711  16.170  0.00  0.00    +0.000 HD
ENDBRANCH   4  15
ENDBRANCH   3   9
ENDBRANCH   2   3
ENDBRANCH   1   2
BRANCH   1  20
ATOM     20  C   UNL     1       7.963   6.216  17.782  0.00  0.00    +0.000 C 
BRANCH  20  21
ATOM     21  C   UNL     1       7.536   4.913  17.103  0.00  0.00    +0.000 C 
BRANCH  21  22
ATOM     22  C   UNL     1       6.211   4.454  17.592  0.00  0.00    +0.000 A 
ATOM     23  N   UNL     1       5.847   4.295  18.849  0.00  0.00    +0.000 NA
ATOM     24  C   UNL     1       4.533   3.908  18.805  0.00  0.00    +0.000 A 
ATOM     25  C   UNL     1       3.656   3.606  19.855  0.00  0.00    +0.000 A 
ATOM     26  C   UNL     1       2.341   3.237  19.537  0.00  0.00    +0.000 A 
ATOM     27  C   UNL     1       1.917   3.170  18.200  0.00  0.00    +0.000 A 
ATOM     28  C   UNL     1       2.786   3.463  17.143  0.00  0.00    +0.000 A 
ATOM     29  C   UNL     1       4.084   3.826  17.492  0.00  0.00    +0.000 A 
ATOM     30  N   UNL     1       5.173   4.177  16.739  0.00  0.00    +0.000 N 
ATOM     31  H   UNL     1       5.206   4.237  15.732  0.00  0.00    +0.000 HD
BRANCH  26  32
ATOM     32  C   UNL     1       1.375   2.894  20.619  0.00  0.00    +0.000 C 
ATOM     33  N   UNL     1       1.711   2.802  21.866  0.00  0.00    +0.000 NA
ATOM     34  N   UNL     1       0.068   2.650  20.323  0.00  0.00    +0.000 N 
ATOM     35  H   UNL     1       2.696   3.042  22.010  0.00  0.00    +0.000 HD
ATOM     36  H   UNL     1      -0.116   2.182  19.444  0.00  0.00    +0.000 HD
ATOM     37  H   UNL     1      -0.402   2.207  21.108  0.00  0.00    +0.000 HD
ENDBRANCH  26  32
ENDBRANCH  21  22
ENDBRANCH  20  21
ENDBRANCH   1  20
TORSDOF 8
ENDMDL
MODEL 8
REMARK VINA RESULT:      -8.2      7.064     10.003
REMARK  Name = 
REMARK  8 active torsions:
REMARK  status: ('A' for Active; 'I' for Inactive)
REMARK    1  A    between atoms: C_2  and  C_4
REMARK    2  A    between atoms: C_9  and  C_10
REMARK    3  A    between atoms: C_10  and  C_11
REMARK    4  A    between atoms: C_11  and  C_12
REMARK    5  A    between atoms: C_12  and  C_13
REMARK    6  A    between atoms: C_13  and  C_14
REMARK    7  A    between atoms: C_14  and  C_15
REMARK    8  A    between atoms: C_19  and  C_20
REMARK                            x       y       z     vdW  Elec       q    Type
REMARK                         _______ _______ _______ _____ _____    ______ ____
ROOT
ATOM      1  C   UNL     1       8.076   8.997  17.851  0.00  0.00    +0.000 C 
ENDROOT
BRANCH   1   2
ATOM      2  C   UNL     1       9.319   9.683  18.424  0.00  0.00    +0.000 C 
BRANCH   2   3
ATOM      3  C   UNL     1       8.970  10.774  19.437  0.00  0.00    +0.000 C 
BRANCH   3   9
ATOM      4  C   UNL     1      10.112  16.365  17.698  0.00  0.00    +0.000 A 
ATOM      5  C   UNL     1      11.051  15.755  16.856  0.00  0.00    +0.000 A 
ATOM      6  C   UNL     1      11.257  14.370  16.875  0.00  0.00    +0.000 A 
ATOM      7  C   UNL     1      10.460  13.641  17.759  0.00  0.00    +0.000 A 
ATOM      8  N   UNL     1      10.357  12.301  18.022  0.00  0.00    +0.000 N 
ATOM      9  C   UNL     1       9.372  12.126  18.963  0.00  0.00    +0.000 A 
ATOM     10  N   UNL     1       8.864  13.278  19.341  0.00  0.00    +0.000 NA
ATOM     11  C   UNL     1       9.519  14.224  18.600  0.00  0.00    +0.000 A 
ATOM     12  C   UNL     1       9.339  15.609  18.589  0.00  0.00    +0.000 A 
ATOM     13  H   UNL     1      10.893  11.565  17.583  0.00  0.00    +0.000 HD
BRANCH   4  15
ATOM     14  N   UNL     1       8.868  18.351  18.222  0.00  0.00    +0.000 NA
ATOM     15  C   UNL     1       9.899  17.835  17.636  0.00  0.00    +0.000 C 
ATOM     16  N   UNL     1      10.779  18.630  16.963  0.00  0.00    +0.000 N 
ATOM     17  H   UNL     1       8.900  19.368  18.135  0.00  0.00    +0.000 HD
ATOM     18  H   UNL     1      10.431  19.536  16.679  0.00  0.00    +0.000 HD
ATOM     19  H   UNL     1      11.299  18.175  16.218  0.00  0.00    +0.000 HD
ENDBRANCH   4  15
ENDBRANCH   3   9
ENDBRANCH   2   3
ENDBRANCH   1   2
BRANCH   1  20
ATOM     20  C   UNL     1       7.963   7.507  18.191  0.00  0.00    +0.000 C 
BRANCH  20  21
ATOM     21  C   UNL     1       7.283   6.708  17.077  0.00  0.00    +0.000 C 
BRANCH  21  22
ATOM     22  C   UNL     1       6.165   5.884  17.604  0.00  0.00    +0.000 A 
ATOM     23  N   UNL     1       5.634   5.955  18.808  0.00  0.00    +0.000 NA
ATOM     24  C   UNL     1       4.610   5.044  18.812  0.00  0.00    +0.000 A 
ATOM     25  C   UNL     1       3.716   4.710  19.838  0.00  0.00    +0.000 A 
ATOM     26  C   UNL     1       2.742   3.734  19.579  0.00  0.00    +0.000 A 
ATOM     27  C   UNL     1       2.671   3.106  18.326  0.00  0.00    +0.000 A 
ATOM     28  C   UNL     1       3.562   3.425  17.296  0.00  0.00    +0.000 A 
ATOM     29  C   UNL     1       4.515   4.399  17.584  0.00  0.00    +0.000 A 
ATOM     30  N   UNL     1       5.519   4.951  16.833  0.00  0.00    +0.000 N 
ATOM     31  H   UNL     1       5.738   4.725  15.874  0.00  0.00    +0.000 HD
BRANCH  26  32
ATOM     32  C   UNL     1       1.778   3.336  20.644  0.00  0.00    +0.000 C 
ATOM     33  N   UNL     1       0.508   3.200  20.435  0.00  0.00    +0.000 NA
ATOM     34  N   UNL     1       2.213   3.103  21.914  0.00  0.00    +0.000 N 
ATOM     35  H   UNL     1       0.269   3.349  19.451  0.00  0.00    +0.000 HD
ATOM     36  H   UNL     1       2.974   3.684  22.244  0.00  0.00    +0.000 HD
ATOM     37  H   UNL     1       1.431   3.076  22.563  0.00  0.00    +0.000 HD
ENDBRANCH  26  32
ENDBRANCH  21  22
ENDBRANCH  20  21
ENDBRANCH   1  20
TORSDOF 8
ENDMDL
MODEL 9
REMARK VINA RESULT:      -8.2      0.684      8.726
REMARK  Name = 
REMARK  8 active torsions:
REMARK  status: ('A' for Active; 'I' for Inactive)
REMARK    1  A    between atoms: C_2  and  C_4
REMARK    2  A    between atoms: C_9  and  C_10
REMARK    3  A    between atoms: C_10  and  C_11
REMARK    4  A    between atoms: C_11  and  C_12
REMARK    5  A    between atoms: C_12  and  C_13
REMARK    6  A    between atoms: C_13  and  C_14
REMARK    7  A    between atoms: C_14  and  C_15
REMARK    8  A    between atoms: C_19  and  C_20
REMARK                            x       y       z     vdW  Elec       q    Type
REMARK                         _______ _______ _______ _____ _____    ______ ____
ROOT
ATOM      1  C   UNL     1       1.282   3.970  19.250  0.00  0.00    +0.000 C 
ENDROOT
BRANCH   1   2
ATOM      2  C   UNL     1       1.136   4.779  20.542  0.00  0.00    +0.000 C 
BRANCH   2   3
ATOM      3  C   UNL     1       2.248   5.816  20.710  0.00  0.00    +0.000 C 
BRANCH   3   9
ATOM      4  C   UNL     1       0.007  11.255  19.713  0.00  0.00    +0.000 A 
ATOM      5  C   UNL     1       0.678  11.145  18.488  0.00  0.00    +0.000 A 
ATOM      6  C   UNL     1       1.455  10.022  18.178  0.00  0.00    +0.000 A 
ATOM      7  C   UNL     1       1.499   9.018  19.148  0.00  0.00    +0.000 A 
ATOM      8  N   UNL     1       2.109   7.793  19.183  0.00  0.00    +0.000 N 
ATOM      9  C   UNL     1       1.786   7.190  20.374  0.00  0.00    +0.000 A 
ATOM     10  N   UNL     1       1.032   7.972  21.114  0.00  0.00    +0.000 NA
ATOM     11  C   UNL     1       0.838   9.102  20.367  0.00  0.00    +0.000 A 
ATOM     12  C   UNL     1       0.086  10.238  20.674  0.00  0.00    +0.000 A 
ATOM     13  H   UNL     1       2.678   7.389  18.452  0.00  0.00    +0.000 HD
BRANCH   4  15
ATOM     14  N   UNL     1      -1.436  12.538  21.140  0.00  0.00    +0.000 NA
ATOM     15  C   UNL     1      -0.830  12.448  20.001  0.00  0.00    +0.000 C 
ATOM     16  N   UNL     1      -0.962  13.436  19.070  0.00  0.00    +0.000 N 
ATOM     17  H   UNL     1      -1.916  13.436  21.201  0.00  0.00    +0.000 HD
ATOM     18  H   UNL     1      -1.768  14.039  19.174  0.00  0.00    +0.000 HD
ATOM     19  H   UNL     1      -0.827  13.150  18.105  0.00  0.00    +0.000 HD
ENDBRANCH   4  15
ENDBRANCH   3   9
ENDBRANCH   2   3
ENDBRANCH   1   2
BRANCH   1  20
ATOM     20  C   UNL     1       1.742   2.524  19.459  0.00  0.00    +0.000 C 
BRANCH  20  21
ATOM     21  C   UNL     1       3.196   2.440  19.931  0.00  0.00    +0.000 C 
BRANCH  21  22
ATOM     22  C   UNL     1       4.132   2.960  18.902  0.00  0.00    +0.000 A 
ATOM     23  N   UNL     1       4.007   2.850  17.595  0.00  0.00    +0.000 NA
ATOM     24  C   UNL     1       5.077   3.522  17.065  0.00  0.00    +0.000 A 
ATOM     25  C   UNL     1       5.434   3.718  15.724  0.00  0.00    +0.000 A 
ATOM     26  C   UNL     1       6.591   4.461  15.446  0.00  0.00    +0.000 A 
ATOM     27  C   UNL     1       7.372   4.989  16.486  0.00  0.00    +0.000 A 
ATOM     28  C   UNL     1       7.030   4.794  17.829  0.00  0.00    +0.000 A 
ATOM     29  C   UNL     1       5.876   4.054  18.071  0.00  0.00    +0.000 A 
ATOM     30  N   UNL     1       5.253   3.680  19.232  0.00  0.00    +0.000 N 
ATOM     31  H   UNL     1       5.554   3.905  20.169  0.00  0.00    +0.000 HD
BRANCH  26  32
ATOM     32  C   UNL     1       7.017   4.685  14.036  0.00  0.00    +0.000 C 
ATOM     33  N   UNL     1       7.908   5.559  13.694  0.00  0.00    +0.000 NA
ATOM     34  N   UNL     1       6.460   3.960  13.026  0.00  0.00    +0.000 N 
ATOM     35  H   UNL     1       8.308   6.029  14.511  0.00  0.00    +0.000 HD
ATOM     36  H   UNL     1       5.481   3.723  13.127  0.00  0.00    +0.000 HD
ATOM     37  H   UNL     1       6.670   4.378  12.123  0.00  0.00    +0.000 HD
ENDBRANCH  26  32
ENDBRANCH  21  22
ENDBRANCH  20  21
ENDBRANCH   1  20
TORSDOF 8
ENDMDL
