MODEL 1
REMARK VINA RESULT:      -7.2      0.000      0.000
REMARK  Name = 
REMARK  11 active torsions:
REMARK  status: ('A' for Active; 'I' for Inactive)
REMARK    1  A    between atoms: C_1  and  O_2
REMARK    2  A    between atoms: O_2  and  C_3
REMARK    3  A    between atoms: C_3  and  C_5
REMARK    4  A    between atoms: C_8  and  N_9
REMARK    5  A    between atoms: N_12  and  C_13
REMARK    6  A    between atoms: C_16  and  C_17
REMARK    7  A    between atoms: C_20  and  O_21
REMARK    8  A    between atoms: O_21  and  C_22
REMARK    9  A    between atoms: C_25  and  C_26
REMARK   10  A    between atoms: C_27  and  C_28
REMARK   11  A    between atoms: C_30  and  C_31
REMARK                            x       y       z     vdW  Elec       q    Type
REMARK                         _______ _______ _______ _____ _____    ______ ____
ROOT
ATOM      1  N   UNL     1      -0.667  12.661  19.572  0.00  0.00    +0.000 N 
ATOM      2  C   UNL     1      -1.187  11.520  18.796  0.00  0.00    +0.000 C 
ATOM      3  C   UNL     1      -0.817  10.163  19.441  0.00  0.00    +0.000 C 
ATOM      4  N   UNL     1       0.592  10.076  19.851  0.00  0.00    +0.000 N 
ATOM      5  C   UNL     1       1.138  11.234  20.569  0.00  0.00    +0.000 C 
ATOM      6  C   UNL     1       0.764  12.596  19.925  0.00  0.00    +0.000 C 
ATOM      7  C   UNL     1       1.614  12.859  18.675  0.00  0.00    +0.000 C 
ENDROOT
BRANCH   4   8
ATOM      8  C   UNL     1       1.391   9.061  19.361  0.00  0.00    +0.000 A 
ATOM      9  N   UNL     1       1.930   9.210  18.136  0.00  0.00    +0.000 NA
ATOM     10  N   UNL     1       2.725   8.231  17.559  0.00  0.00    +0.000 NA
ATOM     11  C   UNL     1       3.023   7.088  18.215  0.00  0.00    +0.000 A 
ATOM     12  C   UNL     1       2.525   6.893  19.509  0.00  0.00    +0.000 A 
ATOM     13  C   UNL     1       2.883   5.683  20.337  0.00  0.00    +0.000 C 
ATOM     14  C   UNL     1       1.634   7.864  20.057  0.00  0.00    +0.000 A 
ATOM     15  C   UNL     1       0.911   7.566  21.353  0.00  0.00    +0.000 C 
BRANCH  11  16
ATOM     16  C   UNL     1       3.825   6.126  17.415  0.00  0.00    +0.000 A 
ATOM     17  C   UNL     1       4.848   6.575  16.560  0.00  0.00    +0.000 A 
ATOM     18  C   UNL     1       5.572   5.687  15.751  0.00  0.00    +0.000 A 
ATOM     19  C   UNL     1       5.316   4.317  15.790  0.00  0.00    +0.000 A 
ATOM     20  C   UNL     1       4.312   3.846  16.629  0.00  0.00    +0.000 A 
ATOM     21  C   UNL     1       3.562   4.744  17.404  0.00  0.00    +0.000 A 
BRANCH  19  22
ATOM     22  O   UNL     1       6.048   3.559  14.919  0.00  0.00    +0.000 OA
ATOM     23  C   UNL     1       6.051   3.969  13.557  0.00  0.00    +0.000 C 
ENDBRANCH  19  22
ENDBRANCH  11  16
ENDBRANCH   4   8
BRANCH   1  27
ATOM     24  C   UNL     1      -3.057  15.649  21.081  0.00  0.00    +0.000 A 
ATOM     25  C   UNL     1      -1.780  15.908  20.628  0.00  0.00    +0.000 A 
ATOM     26  N   UNL     1      -0.977  14.940  20.112  0.00  0.00    +0.000 NA
ATOM     27  C   UNL     1      -1.460  13.673  20.069  0.00  0.00    +0.000 A 
ATOM     28  C   UNL     1      -2.767  13.450  20.523  0.00  0.00    +0.000 A 
ATOM     29  N   UNL     1      -3.587  14.404  21.035  0.00  0.00    +0.000 NA
BRANCH  24  30
ATOM     30  C   UNL     1      -3.857  16.768  21.636  0.00  0.00    +0.000 C 
ATOM     31  O   UNL     1      -4.010  17.843  21.081  0.00  0.00    +0.000 OA
BRANCH  30  33
ATOM     32  C   UNL     1      -3.516  16.595  23.951  0.00  0.00    +0.000 C 
ATOM     33  O   UNL     1      -4.376  16.401  22.834  0.00  0.00    +0.000 OA
ENDBRANCH  30  33
ENDBRANCH  24  30
ENDBRANCH   1  27
TORSDOF 6
ENDMDL
MODEL 2
REMARK VINA RESULT:      -7.0      0.907      1.257
REMARK  Name = 
REMARK  11 active torsions:
REMARK  status: ('A' for Active; 'I' for Inactive)
REMARK    1  A    between atoms: C_1  and  O_2
REMARK    2  A    between atoms: O_2  and  C_3
REMARK    3  A    between atoms: C_3  and  C_5
REMARK    4  A    between atoms: C_8  and  N_9
REMARK    5  A    between atoms: N_12  and  C_13
REMARK    6  A    between atoms: C_16  and  C_17
REMARK    7  A    between atoms: C_20  and  O_21
REMARK    8  A    between atoms: O_21  and  C_22
REMARK    9  A    between atoms: C_25  and  C_26
REMARK   10  A    between atoms: C_27  and  C_28
REMARK   11  A    between atoms: C_30  and  C_31
REMARK                            x       y       z     vdW  Elec       q    Type
REMARK                         _______ _______ _______ _____ _____    ______ ____
ROOT
ATOM      1  N   UNL     1      -0.300  13.145  19.603  0.00  0.00    +0.000 N 
ATOM      2  C   UNL     1      -0.682  12.226  18.514  0.00  0.00    +0.000 C 
ATOM      3  C   UNL     1      -0.694  10.750  18.978  0.00  0.00    +0.000 C 
ATOM      4  N   UNL     1       0.497  10.372  19.754  0.00  0.00    +0.000 N 
ATOM      5  C   UNL     1       0.922  11.312  20.799  0.00  0.00    +0.000 C 
ATOM      6  C   UNL     1       0.930  12.793  20.336  0.00  0.00    +0.000 C 
ATOM      7  C   UNL     1       2.153  13.081  19.455  0.00  0.00    +0.000 C 
ENDROOT
BRANCH   4   8
ATOM      8  C   UNL     1       1.285   9.316  19.338  0.00  0.00    +0.000 A 
ATOM      9  N   UNL     1       1.896   9.411  18.142  0.00  0.00    +0.000 NA
ATOM     10  N   UNL     1       2.686   8.388  17.639  0.00  0.00    +0.000 NA
ATOM     11  C   UNL     1       2.904   7.254  18.340  0.00  0.00    +0.000 A 
ATOM     12  C   UNL     1       2.328   7.115  19.609  0.00  0.00    +0.000 A 
ATOM     13  C   UNL     1       2.594   5.918  20.488  0.00  0.00    +0.000 C 
ATOM     14  C   UNL     1       1.444   8.132  20.079  0.00  0.00    +0.000 A 
ATOM     15  C   UNL     1       0.638   7.897  21.338  0.00  0.00    +0.000 C 
BRANCH  11  16
ATOM     16  C   UNL     1       3.714   6.243  17.614  0.00  0.00    +0.000 A 
ATOM     17  C   UNL     1       4.855   6.620  16.883  0.00  0.00    +0.000 A 
ATOM     18  C   UNL     1       5.594   5.688  16.140  0.00  0.00    +0.000 A 
ATOM     19  C   UNL     1       5.233   4.342  16.125  0.00  0.00    +0.000 A 
ATOM     20  C   UNL     1       4.112   3.940  16.842  0.00  0.00    +0.000 A 
ATOM     21  C   UNL     1       3.351   4.885  17.549  0.00  0.00    +0.000 A 
BRANCH  19  22
ATOM     22  O   UNL     1       5.997   3.539  15.325  0.00  0.00    +0.000 OA
ATOM     23  C   UNL     1       6.172   3.958  13.977  0.00  0.00    +0.000 C 
ENDBRANCH  19  22
ENDBRANCH  11  16
ENDBRANCH   4   8
BRANCH   1  27
ATOM     24  C   UNL     1      -2.629  16.306  20.827  0.00  0.00    +0.000 A 
ATOM     25  C   UNL     1      -2.902  15.014  21.226  0.00  0.00    +0.000 A 
ATOM     26  N   UNL     1      -2.139  13.955  20.846  0.00  0.00    +0.000 NA
ATOM     27  C   UNL     1      -1.085  14.196  20.026  0.00  0.00    +0.000 A 
ATOM     28  C   UNL     1      -0.828  15.523  19.655  0.00  0.00    +0.000 A 
ATOM     29  N   UNL     1      -1.574  16.595  20.029  0.00  0.00    +0.000 NA
BRANCH  24  30
ATOM     30  C   UNL     1      -3.523  17.398  21.285  0.00  0.00    +0.000 C 
ATOM     31  O   UNL     1      -3.152  18.535  21.521  0.00  0.00    +0.000 OA
BRANCH  30  33
ATOM     32  C   UNL     1      -5.737  17.535  20.520  0.00  0.00    +0.000 C 
ATOM     33  O   UNL     1      -4.791  16.927  21.392  0.00  0.00    +0.000 OA
ENDBRANCH  30  33
ENDBRANCH  24  30
ENDBRANCH   1  27
TORSDOF 6
ENDMDL
MODEL 3
REMARK VINA RESULT:      -6.8      0.806      1.185
REMARK  Name = 
REMARK  11 active torsions:
REMARK  status: ('A' for Active; 'I' for Inactive)
REMARK    1  A    between atoms: C_1  and  O_2
REMARK    2  A    between atoms: O_2  and  C_3
REMARK    3  A    between atoms: C_3  and  C_5
REMARK    4  A    between atoms: C_8  and  N_9
REMARK    5  A    between atoms: N_12  and  C_13
REMARK    6  A    between atoms: C_16  and  C_17
REMARK    7  A    between atoms: C_20  and  O_21
REMARK    8  A    between atoms: O_21  and  C_22
REMARK    9  A    between atoms: C_25  and  C_26
REMARK   10  A    between atoms: C_27  and  C_28
REMARK   11  A    between atoms: C_30  and  C_31
REMARK                            x       y       z     vdW  Elec       q    Type
REMARK                         _______ _______ _______ _____ _____    ______ ____
ROOT
ATOM      1  N   UNL     1      -0.580  12.569  20.233  0.00  0.00    +0.000 N 
ATOM      2  C   UNL     1      -1.035  11.640  19.181  0.00  0.00    +0.000 C 
ATOM      3  C   UNL     1      -0.799  10.161  19.572  0.00  0.00    +0.000 C 
ATOM      4  N   UNL     1       0.542   9.909  20.120  0.00  0.00    +0.000 N 
ATOM      5  C   UNL     1       1.030  10.865  21.122  0.00  0.00    +0.000 C 
ATOM      6  C   UNL     1       0.789  12.348  20.733  0.00  0.00    +0.000 C 
ATOM      7  C   UNL     1       1.803  12.804  19.676  0.00  0.00    +0.000 C 
ENDROOT
BRANCH   4   8
ATOM      8  C   UNL     1       1.362   8.966  19.530  0.00  0.00    +0.000 A 
ATOM      9  N   UNL     1       1.863   9.234  18.310  0.00  0.00    +0.000 NA
ATOM     10  N   UNL     1       2.676   8.334  17.636  0.00  0.00    +0.000 NA
ATOM     11  C   UNL     1       3.029   7.153  18.188  0.00  0.00    +0.000 A 
ATOM     12  C   UNL     1       2.572   6.836  19.474  0.00  0.00    +0.000 A 
ATOM     13  C   UNL     1       2.992   5.576  20.190  0.00  0.00    +0.000 C 
ATOM     14  C   UNL     1       1.663   7.727  20.119  0.00  0.00    +0.000 A 
ATOM     15  C   UNL     1       0.984   7.298  21.402  0.00  0.00    +0.000 C 
BRANCH  11  16
ATOM     16  C   UNL     1       3.842   6.289  17.294  0.00  0.00    +0.000 A 
ATOM     17  C   UNL     1       3.679   4.892  17.296  0.00  0.00    +0.000 A 
ATOM     18  C   UNL     1       4.483   4.057  16.506  0.00  0.00    +0.000 A 
ATOM     19  C   UNL     1       5.457   4.593  15.666  0.00  0.00    +0.000 A 
ATOM     20  C   UNL     1       5.637   5.971  15.641  0.00  0.00    +0.000 A 
ATOM     21  C   UNL     1       4.860   6.798  16.466  0.00  0.00    +0.000 A 
BRANCH  19  22
ATOM     22  O   UNL     1       6.211   3.678  14.984  0.00  0.00    +0.000 OA
ATOM     23  C   UNL     1       6.119   3.701  13.565  0.00  0.00    +0.000 C 
ENDBRANCH  19  22
ENDBRANCH  11  16
ENDBRANCH   4   8
BRANCH   1  27
ATOM     24  C   UNL     1      -3.007  15.345  22.055  0.00  0.00    +0.000 A 
ATOM     25  C   UNL     1      -2.296  15.649  20.912  0.00  0.00    +0.000 A 
ATOM     26  N   UNL     1      -1.499  14.745  20.284  0.00  0.00    +0.000 NA
ATOM     27  C   UNL     1      -1.396  13.507  20.829  0.00  0.00    +0.000 A 
ATOM     28  C   UNL     1      -2.144  13.228  21.981  0.00  0.00    +0.000 A 
ATOM     29  N   UNL     1      -2.951  14.115  22.619  0.00  0.00    +0.000 NA
BRANCH  24  30
ATOM     30  C   UNL     1      -3.844  16.400  22.676  0.00  0.00    +0.000 C 
ATOM     31  O   UNL     1      -3.429  17.498  23.010  0.00  0.00    +0.000 OA
BRANCH  30  33
ATOM     32  C   UNL     1      -5.877  16.573  23.834  0.00  0.00    +0.000 C 
ATOM     33  O   UNL     1      -5.117  15.949  22.806  0.00  0.00    +0.000 OA
ENDBRANCH  30  33
ENDBRANCH  24  30
ENDBRANCH   1  27
TORSDOF 6
ENDMDL
MODEL 4
REMARK VINA RESULT:      -6.7      0.868      1.211
REMARK  Name = 
REMARK  11 active torsions:
REMARK  status: ('A' for Active; 'I' for Inactive)
REMARK    1  A    between atoms: C_1  and  O_2
REMARK    2  A    between atoms: O_2  and  C_3
REMARK    3  A    between atoms: C_3  and  C_5
REMARK    4  A    between atoms: C_8  and  N_9
REMARK    5  A    between atoms: N_12  and  C_13
REMARK    6  A    between atoms: C_16  and  C_17
REMARK    7  A    between atoms: C_20  and  O_21
REMARK    8  A    between atoms: O_21  and  C_22
REMARK    9  A    between atoms: C_25  and  C_26
REMARK   10  A    between atoms: C_27  and  C_28
REMARK   11  A    between atoms: C_30  and  C_31
REMARK                            x       y       z     vdW  Elec       q    Type
REMARK                         _______ _______ _______ _____ _____    ______ ____
ROOT
ATOM      1  N   UNL     1      -0.829  13.338  19.947  0.00  0.00    +0.000 N 
ATOM      2  C   UNL     1      -1.285  12.345  18.955  0.00  0.00    +0.000 C 
ATOM      3  C   UNL     1      -1.161  10.897  19.485  0.00  0.00    +0.000 C 
ATOM      4  N   UNL     1       0.132  10.619  20.128  0.00  0.00    +0.000 N 
ATOM      5  C   UNL     1       0.626  11.631  21.069  0.00  0.00    +0.000 C 
ATOM      6  C   UNL     1       0.497  13.085  20.541  0.00  0.00    +0.000 C 
ATOM      7  C   UNL     1       1.590  13.387  19.507  0.00  0.00    +0.000 C 
ENDROOT
BRANCH   4   8
ATOM      8  C   UNL     1       0.922   9.583  19.669  0.00  0.00    +0.000 A 
ATOM      9  N   UNL     1       1.528   9.726  18.475  0.00  0.00    +0.000 NA
ATOM     10  N   UNL     1       2.320   8.726  17.929  0.00  0.00    +0.000 NA
ATOM     11  C   UNL     1       2.546   7.567  18.586  0.00  0.00    +0.000 A 
ATOM     12  C   UNL     1       1.975   7.378  19.851  0.00  0.00    +0.000 A 
ATOM     13  C   UNL     1       2.250   6.148  20.682  0.00  0.00    +0.000 C 
ATOM     14  C   UNL     1       1.089   8.372  20.363  0.00  0.00    +0.000 A 
ATOM     15  C   UNL     1       0.290   8.086  21.616  0.00  0.00    +0.000 C 
BRANCH  11  16
ATOM     16  C   UNL     1       3.356   6.587  17.819  0.00  0.00    +0.000 A 
ATOM     17  C   UNL     1       3.017   5.222  17.807  0.00  0.00    +0.000 A 
ATOM     18  C   UNL     1       3.808   4.274  17.140  0.00  0.00    +0.000 A 
ATOM     19  C   UNL     1       4.948   4.664  16.440  0.00  0.00    +0.000 A 
ATOM     20  C   UNL     1       5.304   6.007  16.431  0.00  0.00    +0.000 A 
ATOM     21  C   UNL     1       4.533   6.945  17.136  0.00  0.00    +0.000 A 
BRANCH  19  22
ATOM     22  O   UNL     1       5.665   3.646  15.875  0.00  0.00    +0.000 OA
ATOM     23  C   UNL     1       6.387   3.952  14.688  0.00  0.00    +0.000 C 
ENDBRANCH  19  22
ENDBRANCH  11  16
ENDBRANCH   4   8
BRANCH   1  27
ATOM     24  C   UNL     1      -3.196  16.386  21.368  0.00  0.00    +0.000 A 
ATOM     25  C   UNL     1      -1.930  16.627  20.874  0.00  0.00    +0.000 A 
ATOM     26  N   UNL     1      -1.135  15.639  20.387  0.00  0.00    +0.000 NA
ATOM     27  C   UNL     1      -1.615  14.370  20.414  0.00  0.00    +0.000 A 
ATOM     28  C   UNL     1      -2.910  14.165  20.907  0.00  0.00    +0.000 A 
ATOM     29  N   UNL     1      -3.723  15.139  21.392  0.00  0.00    +0.000 NA
BRANCH  24  30
ATOM     30  C   UNL     1      -3.988  17.528  21.888  0.00  0.00    +0.000 C 
ATOM     31  O   UNL     1      -4.866  18.096  21.261  0.00  0.00    +0.000 OA
BRANCH  30  33
ATOM     32  C   UNL     1      -4.395  17.297  24.187  0.00  0.00    +0.000 C 
ATOM     33  O   UNL     1      -3.579  17.824  23.147  0.00  0.00    +0.000 OA
ENDBRANCH  30  33
ENDBRANCH  24  30
ENDBRANCH   1  27
TORSDOF 6
ENDMDL
MODEL 5
REMARK VINA RESULT:      -6.7      0.630      1.066
REMARK  Name = 
REMARK  11 active torsions:
REMARK  status: ('A' for Active; 'I' for Inactive)
REMARK    1  A    between atoms: C_1  and  O_2
REMARK    2  A    between atoms: O_2  and  C_3
REMARK    3  A    between atoms: C_3  and  C_5
REMARK    4  A    between atoms: C_8  and  N_9
REMARK    5  A    between atoms: N_12  and  C_13
REMARK    6  A    between atoms: C_16  and  C_17
REMARK    7  A    between atoms: C_20  and  O_21
REMARK    8  A    between atoms: O_21  and  C_22
REMARK    9  A    between atoms: C_25  and  C_26
REMARK   10  A    between atoms: C_27  and  C_28
REMARK   11  A    between atoms: C_30  and  C_31
REMARK                            x       y       z     vdW  Elec       q    Type
REMARK                         _______ _______ _______ _____ _____    ______ ____
ROOT
ATOM      1  N   UNL     1      -0.482  12.795  19.426  0.00  0.00    +0.000 N 
ATOM      2  C   UNL     1      -0.820  11.836  18.357  0.00  0.00    +0.000 C 
ATOM      3  C   UNL     1      -0.683  10.369  18.830  0.00  0.00    +0.000 C 
ATOM      4  N   UNL     1       0.565  10.106  19.563  0.00  0.00    +0.000 N 
ATOM      5  C   UNL     1       0.943  11.089  20.585  0.00  0.00    +0.000 C 
ATOM      6  C   UNL     1       0.801  12.561  20.114  0.00  0.00    +0.000 C 
ATOM      7  C   UNL     1       1.960  12.950  19.186  0.00  0.00    +0.000 C 
ENDROOT
BRANCH   4   8
ATOM      8  C   UNL     1       1.428   9.121  19.124  0.00  0.00    +0.000 A 
ATOM      9  N   UNL     1       1.979   9.256  17.903  0.00  0.00    +0.000 NA
ATOM     10  N   UNL     1       2.838   8.303  17.375  0.00  0.00    +0.000 NA
ATOM     11  C   UNL     1       3.187   7.203  18.077  0.00  0.00    +0.000 A 
ATOM     12  C   UNL     1       2.678   7.027  19.370  0.00  0.00    +0.000 A 
ATOM     13  C   UNL     1       3.087   5.870  20.247  0.00  0.00    +0.000 C 
ATOM     14  C   UNL     1       1.724   7.966  19.867  0.00  0.00    +0.000 A 
ATOM     15  C   UNL     1       0.996   7.674  21.161  0.00  0.00    +0.000 C 
BRANCH  11  16
ATOM     16  C   UNL     1       4.056   6.260  17.326  0.00  0.00    +0.000 A 
ATOM     17  C   UNL     1       5.302   6.672  16.821  0.00  0.00    +0.000 A 
ATOM     18  C   UNL     1       6.105   5.814  16.056  0.00  0.00    +0.000 A 
ATOM     19  C   UNL     1       5.702   4.506  15.794  0.00  0.00    +0.000 A 
ATOM     20  C   UNL     1       4.477   4.071  16.285  0.00  0.00    +0.000 A 
ATOM     21  C   UNL     1       3.658   4.947  17.013  0.00  0.00    +0.000 A 
BRANCH  19  22
ATOM     22  O   UNL     1       6.543   3.782  14.995  0.00  0.00    +0.000 OA
ATOM     23  C   UNL     1       6.179   3.658  13.626  0.00  0.00    +0.000 C 
ENDBRANCH  19  22
ENDBRANCH  11  16
ENDBRANCH   4   8
BRANCH   1  27
ATOM     24  C   UNL     1      -3.067  15.691  20.789  0.00  0.00    +0.000 A 
ATOM     25  C   UNL     1      -1.821  16.013  20.291  0.00  0.00    +0.000 A 
ATOM     26  N   UNL     1      -0.955  15.076  19.823  0.00  0.00    +0.000 NA
ATOM     27  C   UNL     1      -1.342  13.776  19.873  0.00  0.00    +0.000 A 
ATOM     28  C   UNL     1      -2.620  13.487  20.369  0.00  0.00    +0.000 A 
ATOM     29  N   UNL     1      -3.502  14.409  20.835  0.00  0.00    +0.000 NA
BRANCH  24  30
ATOM     30  C   UNL     1      -3.940  16.781  21.287  0.00  0.00    +0.000 C 
ATOM     31  O   UNL     1      -4.203  16.966  22.464  0.00  0.00    +0.000 OA
BRANCH  30  33
ATOM     32  C   UNL     1      -5.700  17.206  19.795  0.00  0.00    +0.000 C 
ATOM     33  O   UNL     1      -4.384  17.518  20.239  0.00  0.00    +0.000 OA
ENDBRANCH  30  33
ENDBRANCH  24  30
ENDBRANCH   1  27
TORSDOF 6
ENDMDL
MODEL 6
REMARK VINA RESULT:      -6.5      1.469      1.969
REMARK  Name = 
REMARK  11 active torsions:
REMARK  status: ('A' for Active; 'I' for Inactive)
REMARK    1  A    between atoms: C_1  and  O_2
REMARK    2  A    between atoms: O_2  and  C_3
REMARK    3  A    between atoms: C_3  and  C_5
REMARK    4  A    between atoms: C_8  and  N_9
REMARK    5  A    between atoms: N_12  and  C_13
REMARK    6  A    between atoms: C_16  and  C_17
REMARK    7  A    between atoms: C_20  and  O_21
REMARK    8  A    between atoms: O_21  and  C_22
REMARK    9  A    between atoms: C_25  and  C_26
REMARK   10  A    between atoms: C_27  and  C_28
REMARK   11  A    between atoms: C_30  and  C_31
REMARK                            x       y       z     vdW  Elec       q    Type
REMARK                         _______ _______ _______ _____ _____    ______ ____
ROOT
ATOM      1  N   UNL     1      -0.027  11.811  21.682  0.00  0.00    +0.000 N 
ATOM      2  C   UNL     1       1.175  12.080  20.871  0.00  0.00    +0.000 C 
ATOM      3  C   UNL     1       1.132  11.347  19.509  0.00  0.00    +0.000 C 
ATOM      4  N   UNL     1       0.729   9.937  19.618  0.00  0.00    +0.000 N 
ATOM      5  C   UNL     1      -0.429   9.651  20.474  0.00  0.00    +0.000 C 
ATOM      6  C   UNL     1      -0.389  10.390  21.838  0.00  0.00    +0.000 C 
ATOM      7  C   UNL     1       0.598   9.710  22.796  0.00  0.00    +0.000 C 
ENDROOT
BRANCH   4   8
ATOM      8  C   UNL     1       1.556   8.943  19.130  0.00  0.00    +0.000 A 
ATOM      9  N   UNL     1       2.119   9.122  17.920  0.00  0.00    +0.000 NA
ATOM     10  N   UNL     1       2.944   8.165  17.346  0.00  0.00    +0.000 NA
ATOM     11  C   UNL     1       3.247   7.017  17.990  0.00  0.00    +0.000 A 
ATOM     12  C   UNL     1       2.724   6.793  19.270  0.00  0.00    +0.000 A 
ATOM     13  C   UNL     1       3.084   5.576  20.086  0.00  0.00    +0.000 C 
ATOM     14  C   UNL     1       1.804   7.740  19.812  0.00  0.00    +0.000 A 
ATOM     15  C   UNL     1       1.058   7.408  21.087  0.00  0.00    +0.000 C 
BRANCH  11  16
ATOM     16  C   UNL     1       4.083   6.082  17.194  0.00  0.00    +0.000 A 
ATOM     17  C   UNL     1       4.992   6.565  16.235  0.00  0.00    +0.000 A 
ATOM     18  C   UNL     1       5.743   5.695  15.430  0.00  0.00    +0.000 A 
ATOM     19  C   UNL     1       5.629   4.314  15.576  0.00  0.00    +0.000 A 
ATOM     20  C   UNL     1       4.741   3.810  16.518  0.00  0.00    +0.000 A 
ATOM     21  C   UNL     1       3.961   4.684  17.291  0.00  0.00    +0.000 A 
BRANCH  19  22
ATOM     22  O   UNL     1       6.371   3.569  14.702  0.00  0.00    +0.000 OA
ATOM     23  C   UNL     1       6.284   3.921  13.326  0.00  0.00    +0.000 C 
ENDBRANCH  19  22
ENDBRANCH  11  16
ENDBRANCH   4   8
BRANCH   1  27
ATOM     24  C   UNL     1      -2.548  14.736  23.099  0.00  0.00    +0.000 A 
ATOM     25  C   UNL     1      -1.435  14.337  23.811  0.00  0.00    +0.000 A 
ATOM     26  N   UNL     1      -0.580  13.383  23.356  0.00  0.00    +0.000 NA
ATOM     27  C   UNL     1      -0.860  12.798  22.165  0.00  0.00    +0.000 A 
ATOM     28  C   UNL     1      -1.989  13.239  21.463  0.00  0.00    +0.000 A 
ATOM     29  N   UNL     1      -2.852  14.195  21.896  0.00  0.00    +0.000 NA
BRANCH  24  30
ATOM     30  C   UNL     1      -3.429  15.778  23.679  0.00  0.00    +0.000 C 
ATOM     31  O   UNL     1      -3.204  16.976  23.623  0.00  0.00    +0.000 OA
BRANCH  30  33
ATOM     32  C   UNL     1      -5.768  15.624  23.789  0.00  0.00    +0.000 C 
ATOM     33  O   UNL     1      -4.500  15.189  24.267  0.00  0.00    +0.000 OA
ENDBRANCH  30  33
ENDBRANCH  24  30
ENDBRANCH   1  27
TORSDOF 6
ENDMDL
MODEL 7
REMARK VINA RESULT:      -6.3      1.908     11.732
REMARK  Name = 
REMARK  11 active torsions:
REMARK  status: ('A' for Active; 'I' for Inactive)
REMARK    1  A    between atoms: C_1  and  O_2
REMARK    2  A    between atoms: O_2  and  C_3
REMARK    3  A    between atoms: C_3  and  C_5
REMARK    4  A    between atoms: C_8  and  N_9
REMARK    5  A    between atoms: N_12  and  C_13
REMARK    6  A    between atoms: C_16  and  C_17
REMARK    7  A    between atoms: C_20  and  O_21
REMARK    8  A    between atoms: O_21  and  C_22
REMARK    9  A    between atoms: C_25  and  C_26
REMARK   10  A    between atoms: C_27  and  C_28
REMARK   11  A    between atoms: C_30  and  C_31
REMARK                            x       y       z     vdW  Elec       q    Type
REMARK                         _______ _______ _______ _____ _____    ______ ____
ROOT
ATOM      1  N   UNL     1       1.374   8.506  19.718  0.00  0.00    +0.000 N 
ATOM      2  C   UNL     1       0.774   9.524  18.835  0.00  0.00    +0.000 C 
ATOM      3  C   UNL     1       1.056  10.962  19.332  0.00  0.00    +0.000 C 
ATOM      4  N   UNL     1       0.821  11.138  20.773  0.00  0.00    +0.000 N 
ATOM      5  C   UNL     1       1.361  10.097  21.656  0.00  0.00    +0.000 C 
ATOM      6  C   UNL     1       1.082   8.654  21.156  0.00  0.00    +0.000 C 
ATOM      7  C   UNL     1      -0.374   8.256  21.429  0.00  0.00    +0.000 C 
ENDROOT
BRANCH   4   8
ATOM      8  C   UNL     1      -0.064  12.103  21.214  0.00  0.00    +0.000 A 
ATOM      9  N   UNL     1      -1.363  11.770  21.327  0.00  0.00    +0.000 NA
ATOM     10  N   UNL     1      -2.322  12.683  21.741  0.00  0.00    +0.000 NA
ATOM     11  C   UNL     1      -1.991  13.948  22.080  0.00  0.00    +0.000 A 
ATOM     12  C   UNL     1      -0.648  14.341  22.023  0.00  0.00    +0.000 A 
ATOM     13  C   UNL     1      -0.190  15.709  22.466  0.00  0.00    +0.000 C 
ATOM     14  C   UNL     1       0.316  13.424  21.508  0.00  0.00    +0.000 A 
ATOM     15  C   UNL     1       1.724  13.902  21.226  0.00  0.00    +0.000 C 
BRANCH  11  16
ATOM     16  C   UNL     1      -3.155  14.802  22.428  0.00  0.00    +0.000 A 
ATOM     17  C   UNL     1      -3.651  14.846  23.744  0.00  0.00    +0.000 A 
ATOM     18  C   UNL     1      -4.788  15.598  24.077  0.00  0.00    +0.000 A 
ATOM     19  C   UNL     1      -5.450  16.353  23.111  0.00  0.00    +0.000 A 
ATOM     20  C   UNL     1      -4.980  16.330  21.803  0.00  0.00    +0.000 A 
ATOM     21  C   UNL     1      -3.868  15.543  21.467  0.00  0.00    +0.000 A 
BRANCH  19  22
ATOM     22  O   UNL     1      -6.574  17.001  23.542  0.00  0.00    +0.000 OA
ATOM     23  C   UNL     1      -6.728  18.356  23.138  0.00  0.00    +0.000 C 
ENDBRANCH  19  22
ENDBRANCH  11  16
ENDBRANCH   4   8
BRANCH   1  27
ATOM     24  C   UNL     1       4.049   5.673  18.400  0.00  0.00    +0.000 A 
ATOM     25  C   UNL     1       3.383   5.532  19.600  0.00  0.00    +0.000 A 
ATOM     26  N   UNL     1       2.485   6.447  20.050  0.00  0.00    +0.000 NA
ATOM     27  C   UNL     1       2.263   7.545  19.285  0.00  0.00    +0.000 A 
ATOM     28  C   UNL     1       2.944   7.648  18.064  0.00  0.00    +0.000 A 
ATOM     29  N   UNL     1       3.840   6.742  17.594  0.00  0.00    +0.000 NA
BRANCH  24  30
ATOM     30  C   UNL     1       5.019   4.627  17.995  0.00  0.00    +0.000 C 
ATOM     31  O   UNL     1       5.955   4.256  18.684  0.00  0.00    +0.000 OA
BRANCH  30  33
ATOM     32  C   UNL     1       5.796   3.982  15.877  0.00  0.00    +0.000 C 
ATOM     33  O   UNL     1       4.696   4.165  16.761  0.00  0.00    +0.000 OA
ENDBRANCH  30  33
ENDBRANCH  24  30
ENDBRANCH   1  27
TORSDOF 6
ENDMDL
MODEL 8
REMARK VINA RESULT:      -6.3      2.059     11.641
REMARK  Name = 
REMARK  11 active torsions:
REMARK  status: ('A' for Active; 'I' for Inactive)
REMARK    1  A    between atoms: C_1  and  O_2
REMARK    2  A    between atoms: O_2  and  C_3
REMARK    3  A    between atoms: C_3  and  C_5
REMARK    4  A    between atoms: C_8  and  N_9
REMARK    5  A    between atoms: N_12  and  C_13
REMARK    6  A    between atoms: C_16  and  C_17
REMARK    7  A    between atoms: C_20  and  O_21
REMARK    8  A    between atoms: O_21  and  C_22
REMARK    9  A    between atoms: C_25  and  C_26
REMARK   10  A    between atoms: C_27  and  C_28
REMARK   11  A    between atoms: C_30  and  C_31
REMARK                            x       y       z     vdW  Elec       q    Type
REMARK                         _______ _______ _______ _____ _____    ______ ____
ROOT
ATOM      1  N   UNL     1       1.302   8.528  19.792  0.00  0.00    +0.000 N 
ATOM      2  C   UNL     1       0.667   9.528  18.912  0.00  0.00    +0.000 C 
ATOM      3  C   UNL     1       0.926  10.974  19.396  0.00  0.00    +0.000 C 
ATOM      4  N   UNL     1       0.709  11.154  20.840  0.00  0.00    +0.000 N 
ATOM      5  C   UNL     1       1.284  10.130  21.720  0.00  0.00    +0.000 C 
ATOM      6  C   UNL     1       1.028   8.679  21.233  0.00  0.00    +0.000 C 
ATOM      7  C   UNL     1      -0.415   8.251  21.530  0.00  0.00    +0.000 C 
ENDROOT
BRANCH   4   8
ATOM      8  C   UNL     1      -0.189  12.103  21.289  0.00  0.00    +0.000 A 
ATOM      9  N   UNL     1      -1.474  11.735  21.451  0.00  0.00    +0.000 NA
ATOM     10  N   UNL     1      -2.446  12.629  21.876  0.00  0.00    +0.000 NA
ATOM     11  C   UNL     1      -2.142  13.910  22.178  0.00  0.00    +0.000 A 
ATOM     12  C   UNL     1      -0.813  14.341  22.068  0.00  0.00    +0.000 A 
ATOM     13  C   UNL     1      -0.382  15.730  22.467  0.00  0.00    +0.000 C 
ATOM     14  C   UNL     1       0.161  13.440  21.542  0.00  0.00    +0.000 A 
ATOM     15  C   UNL     1       1.544  13.952  21.205  0.00  0.00    +0.000 C 
BRANCH  11  16
ATOM     16  C   UNL     1      -3.319  14.738  22.545  0.00  0.00    +0.000 A 
ATOM     17  C   UNL     1      -3.938  15.574  21.598  0.00  0.00    +0.000 A 
ATOM     18  C   UNL     1      -5.010  16.410  21.944  0.00  0.00    +0.000 A 
ATOM     19  C   UNL     1      -5.517  16.418  23.242  0.00  0.00    +0.000 A 
ATOM     20  C   UNL     1      -4.926  15.599  24.198  0.00  0.00    +0.000 A 
ATOM     21  C   UNL     1      -3.826  14.797  23.856  0.00  0.00    +0.000 A 
BRANCH  19  22
ATOM     22  O   UNL     1      -6.526  17.311  23.472  0.00  0.00    +0.000 OA
ATOM     23  C   UNL     1      -7.369  17.622  22.369  0.00  0.00    +0.000 C 
ENDBRANCH  19  22
ENDBRANCH  11  16
ENDBRANCH   4   8
BRANCH   1  27
ATOM     24  C   UNL     1       4.019   5.745  18.453  0.00  0.00    +0.000 A 
ATOM     25  C   UNL     1       3.298   5.549  19.613  0.00  0.00    +0.000 A 
ATOM     26  N   UNL     1       2.385   6.447  20.068  0.00  0.00    +0.000 NA
ATOM     27  C   UNL     1       2.204   7.584  19.350  0.00  0.00    +0.000 A 
ATOM     28  C   UNL     1       2.940   7.743  18.169  0.00  0.00    +0.000 A 
ATOM     29  N   UNL     1       3.852   6.854  17.693  0.00  0.00    +0.000 NA
BRANCH  24  30
ATOM     30  C   UNL     1       5.000   4.713  18.039  0.00  0.00    +0.000 C 
ATOM     31  O   UNL     1       4.966   4.123  16.972  0.00  0.00    +0.000 OA
BRANCH  30  33
ATOM     32  C   UNL     1       6.968   5.504  19.043  0.00  0.00    +0.000 C 
ATOM     33  O   UNL     1       5.918   4.543  19.023  0.00  0.00    +0.000 OA
ENDBRANCH  30  33
ENDBRANCH  24  30
ENDBRANCH   1  27
TORSDOF 6
ENDMDL
MODEL 9
REMARK VINA RESULT:      -6.3      1.513      1.792
REMARK  Name = 
REMARK  11 active torsions:
REMARK  status: ('A' for Active; 'I' for Inactive)
REMARK    1  A    between atoms: C_1  and  O_2
REMARK    2  A    between atoms: O_2  and  C_3
REMARK    3  A    between atoms: C_3  and  C_5
REMARK    4  A    between atoms: C_8  and  N_9
REMARK    5  A    between atoms: N_12  and  C_13
REMARK    6  A    between atoms: C_16  and  C_17
REMARK    7  A    between atoms: C_20  and  O_21
REMARK    8  A    between atoms: O_21  and  C_22
REMARK    9  A    between atoms: C_25  and  C_26
REMARK   10  A    between atoms: C_27  and  C_28
REMARK   11  A    between atoms: C_30  and  C_31
REMARK                            x       y       z     vdW  Elec       q    Type
REMARK                         _______ _______ _______ _____ _____    ______ ____
ROOT
ATOM      1  N   UNL     1      -0.860  11.705  20.265  0.00  0.00    +0.000 N 
ATOM      2  C   UNL     1      -1.070  10.843  19.086  0.00  0.00    +0.000 C 
ATOM      3  C   UNL     1      -0.688   9.371  19.368  0.00  0.00    +0.000 C 
ATOM      4  N   UNL     1       0.606   9.224  20.052  0.00  0.00    +0.000 N 
ATOM      5  C   UNL     1       0.851  10.121  21.188  0.00  0.00    +0.000 C 
ATOM      6  C   UNL     1       0.463  11.598  20.908  0.00  0.00    +0.000 C 
ATOM      7  C   UNL     1       1.519  12.280  20.028  0.00  0.00    +0.000 C 
ENDROOT
BRANCH   4   8
ATOM      8  C   UNL     1       1.602   8.453  19.485  0.00  0.00    +0.000 A 
ATOM      9  N   UNL     1       2.232   8.929  18.394  0.00  0.00    +0.000 NA
ATOM     10  N   UNL     1       3.227   8.210  17.749  0.00  0.00    +0.000 NA
ATOM     11  C   UNL     1       3.635   7.005  18.205  0.00  0.00    +0.000 A 
ATOM     12  C   UNL     1       3.046   6.477  19.360  0.00  0.00    +0.000 A 
ATOM     13  C   UNL     1       3.506   5.179  19.977  0.00  0.00    +0.000 C 
ATOM     14  C   UNL     1       1.960   7.181  19.962  0.00  0.00    +0.000 A 
ATOM     15  C   UNL     1       1.166   6.520  21.069  0.00  0.00    +0.000 C 
BRANCH  11  16
ATOM     16  C   UNL     1       4.658   6.352  17.347  0.00  0.00    +0.000 A 
ATOM     17  C   UNL     1       5.994   6.790  17.356  0.00  0.00    +0.000 A 
ATOM     18  C   UNL     1       6.958   6.226  16.507  0.00  0.00    +0.000 A 
ATOM     19  C   UNL     1       6.624   5.187  15.640  0.00  0.00    +0.000 A 
ATOM     20  C   UNL     1       5.311   4.733  15.614  0.00  0.00    +0.000 A 
ATOM     21  C   UNL     1       4.341   5.329  16.435  0.00  0.00    +0.000 A 
BRANCH  19  22
ATOM     22  O   UNL     1       7.633   4.756  14.826  0.00  0.00    +0.000 OA
ATOM     23  C   UNL     1       7.515   5.060  13.441  0.00  0.00    +0.000 C 
ENDBRANCH  19  22
ENDBRANCH  11  16
ENDBRANCH   4   8
BRANCH   1  27
ATOM     24  C   UNL     1      -3.787  14.010  22.008  0.00  0.00    +0.000 A 
ATOM     25  C   UNL     1      -3.870  13.617  20.688  0.00  0.00    +0.000 A 
ATOM     26  N   UNL     1      -2.922  12.844  20.094  0.00  0.00    +0.000 NA
ATOM     27  C   UNL     1      -1.851  12.471  20.839  0.00  0.00    +0.000 A 
ATOM     28  C   UNL     1      -1.809  12.874  22.180  0.00  0.00    +0.000 A 
ATOM     29  N   UNL     1      -2.748  13.640  22.794  0.00  0.00    +0.000 NA
BRANCH  24  30
ATOM     30  C   UNL     1      -4.864  14.861  22.568  0.00  0.00    +0.000 C 
ATOM     31  O   UNL     1      -4.673  15.922  23.139  0.00  0.00    +0.000 OA
BRANCH  30  33
ATOM     32  C   UNL     1      -7.168  15.172  22.246  0.00  0.00    +0.000 C 
ATOM     33  O   UNL     1      -6.067  14.275  22.341  0.00  0.00    +0.000 OA
ENDBRANCH  30  33
ENDBRANCH  24  30
ENDBRANCH   1  27
TORSDOF 6
ENDMDL
