MODEL 1
REMARK VINA RESULT:      -6.9      0.000      0.000
REMARK  Name = 
REMARK  12 active torsions:
REMARK  status: ('A' for Active; 'I' for Inactive)
REMARK    1  A    between atoms: C_1  and  C_2
REMARK    2  A    between atoms: C_2  and  C_3
REMARK    3  A    between atoms: C_5  and  C_6
REMARK    4  A    between atoms: N_8  and  CA_9
REMARK    5  A    between atoms: CA_9  and  C_20
REMARK    6  A    between atoms: C_10  and  C_11
REMARK    7  A    between atoms: C_11  and  C_12
REMARK    8  A    between atoms: C_12  and  C_13
REMARK    9  A    between atoms: C_13  and  C_14
REMARK   10  A    between atoms: C_14  and  C_15
REMARK   11  A    between atoms: C_15  and  N_16
REMARK   12  A    between atoms: C_20  and  OXT_22
REMARK                            x       y       z     vdW  Elec       q    Type
REMARK                         _______ _______ _______ _____ _____    ______ ____
ROOT
ATOM      1  CA  UNL     1       6.996   5.056  18.616  0.00  0.00    +0.000 C 
ATOM      2  C   UNL     1       7.391   4.909  17.330  0.00  0.00    +0.000 C 
ENDROOT
BRANCH   1   5
ATOM      3  C   UNL     1       4.583   5.294  19.187  0.00  0.00    +0.000 C 
ATOM      4  O   UNL     1       4.338   6.328  18.580  0.00  0.00    +0.000 OA
ATOM      5  N   UNL     1       5.788   4.626  19.161  0.00  0.00    +0.000 N 
ATOM      6  H   UNL     1       5.757   3.629  19.364  0.00  0.00    +0.000 HD
BRANCH   3  11
ATOM      7  C   UNL     1       1.852   2.626  20.089  0.00  0.00    +0.000 C 
ATOM      8  C   UNL     1       2.396   3.811  19.335  0.00  0.00    +0.000 C 
ATOM      9  C   UNL     1       2.437   3.617  17.837  0.00  0.00    +0.000 C 
ATOM     10  C   UNL     1       2.088   5.186  19.886  0.00  0.00    +0.000 C 
ATOM     11  C   UNL     1       3.500   4.641  19.996  0.00  0.00    +0.000 C 
ENDBRANCH   3  11
ENDBRANCH   1   5
BRANCH   1  12
ATOM     12  C   UNL     1       7.836   5.827  19.597  0.00  0.00    +0.000 C 
ATOM     13  O   UNL     1       8.003   5.419  20.740  0.00  0.00    +0.000 OA
BRANCH  12  14
ATOM     14  OXT UNL     1       8.454   6.923  19.117  0.00  0.00    +0.000 OA
ATOM     15  HXT UNL     1       8.798   7.526  19.800  0.00  0.00    +0.000 HD
ENDBRANCH  12  14
ENDBRANCH   1  12
BRANCH   2  16
ATOM     16  C   UNL     1       6.584   4.249  16.250  0.00  0.00    +0.000 C 
BRANCH  16  17
ATOM     17  C   UNL     1       5.508   5.061  15.530  0.00  0.00    +0.000 C 
BRANCH  17  18
ATOM     18  C   UNL     1       5.519   4.586  14.070  0.00  0.00    +0.000 C 
BRANCH  18  19
ATOM     19  C   UNL     1       6.904   4.298  13.516  0.00  0.00    +0.000 C 
BRANCH  19  20
ATOM     20  C   UNL     1       6.793   3.872  12.049  0.00  0.00    +0.000 C 
BRANCH  20  21
ATOM     21  N   UNL     1       6.961   2.448  11.903  0.00  0.00    +0.000 N 
ATOM     22  C   UNL     1       5.959   1.665  11.415  0.00  0.00    +0.000 C 
ATOM     23  N   UNL     1       6.368   0.392  11.196  0.00  0.00    +0.000 N 
ATOM     24  O   UNL     1       4.812   2.026  11.180  0.00  0.00    +0.000 OA
ATOM     25  H   UNL     1       7.901   2.091  11.812  0.00  0.00    +0.000 HD
ATOM     26  H   UNL     1       7.093   0.014  11.786  0.00  0.00    +0.000 HD
ATOM     27  H   UNL     1       5.614  -0.244  10.968  0.00  0.00    +0.000 HD
ENDBRANCH  20  21
ENDBRANCH  19  20
ENDBRANCH  18  19
ENDBRANCH  17  18
ENDBRANCH  16  17
ENDBRANCH   2  16
TORSDOF 10
ENDMDL
MODEL 2
REMARK VINA RESULT:      -6.8      2.725      3.466
REMARK  Name = 
REMARK  12 active torsions:
REMARK  status: ('A' for Active; 'I' for Inactive)
REMARK    1  A    between atoms: C_1  and  C_2
REMARK    2  A    between atoms: C_2  and  C_3
REMARK    3  A    between atoms: C_5  and  C_6
REMARK    4  A    between atoms: N_8  and  CA_9
REMARK    5  A    between atoms: CA_9  and  C_20
REMARK    6  A    between atoms: C_10  and  C_11
REMARK    7  A    between atoms: C_11  and  C_12
REMARK    8  A    between atoms: C_12  and  C_13
REMARK    9  A    between atoms: C_13  and  C_14
REMARK   10  A    between atoms: C_14  and  C_15
REMARK   11  A    between atoms: C_15  and  N_16
REMARK   12  A    between atoms: C_20  and  OXT_22
REMARK                            x       y       z     vdW  Elec       q    Type
REMARK                         _______ _______ _______ _____ _____    ______ ____
ROOT
ATOM      1  CA  UNL     1       3.070   7.004  18.145  0.00  0.00    +0.000 C 
ATOM      2  C   UNL     1       4.039   6.850  17.213  0.00  0.00    +0.000 C 
ENDROOT
BRANCH   1   5
ATOM      3  C   UNL     1       1.764   4.951  18.678  0.00  0.00    +0.000 C 
ATOM      4  O   UNL     1       1.461   4.609  17.542  0.00  0.00    +0.000 OA
ATOM      5  N   UNL     1       2.581   6.015  18.995  0.00  0.00    +0.000 N 
ATOM      6  H   UNL     1       3.059   5.966  19.892  0.00  0.00    +0.000 HD
BRANCH   3  11
ATOM      7  C   UNL     1       1.999   2.655  21.850  0.00  0.00    +0.000 C 
ATOM      8  C   UNL     1       2.041   2.935  20.371  0.00  0.00    +0.000 C 
ATOM      9  C   UNL     1       3.356   2.579  19.716  0.00  0.00    +0.000 C 
ATOM     10  C   UNL     1       0.760   2.741  19.590  0.00  0.00    +0.000 C 
ATOM     11  C   UNL     1       1.267   4.148  19.846  0.00  0.00    +0.000 C 
ENDBRANCH   3  11
ENDBRANCH   1   5
BRANCH   1  12
ATOM     12  C   UNL     1       2.331   8.307  18.280  0.00  0.00    +0.000 C 
ATOM     13  O   UNL     1       2.253   9.087  17.339  0.00  0.00    +0.000 OA
BRANCH  12  14
ATOM     14  OXT UNL     1       1.697   8.511  19.451  0.00  0.00    +0.000 OA
ATOM     15  HXT UNL     1       2.086   9.210  20.006  0.00  0.00    +0.000 HD
ENDBRANCH  12  14
ENDBRANCH   1  12
BRANCH   2  16
ATOM     16  C   UNL     1       4.765   5.568  16.927  0.00  0.00    +0.000 C 
BRANCH  16  17
ATOM     17  C   UNL     1       6.255   5.471  17.257  0.00  0.00    +0.000 C 
BRANCH  17  18
ATOM     18  C   UNL     1       6.917   4.789  16.051  0.00  0.00    +0.000 C 
BRANCH  18  19
ATOM     19  C   UNL     1       5.940   4.299  14.996  0.00  0.00    +0.000 C 
BRANCH  19  20
ATOM     20  C   UNL     1       6.600   4.365  13.615  0.00  0.00    +0.000 C 
BRANCH  20  21
ATOM     21  N   UNL     1       6.559   3.085  12.953  0.00  0.00    +0.000 N 
ATOM     22  C   UNL     1       5.583   2.788  12.050  0.00  0.00    +0.000 C 
ATOM     23  N   UNL     1       5.814   1.612  11.418  0.00  0.00    +0.000 N 
ATOM     24  O   UNL     1       4.599   3.475  11.801  0.00  0.00    +0.000 OA
ATOM     25  H   UNL     1       7.421   2.565  12.877  0.00  0.00    +0.000 HD
ATOM     26  H   UNL     1       6.308   0.889  11.920  0.00  0.00    +0.000 HD
ATOM     27  H   UNL     1       5.040   1.297  10.848  0.00  0.00    +0.000 HD
ENDBRANCH  20  21
ENDBRANCH  19  20
ENDBRANCH  18  19
ENDBRANCH  17  18
ENDBRANCH  16  17
ENDBRANCH   2  16
TORSDOF 10
ENDMDL
MODEL 3
REMARK VINA RESULT:      -6.7      1.405      1.484
REMARK  Name = 
REMARK  12 active torsions:
REMARK  status: ('A' for Active; 'I' for Inactive)
REMARK    1  A    between atoms: C_1  and  C_2
REMARK    2  A    between atoms: C_2  and  C_3
REMARK    3  A    between atoms: C_5  and  C_6
REMARK    4  A    between atoms: N_8  and  CA_9
REMARK    5  A    between atoms: CA_9  and  C_20
REMARK    6  A    between atoms: C_10  and  C_11
REMARK    7  A    between atoms: C_11  and  C_12
REMARK    8  A    between atoms: C_12  and  C_13
REMARK    9  A    between atoms: C_13  and  C_14
REMARK   10  A    between atoms: C_14  and  C_15
REMARK   11  A    between atoms: C_15  and  N_16
REMARK   12  A    between atoms: C_20  and  OXT_22
REMARK                            x       y       z     vdW  Elec       q    Type
REMARK                         _______ _______ _______ _____ _____    ______ ____
ROOT
ATOM      1  CA  UNL     1       6.357   5.901  18.529  0.00  0.00    +0.000 C 
ATOM      2  C   UNL     1       6.424   6.207  17.213  0.00  0.00    +0.000 C 
ENDROOT
BRANCH   1   5
ATOM      3  C   UNL     1       4.626   4.333  19.397  0.00  0.00    +0.000 C 
ATOM      4  O   UNL     1       5.135   3.272  19.060  0.00  0.00    +0.000 OA
ATOM      5  N   UNL     1       5.205   5.575  19.241  0.00  0.00    +0.000 N 
ATOM      6  H   UNL     1       4.892   6.303  19.879  0.00  0.00    +0.000 HD
BRANCH   3  11
ATOM      7  C   UNL     1       0.810   3.557  19.872  0.00  0.00    +0.000 C 
ATOM      8  C   UNL     1       1.982   4.301  19.286  0.00  0.00    +0.000 C 
ATOM      9  C   UNL     1       2.055   4.239  17.778  0.00  0.00    +0.000 C 
ATOM     10  C   UNL     1       2.423   5.566  19.988  0.00  0.00    +0.000 C 
ATOM     11  C   UNL     1       3.290   4.325  20.082  0.00  0.00    +0.000 C 
ENDBRANCH   3  11
ENDBRANCH   1   5
BRANCH   1  12
ATOM     12  C   UNL     1       7.577   5.989  19.404  0.00  0.00    +0.000 C 
ATOM     13  O   UNL     1       7.758   5.189  20.314  0.00  0.00    +0.000 OA
BRANCH  12  14
ATOM     14  OXT UNL     1       8.482   6.928  19.068  0.00  0.00    +0.000 OA
ATOM     15  HXT UNL     1       9.351   6.576  18.802  0.00  0.00    +0.000 HD
ENDBRANCH  12  14
ENDBRANCH   1  12
BRANCH   2  16
ATOM     16  C   UNL     1       5.252   6.250  16.276  0.00  0.00    +0.000 C 
BRANCH  16  17
ATOM     17  C   UNL     1       5.118   5.166  15.208  0.00  0.00    +0.000 C 
BRANCH  17  18
ATOM     18  C   UNL     1       6.528   4.594  14.999  0.00  0.00    +0.000 C 
BRANCH  18  19
ATOM     19  C   UNL     1       7.105   4.845  13.616  0.00  0.00    +0.000 C 
BRANCH  19  20
ATOM     20  C   UNL     1       6.843   3.629  12.722  0.00  0.00    +0.000 C 
BRANCH  20  21
ATOM     21  N   UNL     1       5.582   3.746  12.033  0.00  0.00    +0.000 N 
ATOM     22  C   UNL     1       4.998   2.666  11.443  0.00  0.00    +0.000 C 
ATOM     23  N   UNL     1       3.748   2.943  10.999  0.00  0.00    +0.000 N 
ATOM     24  O   UNL     1       5.500   1.556  11.312  0.00  0.00    +0.000 OA
ATOM     25  H   UNL     1       4.973   4.508  12.291  0.00  0.00    +0.000 HD
ATOM     26  H   UNL     1       3.545   3.884  10.697  0.00  0.00    +0.000 HD
ATOM     27  H   UNL     1       3.344   2.207  10.434  0.00  0.00    +0.000 HD
ENDBRANCH  20  21
ENDBRANCH  19  20
ENDBRANCH  18  19
ENDBRANCH  17  18
ENDBRANCH  16  17
ENDBRANCH   2  16
TORSDOF 10
ENDMDL
MODEL 4
REMARK VINA RESULT:      -6.7      0.793      1.043
REMARK  Name = 
REMARK  12 active torsions:
REMARK  status: ('A' for Active; 'I' for Inactive)
REMARK    1  A    between atoms: C_1  and  C_2
REMARK    2  A    between atoms: C_2  and  C_3
REMARK    3  A    between atoms: C_5  and  C_6
REMARK    4  A    between atoms: N_8  and  CA_9
REMARK    5  A    between atoms: CA_9  and  C_20
REMARK    6  A    between atoms: C_10  and  C_11
REMARK    7  A    between atoms: C_11  and  C_12
REMARK    8  A    between atoms: C_12  and  C_13
REMARK    9  A    between atoms: C_13  and  C_14
REMARK   10  A    between atoms: C_14  and  C_15
REMARK   11  A    between atoms: C_15  and  N_16
REMARK   12  A    between atoms: C_20  and  OXT_22
REMARK                            x       y       z     vdW  Elec       q    Type
REMARK                         _______ _______ _______ _____ _____    ______ ____
ROOT
ATOM      1  CA  UNL     1       6.805   4.930  18.493  0.00  0.00    +0.000 C 
ATOM      2  C   UNL     1       7.132   4.561  17.233  0.00  0.00    +0.000 C 
ENDROOT
BRANCH   1   5
ATOM      3  C   UNL     1       4.453   5.313  19.219  0.00  0.00    +0.000 C 
ATOM      4  O   UNL     1       4.191   6.291  18.531  0.00  0.00    +0.000 OA
ATOM      5  N   UNL     1       5.632   4.601  19.169  0.00  0.00    +0.000 N 
ATOM      6  H   UNL     1       5.588   3.631  19.474  0.00  0.00    +0.000 HD
BRANCH   3  11
ATOM      7  C   UNL     1       1.556   2.992  20.487  0.00  0.00    +0.000 C 
ATOM      8  C   UNL     1       2.136   4.115  19.669  0.00  0.00    +0.000 C 
ATOM      9  C   UNL     1       1.941   3.952  18.179  0.00  0.00    +0.000 C 
ATOM     10  C   UNL     1       2.088   5.505  20.265  0.00  0.00    +0.000 C 
ATOM     11  C   UNL     1       3.419   4.784  20.171  0.00  0.00    +0.000 C 
ENDBRANCH   3  11
ENDBRANCH   1   5
BRANCH   1  12
ATOM     12  C   UNL     1       7.688   5.861  19.277  0.00  0.00    +0.000 C 
ATOM     13  O   UNL     1       8.113   6.896  18.778  0.00  0.00    +0.000 OA
BRANCH  12  14
ATOM     14  OXT UNL     1       7.898   5.535  20.567  0.00  0.00    +0.000 OA
ATOM     15  HXT UNL     1       7.671   6.236  21.204  0.00  0.00    +0.000 HD
ENDBRANCH  12  14
ENDBRANCH   1  12
BRANCH   2  16
ATOM     16  C   UNL     1       6.276   3.722  16.330  0.00  0.00    +0.000 C 
BRANCH  16  17
ATOM     17  C   UNL     1       5.159   4.396  15.533  0.00  0.00    +0.000 C 
BRANCH  17  18
ATOM     18  C   UNL     1       5.841   5.097  14.349  0.00  0.00    +0.000 C 
BRANCH  18  19
ATOM     19  C   UNL     1       7.040   4.352  13.788  0.00  0.00    +0.000 C 
BRANCH  19  20
ATOM     20  C   UNL     1       6.790   4.011  12.316  0.00  0.00    +0.000 C 
BRANCH  20  21
ATOM     21  N   UNL     1       6.174   2.716  12.175  0.00  0.00    +0.000 N 
ATOM     22  C   UNL     1       6.724   1.755  11.382  0.00  0.00    +0.000 C 
ATOM     23  N   UNL     1       6.094   0.562  11.514  0.00  0.00    +0.000 N 
ATOM     24  O   UNL     1       7.678   1.902  10.627  0.00  0.00    +0.000 OA
ATOM     25  H   UNL     1       5.566   2.399  12.916  0.00  0.00    +0.000 HD
ATOM     26  H   UNL     1       5.111   0.563  11.738  0.00  0.00    +0.000 HD
ATOM     27  H   UNL     1       6.388  -0.131  10.838  0.00  0.00    +0.000 HD
ENDBRANCH  20  21
ENDBRANCH  19  20
ENDBRANCH  18  19
ENDBRANCH  17  18
ENDBRANCH  16  17
ENDBRANCH   2  16
TORSDOF 10
ENDMDL
MODEL 5
REMARK VINA RESULT:      -6.7      0.863      1.165
REMARK  Name = 
REMARK  12 active torsions:
REMARK  status: ('A' for Active; 'I' for Inactive)
REMARK    1  A    between atoms: C_1  and  C_2
REMARK    2  A    between atoms: C_2  and  C_3
REMARK    3  A    between atoms: C_5  and  C_6
REMARK    4  A    between atoms: N_8  and  CA_9
REMARK    5  A    between atoms: CA_9  and  C_20
REMARK    6  A    between atoms: C_10  and  C_11
REMARK    7  A    between atoms: C_11  and  C_12
REMARK    8  A    between atoms: C_12  and  C_13
REMARK    9  A    between atoms: C_13  and  C_14
REMARK   10  A    between atoms: C_14  and  C_15
REMARK   11  A    between atoms: C_15  and  N_16
REMARK   12  A    between atoms: C_20  and  OXT_22
REMARK                            x       y       z     vdW  Elec       q    Type
REMARK                         _______ _______ _______ _____ _____    ______ ____
ROOT
ATOM      1  CA  UNL     1       6.153   5.443  18.183  0.00  0.00    +0.000 C 
ATOM      2  C   UNL     1       6.171   5.660  16.847  0.00  0.00    +0.000 C 
ENDROOT
BRANCH   1   5
ATOM      3  C   UNL     1       3.893   5.538  19.224  0.00  0.00    +0.000 C 
ATOM      4  O   UNL     1       3.502   6.596  18.750  0.00  0.00    +0.000 OA
ATOM      5  N   UNL     1       5.090   4.926  18.919  0.00  0.00    +0.000 N 
ATOM      6  H   UNL     1       5.130   3.919  19.054  0.00  0.00    +0.000 HD
BRANCH   3  11
ATOM      7  C   UNL     1       1.418   2.742  20.428  0.00  0.00    +0.000 C 
ATOM      8  C   UNL     1       1.787   4.005  19.695  0.00  0.00    +0.000 C 
ATOM      9  C   UNL     1       1.501   3.958  18.212  0.00  0.00    +0.000 C 
ATOM     10  C   UNL     1       1.609   5.313  20.433  0.00  0.00    +0.000 C 
ATOM     11  C   UNL     1       3.010   4.788  20.181  0.00  0.00    +0.000 C 
ENDBRANCH   3  11
ENDBRANCH   1   5
BRANCH   1  12
ATOM     12  C   UNL     1       7.314   5.856  19.045  0.00  0.00    +0.000 C 
ATOM     13  O   UNL     1       8.066   6.759  18.699  0.00  0.00    +0.000 OA
BRANCH  12  14
ATOM     14  OXT UNL     1       7.412   5.244  20.241  0.00  0.00    +0.000 OA
ATOM     15  HXT UNL     1       7.103   5.777  20.996  0.00  0.00    +0.000 HD
ENDBRANCH  12  14
ENDBRANCH   1  12
BRANCH   2  16
ATOM     16  C   UNL     1       5.030   5.380  15.913  0.00  0.00    +0.000 C 
BRANCH  16  17
ATOM     17  C   UNL     1       5.197   4.302  14.842  0.00  0.00    +0.000 C 
BRANCH  17  18
ATOM     18  C   UNL     1       6.709   4.100  14.671  0.00  0.00    +0.000 C 
BRANCH  18  19
ATOM     19  C   UNL     1       7.330   4.932  13.562  0.00  0.00    +0.000 C 
BRANCH  19  20
ATOM     20  C   UNL     1       6.819   4.440  12.204  0.00  0.00    +0.000 C 
BRANCH  20  21
ATOM     21  N   UNL     1       6.838   3.001  12.126  0.00  0.00    +0.000 N 
ATOM     22  C   UNL     1       5.755   2.304  11.682  0.00  0.00    +0.000 C 
ATOM     23  N   UNL     1       6.027   0.986  11.523  0.00  0.00    +0.000 N 
ATOM     24  O   UNL     1       4.649   2.770  11.434  0.00  0.00    +0.000 OA
ATOM     25  H   UNL     1       7.734   2.544  12.049  0.00  0.00    +0.000 HD
ATOM     26  H   UNL     1       6.715   0.564  12.128  0.00  0.00    +0.000 HD
ATOM     27  H   UNL     1       5.210   0.421  11.330  0.00  0.00    +0.000 HD
ENDBRANCH  20  21
ENDBRANCH  19  20
ENDBRANCH  18  19
ENDBRANCH  17  18
ENDBRANCH  16  17
ENDBRANCH   2  16
TORSDOF 10
ENDMDL
MODEL 6
REMARK VINA RESULT:      -6.6      5.176      7.709
REMARK  Name = 
REMARK  12 active torsions:
REMARK  status: ('A' for Active; 'I' for Inactive)
REMARK    1  A    between atoms: C_1  and  C_2
REMARK    2  A    between atoms: C_2  and  C_3
REMARK    3  A    between atoms: C_5  and  C_6
REMARK    4  A    between atoms: N_8  and  CA_9
REMARK    5  A    between atoms: CA_9  and  C_20
REMARK    6  A    between atoms: C_10  and  C_11
REMARK    7  A    between atoms: C_11  and  C_12
REMARK    8  A    between atoms: C_12  and  C_13
REMARK    9  A    between atoms: C_13  and  C_14
REMARK   10  A    between atoms: C_14  and  C_15
REMARK   11  A    between atoms: C_15  and  N_16
REMARK   12  A    between atoms: C_20  and  OXT_22
REMARK                            x       y       z     vdW  Elec       q    Type
REMARK                         _______ _______ _______ _____ _____    ______ ____
ROOT
ATOM      1  CA  UNL     1       6.661   6.064  17.092  0.00  0.00    +0.000 C 
ATOM      2  C   UNL     1       7.610   7.027  17.030  0.00  0.00    +0.000 C 
ENDROOT
BRANCH   1   5
ATOM      3  C   UNL     1       5.106   5.517  18.959  0.00  0.00    +0.000 C 
ATOM      4  O   UNL     1       5.879   4.908  19.688  0.00  0.00    +0.000 OA
ATOM      5  N   UNL     1       5.453   6.141  17.781  0.00  0.00    +0.000 N 
ATOM      6  H   UNL     1       4.855   6.909  17.483  0.00  0.00    +0.000 HD
BRANCH   3  11
ATOM      7  C   UNL     1       1.465   4.359  19.848  0.00  0.00    +0.000 C 
ATOM      8  C   UNL     1       2.601   4.665  18.908  0.00  0.00    +0.000 C 
ATOM      9  C   UNL     1       3.028   3.489  18.060  0.00  0.00    +0.000 C 
ATOM     10  C   UNL     1       2.653   6.053  18.311  0.00  0.00    +0.000 C 
ATOM     11  C   UNL     1       3.668   5.662  19.368  0.00  0.00    +0.000 C 
ENDBRANCH   3  11
ENDBRANCH   1   5
BRANCH   1  12
ATOM     12  C   UNL     1       6.891   4.716  16.467  0.00  0.00    +0.000 C 
ATOM     13  O   UNL     1       6.188   4.322  15.544  0.00  0.00    +0.000 OA
BRANCH  12  14
ATOM     14  OXT UNL     1       7.955   4.025  16.918  0.00  0.00    +0.000 OA
ATOM     15  HXT UNL     1       7.757   3.115  17.203  0.00  0.00    +0.000 HD
ENDBRANCH  12  14
ENDBRANCH   1  12
BRANCH   2  16
ATOM     16  C   UNL     1       7.525   8.366  17.704  0.00  0.00    +0.000 C 
BRANCH  16  17
ATOM     17  C   UNL     1       8.749   8.897  18.450  0.00  0.00    +0.000 C 
BRANCH  17  18
ATOM     18  C   UNL     1       8.515  10.403  18.638  0.00  0.00    +0.000 C 
BRANCH  18  19
ATOM     19  C   UNL     1       9.607  11.282  18.054  0.00  0.00    +0.000 C 
BRANCH  19  20
ATOM     20  C   UNL     1       9.217  12.756  18.206  0.00  0.00    +0.000 C 
BRANCH  20  21
ATOM     21  N   UNL     1       9.811  13.565  17.173  0.00  0.00    +0.000 N 
ATOM     22  C   UNL     1      10.792  14.467  17.458  0.00  0.00    +0.000 C 
ATOM     23  N   UNL     1      11.334  15.002  16.338  0.00  0.00    +0.000 N 
ATOM     24  O   UNL     1      11.176  14.783  18.578  0.00  0.00    +0.000 OA
ATOM     25  H   UNL     1       9.772  13.223  16.224  0.00  0.00    +0.000 HD
ATOM     26  H   UNL     1      10.748  15.100  15.523  0.00  0.00    +0.000 HD
ATOM     27  H   UNL     1      11.963  15.774  16.518  0.00  0.00    +0.000 HD
ENDBRANCH  20  21
ENDBRANCH  19  20
ENDBRANCH  18  19
ENDBRANCH  17  18
ENDBRANCH  16  17
ENDBRANCH   2  16
TORSDOF 10
ENDMDL
MODEL 7
REMARK VINA RESULT:      -6.6      2.500      6.475
REMARK  Name = 
REMARK  12 active torsions:
REMARK  status: ('A' for Active; 'I' for Inactive)
REMARK    1  A    between atoms: C_1  and  C_2
REMARK    2  A    between atoms: C_2  and  C_3
REMARK    3  A    between atoms: C_5  and  C_6
REMARK    4  A    between atoms: N_8  and  CA_9
REMARK    5  A    between atoms: CA_9  and  C_20
REMARK    6  A    between atoms: C_10  and  C_11
REMARK    7  A    between atoms: C_11  and  C_12
REMARK    8  A    between atoms: C_12  and  C_13
REMARK    9  A    between atoms: C_13  and  C_14
REMARK   10  A    between atoms: C_14  and  C_15
REMARK   11  A    between atoms: C_15  and  N_16
REMARK   12  A    between atoms: C_20  and  OXT_22
REMARK                            x       y       z     vdW  Elec       q    Type
REMARK                         _______ _______ _______ _____ _____    ______ ____
ROOT
ATOM      1  CA  UNL     1       6.088   4.787  17.085  0.00  0.00    +0.000 C 
ATOM      2  C   UNL     1       5.030   5.228  17.804  0.00  0.00    +0.000 C 
ENDROOT
BRANCH   1   5
ATOM      3  C   UNL     1       6.159   4.433  14.621  0.00  0.00    +0.000 C 
ATOM      4  O   UNL     1       6.507   5.554  14.270  0.00  0.00    +0.000 OA
ATOM      5  N   UNL     1       6.033   4.015  15.928  0.00  0.00    +0.000 N 
ATOM      6  H   UNL     1       6.122   3.015  16.092  0.00  0.00    +0.000 HD
BRANCH   3  11
ATOM      7  C   UNL     1       6.847   2.202  11.468  0.00  0.00    +0.000 C 
ATOM      8  C   UNL     1       6.483   3.484  12.172  0.00  0.00    +0.000 C 
ATOM      9  C   UNL     1       7.405   4.639  11.855  0.00  0.00    +0.000 C 
ATOM     10  C   UNL     1       5.013   3.761  12.393  0.00  0.00    +0.000 C 
ATOM     11  C   UNL     1       5.885   3.388  13.578  0.00  0.00    +0.000 C 
ENDBRANCH   3  11
ENDBRANCH   1   5
BRANCH   1  12
ATOM     12  C   UNL     1       7.495   5.028  17.559  0.00  0.00    +0.000 C 
ATOM     13  O   UNL     1       8.268   4.094  17.736  0.00  0.00    +0.000 OA
BRANCH  12  14
ATOM     14  OXT UNL     1       7.868   6.316  17.683  0.00  0.00    +0.000 OA
ATOM     15  HXT UNL     1       7.281   6.856  18.242  0.00  0.00    +0.000 HD
ENDBRANCH  12  14
ENDBRANCH   1  12
BRANCH   2  16
ATOM     16  C   UNL     1       3.591   4.955  17.476  0.00  0.00    +0.000 C 
BRANCH  16  17
ATOM     17  C   UNL     1       2.507   5.812  18.131  0.00  0.00    +0.000 C 
BRANCH  17  18
ATOM     18  C   UNL     1       1.742   4.881  19.082  0.00  0.00    +0.000 C 
BRANCH  18  19
ATOM     19  C   UNL     1       1.272   3.585  18.445  0.00  0.00    +0.000 C 
BRANCH  19  20
ATOM     20  C   UNL     1       1.500   2.422  19.416  0.00  0.00    +0.000 C 
BRANCH  20  21
ATOM     21  N   UNL     1       2.828   2.458  19.976  0.00  0.00    +0.000 N 
ATOM     22  C   UNL     1       3.877   1.863  19.343  0.00  0.00    +0.000 C 
ATOM     23  N   UNL     1       5.060   2.151  19.937  0.00  0.00    +0.000 N 
ATOM     24  O   UNL     1       3.808   1.149  18.349  0.00  0.00    +0.000 OA
ATOM     25  H   UNL     1       3.049   3.205  20.617  0.00  0.00    +0.000 HD
ATOM     26  H   UNL     1       5.068   2.315  20.932  0.00  0.00    +0.000 HD
ATOM     27  H   UNL     1       5.838   1.613  19.577  0.00  0.00    +0.000 HD
ENDBRANCH  20  21
ENDBRANCH  19  20
ENDBRANCH  18  19
ENDBRANCH  17  18
ENDBRANCH  16  17
ENDBRANCH   2  16
TORSDOF 10
ENDMDL
MODEL 8
REMARK VINA RESULT:      -6.6      2.089      2.352
REMARK  Name = 
REMARK  12 active torsions:
REMARK  status: ('A' for Active; 'I' for Inactive)
REMARK    1  A    between atoms: C_1  and  C_2
REMARK    2  A    between atoms: C_2  and  C_3
REMARK    3  A    between atoms: C_5  and  C_6
REMARK    4  A    between atoms: N_8  and  CA_9
REMARK    5  A    between atoms: CA_9  and  C_20
REMARK    6  A    between atoms: C_10  and  C_11
REMARK    7  A    between atoms: C_11  and  C_12
REMARK    8  A    between atoms: C_12  and  C_13
REMARK    9  A    between atoms: C_13  and  C_14
REMARK   10  A    between atoms: C_14  and  C_15
REMARK   11  A    between atoms: C_15  and  N_16
REMARK   12  A    between atoms: C_20  and  OXT_22
REMARK                            x       y       z     vdW  Elec       q    Type
REMARK                         _______ _______ _______ _____ _____    ______ ____
ROOT
ATOM      1  CA  UNL     1       6.349   5.603  17.977  0.00  0.00    +0.000 C 
ATOM      2  C   UNL     1       6.594   5.489  16.651  0.00  0.00    +0.000 C 
ENDROOT
BRANCH   1   5
ATOM      3  C   UNL     1       4.614   4.333  19.235  0.00  0.00    +0.000 C 
ATOM      4  O   UNL     1       5.257   3.325  19.495  0.00  0.00    +0.000 OA
ATOM      5  N   UNL     1       5.113   5.451  18.601  0.00  0.00    +0.000 N 
ATOM      6  H   UNL     1       4.631   6.328  18.785  0.00  0.00    +0.000 HD
BRANCH   3  11
ATOM      7  C   UNL     1       0.830   3.317  19.443  0.00  0.00    +0.000 C 
ATOM      8  C   UNL     1       2.042   3.913  18.775  0.00  0.00    +0.000 C 
ATOM      9  C   UNL     1       2.393   3.268  17.454  0.00  0.00    +0.000 C 
ATOM     10  C   UNL     1       2.267   5.399  18.946  0.00  0.00    +0.000 C 
ATOM     11  C   UNL     1       3.178   4.422  19.666  0.00  0.00    +0.000 C 
ENDBRANCH   3  11
ENDBRANCH   1   5
BRANCH   1  12
ATOM     12  C   UNL     1       7.435   6.024  18.928  0.00  0.00    +0.000 C 
ATOM     13  O   UNL     1       8.181   6.957  18.658  0.00  0.00    +0.000 OA
BRANCH  12  14
ATOM     14  OXT UNL     1       7.471   5.380  20.110  0.00  0.00    +0.000 OA
ATOM     15  HXT UNL     1       8.177   4.713  20.187  0.00  0.00    +0.000 HD
ENDBRANCH  12  14
ENDBRANCH   1  12
BRANCH   2  16
ATOM     16  C   UNL     1       5.562   5.176  15.606  0.00  0.00    +0.000 C 
BRANCH  16  17
ATOM     17  C   UNL     1       6.000   5.057  14.146  0.00  0.00    +0.000 C 
BRANCH  17  18
ATOM     18  C   UNL     1       5.527   3.677  13.669  0.00  0.00    +0.000 C 
BRANCH  18  19
ATOM     19  C   UNL     1       5.870   3.365  12.222  0.00  0.00    +0.000 C 
BRANCH  19  20
ATOM     20  C   UNL     1       4.610   2.905  11.483  0.00  0.00    +0.000 C 
BRANCH  20  21
ATOM     21  N   UNL     1       3.953   4.009  10.828  0.00  0.00    +0.000 N 
ATOM     22  C   UNL     1       3.074   3.803   9.809  0.00  0.00    +0.000 C 
ATOM     23  N   UNL     1       2.441   4.944   9.443  0.00  0.00    +0.000 N 
ATOM     24  O   UNL     1       2.844   2.731   9.261  0.00  0.00    +0.000 OA
ATOM     25  H   UNL     1       3.860   4.874  11.340  0.00  0.00    +0.000 HD
ATOM     26  H   UNL     1       2.934   5.818   9.547  0.00  0.00    +0.000 HD
ATOM     27  H   UNL     1       1.889   4.852   8.600  0.00  0.00    +0.000 HD
ENDBRANCH  20  21
ENDBRANCH  19  20
ENDBRANCH  18  19
ENDBRANCH  17  18
ENDBRANCH  16  17
ENDBRANCH   2  16
TORSDOF 10
ENDMDL
MODEL 9
REMARK VINA RESULT:      -6.5      2.541      7.077
REMARK  Name = 
REMARK  12 active torsions:
REMARK  status: ('A' for Active; 'I' for Inactive)
REMARK    1  A    between atoms: C_1  and  C_2
REMARK    2  A    between atoms: C_2  and  C_3
REMARK    3  A    between atoms: C_5  and  C_6
REMARK    4  A    between atoms: N_8  and  CA_9
REMARK    5  A    between atoms: CA_9  and  C_20
REMARK    6  A    between atoms: C_10  and  C_11
REMARK    7  A    between atoms: C_11  and  C_12
REMARK    8  A    between atoms: C_12  and  C_13
REMARK    9  A    between atoms: C_13  and  C_14
REMARK   10  A    between atoms: C_14  and  C_15
REMARK   11  A    between atoms: C_15  and  N_16
REMARK   12  A    between atoms: C_20  and  OXT_22
REMARK                            x       y       z     vdW  Elec       q    Type
REMARK                         _______ _______ _______ _____ _____    ______ ____
ROOT
ATOM      1  CA  UNL     1       6.147   4.134  17.070  0.00  0.00    +0.000 C 
ATOM      2  C   UNL     1       5.207   4.074  18.042  0.00  0.00    +0.000 C 
ENDROOT
BRANCH   1   5
ATOM      3  C   UNL     1       5.707   4.163  14.619  0.00  0.00    +0.000 C 
ATOM      4  O   UNL     1       5.562   5.368  14.459  0.00  0.00    +0.000 OA
ATOM      5  N   UNL     1       6.061   3.558  15.805  0.00  0.00    +0.000 N 
ATOM      6  H   UNL     1       6.517   2.651  15.731  0.00  0.00    +0.000 HD
BRANCH   3  11
ATOM      7  C   UNL     1       6.759   2.178  11.403  0.00  0.00    +0.000 C 
ATOM      8  C   UNL     1       6.365   3.415  12.167  0.00  0.00    +0.000 C 
ATOM      9  C   UNL     1       7.394   4.520  12.116  0.00  0.00    +0.000 C 
ATOM     10  C   UNL     1       4.898   3.783  12.184  0.00  0.00    +0.000 C 
ATOM     11  C   UNL     1       5.542   3.239  13.446  0.00  0.00    +0.000 C 
ENDBRANCH   3  11
ENDBRANCH   1   5
BRANCH   1  12
ATOM     12  C   UNL     1       7.480   4.782  17.327  0.00  0.00    +0.000 C 
ATOM     13  O   UNL     1       8.403   4.147  17.822  0.00  0.00    +0.000 OA
BRANCH  12  14
ATOM     14  OXT UNL     1       7.615   6.052  16.900  0.00  0.00    +0.000 OA
ATOM     15  HXT UNL     1       8.419   6.502  17.215  0.00  0.00    +0.000 HD
ENDBRANCH  12  14
ENDBRANCH   1  12
BRANCH   2  16
ATOM     16  C   UNL     1       3.889   3.365  17.924  0.00  0.00    +0.000 C 
BRANCH  16  17
ATOM     17  C   UNL     1       2.786   3.991  17.070  0.00  0.00    +0.000 C 
BRANCH  17  18
ATOM     18  C   UNL     1       1.809   4.653  18.052  0.00  0.00    +0.000 C 
BRANCH  18  19
ATOM     19  C   UNL     1       2.415   5.777  18.875  0.00  0.00    +0.000 C 
BRANCH  19  20
ATOM     20  C   UNL     1       1.836   5.745  20.293  0.00  0.00    +0.000 C 
BRANCH  20  21
ATOM     21  N   UNL     1       2.450   4.712  21.088  0.00  0.00    +0.000 N 
ATOM     22  C   UNL     1       1.854   3.498  21.250  0.00  0.00    +0.000 C 
ATOM     23  N   UNL     1       2.661   2.614  21.885  0.00  0.00    +0.000 N 
ATOM     24  O   UNL     1       0.727   3.192  20.877  0.00  0.00    +0.000 OA
ATOM     25  H   UNL     1       3.451   4.747  21.216  0.00  0.00    +0.000 HD
ATOM     26  H   UNL     1       3.325   2.970  22.556  0.00  0.00    +0.000 HD
ATOM     27  H   UNL     1       2.198   1.752  22.144  0.00  0.00    +0.000 HD
ENDBRANCH  20  21
ENDBRANCH  19  20
ENDBRANCH  18  19
ENDBRANCH  17  18
ENDBRANCH  16  17
ENDBRANCH   2  16
TORSDOF 10
ENDMDL
