MODEL 1
REMARK VINA RESULT:      -7.1      0.000      0.000
REMARK  Name = 
REMARK  5 active torsions:
REMARK  status: ('A' for Active; 'I' for Inactive)
REMARK    1  A    between atoms: C_1  and  N_2
REMARK    2  A    between atoms: N_2  and  C_17
REMARK    3  A    between atoms: C_3  and  C_5
REMARK    4  A    between atoms: C_5  and  N_6
REMARK    5  A    between atoms: N_9  and  C_10
REMARK                            x       y       z     vdW  Elec       q    Type
REMARK                         _______ _______ _______ _____ _____    ______ ____
ROOT
ATOM      1  C   UNL     1       2.644   7.174  19.762  0.00  0.00    +0.000 C 
ENDROOT
BRANCH   1   2
ATOM      2  N   UNL     1       2.926   5.998  18.975  0.00  0.00    +0.000 N 
ATOM      3  C   UNL     1       3.948   5.907  18.009  0.00  0.00    +0.000 A 
ATOM      4  O   UNL     1       4.777   6.761  17.746  0.00  0.00    +0.000 OA
ATOM      5  N   UNL     1       3.816   4.643  17.406  0.00  0.00    +0.000 N 
ATOM      6  C   UNL     1       4.589   4.155  16.308  0.00  0.00    +0.000 C 
ATOM      7  C   UNL     1       2.791   3.936  18.052  0.00  0.00    +0.000 A 
ATOM      8  C   UNL     1       2.347   2.643  17.860  0.00  0.00    +0.000 A 
ATOM      9  C   UNL     1       1.319   2.190  18.691  0.00  0.00    +0.000 A 
ATOM     10  C   UNL     1       0.749   3.035  19.664  0.00  0.00    +0.000 A 
ATOM     11  C   UNL     1       1.203   4.348  19.834  0.00  0.00    +0.000 A 
ATOM     12  C   UNL     1       2.234   4.775  19.022  0.00  0.00    +0.000 A 
ENDBRANCH   1   2
BRANCH   1  15
ATOM     13  C   UNL     1       0.987   9.272  21.080  0.00  0.00    +0.000 C 
ATOM     14  N   UNL     1       1.061   9.168  19.624  0.00  0.00    +0.000 N 
ATOM     15  C   UNL     1       1.833   8.210  18.964  0.00  0.00    +0.000 C 
ATOM     16  O   UNL     1       1.925   8.211  17.733  0.00  0.00    +0.000 OA
BRANCH  14  17
ATOM     17  C   UNL     1       0.467  10.304  18.870  0.00  0.00    +0.000 C 
ATOM     18  C   UNL     1      -1.044  10.119  18.628  0.00  0.00    +0.000 C 
ATOM     19  C   UNL     1      -1.548  11.429  18.050  0.00  0.00    +0.000 C 
ATOM     20  S   UNL     1      -0.746  12.678  19.026  0.00  0.00    +0.000 S 
ATOM     21  O   UNL     1      -1.527  12.884  20.223  0.00  0.00    +0.000 OA
ATOM     22  O   UNL     1      -0.382  13.775  18.148  0.00  0.00    +0.000 OA
ATOM     23  C   UNL     1       0.718  11.728  19.412  0.00  0.00    +0.000 C 
ENDBRANCH  14  17
ENDBRANCH   1  15
TORSDOF 3
ENDMDL
MODEL 2
REMARK VINA RESULT:      -6.9      1.171      2.654
REMARK  Name = 
REMARK  5 active torsions:
REMARK  status: ('A' for Active; 'I' for Inactive)
REMARK    1  A    between atoms: C_1  and  N_2
REMARK    2  A    between atoms: N_2  and  C_17
REMARK    3  A    between atoms: C_3  and  C_5
REMARK    4  A    between atoms: C_5  and  N_6
REMARK    5  A    between atoms: N_9  and  C_10
REMARK                            x       y       z     vdW  Elec       q    Type
REMARK                         _______ _______ _______ _____ _____    ______ ____
ROOT
ATOM      1  C   UNL     1       2.614   7.075  19.628  0.00  0.00    +0.000 C 
ENDROOT
BRANCH   1   2
ATOM      2  N   UNL     1       2.880   5.937  18.782  0.00  0.00    +0.000 N 
ATOM      3  C   UNL     1       2.158   4.728  18.816  0.00  0.00    +0.000 A 
ATOM      4  O   UNL     1       1.176   4.487  19.497  0.00  0.00    +0.000 OA
ATOM      5  N   UNL     1       2.797   3.855  17.917  0.00  0.00    +0.000 N 
ATOM      6  C   UNL     1       2.457   2.486  17.695  0.00  0.00    +0.000 C 
ATOM      7  C   UNL     1       3.837   4.545  17.276  0.00  0.00    +0.000 A 
ATOM      8  C   UNL     1       4.691   4.131  16.274  0.00  0.00    +0.000 A 
ATOM      9  C   UNL     1       5.617   5.064  15.796  0.00  0.00    +0.000 A 
ATOM     10  C   UNL     1       5.683   6.362  16.341  0.00  0.00    +0.000 A 
ATOM     11  C   UNL     1       4.817   6.758  17.368  0.00  0.00    +0.000 A 
ATOM     12  C   UNL     1       3.894   5.835  17.814  0.00  0.00    +0.000 A 
ENDBRANCH   1   2
BRANCH   1  15
ATOM     13  C   UNL     1       1.049   9.176  21.051  0.00  0.00    +0.000 C 
ATOM     14  N   UNL     1       1.091   9.121  19.591  0.00  0.00    +0.000 N 
ATOM     15  C   UNL     1       1.820   8.163  18.884  0.00  0.00    +0.000 C 
ATOM     16  O   UNL     1       1.887   8.205  17.651  0.00  0.00    +0.000 OA
BRANCH  14  17
ATOM     17  C   UNL     1       0.519  10.300  18.889  0.00  0.00    +0.000 C 
ATOM     18  C   UNL     1      -0.990  10.142  18.617  0.00  0.00    +0.000 C 
ATOM     19  C   UNL     1      -1.475  11.486  18.101  0.00  0.00    +0.000 C 
ATOM     20  S   UNL     1      -0.676  12.674  19.152  0.00  0.00    +0.000 S 
ATOM     21  O   UNL     1      -1.472  12.825  20.347  0.00  0.00    +0.000 OA
ATOM     22  O   UNL     1      -0.289  13.812  18.338  0.00  0.00    +0.000 OA
ATOM     23  C   UNL     1       0.774  11.691  19.509  0.00  0.00    +0.000 C 
ENDBRANCH  14  17
ENDBRANCH   1  15
TORSDOF 3
ENDMDL
MODEL 3
REMARK VINA RESULT:      -6.8      3.286      7.761
REMARK  Name = 
REMARK  5 active torsions:
REMARK  status: ('A' for Active; 'I' for Inactive)
REMARK    1  A    between atoms: C_1  and  N_2
REMARK    2  A    between atoms: N_2  and  C_17
REMARK    3  A    between atoms: C_3  and  C_5
REMARK    4  A    between atoms: C_5  and  N_6
REMARK    5  A    between atoms: N_9  and  C_10
REMARK                            x       y       z     vdW  Elec       q    Type
REMARK                         _______ _______ _______ _____ _____    ______ ____
ROOT
ATOM      1  C   UNL     1       1.732   9.233  19.236  0.00  0.00    +0.000 C 
ENDROOT
BRANCH   1   2
ATOM      2  N   UNL     1       0.614  10.100  19.516  0.00  0.00    +0.000 N 
ATOM      3  C   UNL     1       0.513  10.935  20.646  0.00  0.00    +0.000 A 
ATOM      4  O   UNL     1       1.363  11.104  21.504  0.00  0.00    +0.000 OA
ATOM      5  N   UNL     1      -0.763  11.527  20.594  0.00  0.00    +0.000 N 
ATOM      6  C   UNL     1      -1.331  12.381  21.588  0.00  0.00    +0.000 C 
ATOM      7  C   UNL     1      -1.397  11.133  19.406  0.00  0.00    +0.000 A 
ATOM      8  C   UNL     1      -2.619  11.509  18.885  0.00  0.00    +0.000 A 
ATOM      9  C   UNL     1      -2.976  10.976  17.644  0.00  0.00    +0.000 A 
ATOM     10  C   UNL     1      -2.127  10.074  16.972  0.00  0.00    +0.000 A 
ATOM     11  C   UNL     1      -0.897   9.694  17.522  0.00  0.00    +0.000 A 
ATOM     12  C   UNL     1      -0.548  10.245  18.738  0.00  0.00    +0.000 A 
ENDBRANCH   1   2
BRANCH   1  15
ATOM     13  C   UNL     1       2.876   6.690  18.181  0.00  0.00    +0.000 C 
ATOM     14  N   UNL     1       2.159   6.728  19.455  0.00  0.00    +0.000 N 
ATOM     15  C   UNL     1       1.619   7.898  19.992  0.00  0.00    +0.000 C 
ATOM     16  O   UNL     1       1.089   7.894  21.108  0.00  0.00    +0.000 OA
BRANCH  14  17
ATOM     17  C   UNL     1       2.255   5.495  20.281  0.00  0.00    +0.000 C 
ATOM     18  C   UNL     1       0.959   4.662  20.239  0.00  0.00    +0.000 C 
ATOM     19  C   UNL     1       1.271   3.350  20.938  0.00  0.00    +0.000 C 
ATOM     20  S   UNL     1       2.876   2.898  20.327  0.00  0.00    +0.000 S 
ATOM     21  O   UNL     1       2.702   2.209  19.070  0.00  0.00    +0.000 OA
ATOM     22  O   UNL     1       3.631   2.318  21.422  0.00  0.00    +0.000 OA
ATOM     23  C   UNL     1       3.460   4.562  20.031  0.00  0.00    +0.000 C 
ENDBRANCH  14  17
ENDBRANCH   1  15
TORSDOF 3
ENDMDL
MODEL 4
REMARK VINA RESULT:      -6.6      2.989      7.678
REMARK  Name = 
REMARK  5 active torsions:
REMARK  status: ('A' for Active; 'I' for Inactive)
REMARK    1  A    between atoms: C_1  and  N_2
REMARK    2  A    between atoms: N_2  and  C_17
REMARK    3  A    between atoms: C_3  and  C_5
REMARK    4  A    between atoms: C_5  and  N_6
REMARK    5  A    between atoms: N_9  and  C_10
REMARK                            x       y       z     vdW  Elec       q    Type
REMARK                         _______ _______ _______ _____ _____    ______ ____
ROOT
ATOM      1  C   UNL     1       1.859   9.745  18.821  0.00  0.00    +0.000 C 
ENDROOT
BRANCH   1   2
ATOM      2  N   UNL     1       0.628  10.387  19.214  0.00  0.00    +0.000 N 
ATOM      3  C   UNL     1       0.466  11.158  20.382  0.00  0.00    +0.000 A 
ATOM      4  O   UNL     1       1.335  11.455  21.184  0.00  0.00    +0.000 OA
ATOM      5  N   UNL     1      -0.895  11.510  20.444  0.00  0.00    +0.000 N 
ATOM      6  C   UNL     1      -1.528  12.219  21.510  0.00  0.00    +0.000 C 
ATOM      7  C   UNL     1      -1.537  11.041  19.288  0.00  0.00    +0.000 A 
ATOM      8  C   UNL     1      -2.843  11.203  18.871  0.00  0.00    +0.000 A 
ATOM      9  C   UNL     1      -3.194  10.649  17.637  0.00  0.00    +0.000 A 
ATOM     10  C   UNL     1      -2.251   9.935  16.870  0.00  0.00    +0.000 A 
ATOM     11  C   UNL     1      -0.934   9.769  17.317  0.00  0.00    +0.000 A 
ATOM     12  C   UNL     1      -0.597  10.340  18.526  0.00  0.00    +0.000 A 
ENDBRANCH   1   2
BRANCH   1  15
ATOM     13  C   UNL     1       3.390   7.641  17.367  0.00  0.00    +0.000 C 
ATOM     14  N   UNL     1       2.634   7.327  18.578  0.00  0.00    +0.000 N 
ATOM     15  C   UNL     1       1.914   8.283  19.297  0.00  0.00    +0.000 C 
ATOM     16  O   UNL     1       1.354   7.985  20.358  0.00  0.00    +0.000 OA
BRANCH  14  17
ATOM     17  C   UNL     1       2.879   5.979  19.154  0.00  0.00    +0.000 C 
ATOM     18  C   UNL     1       1.881   4.929  18.629  0.00  0.00    +0.000 C 
ATOM     19  C   UNL     1       2.377   3.582  19.125  0.00  0.00    +0.000 C 
ATOM     20  S   UNL     1       4.133   3.638  18.869  0.00  0.00    +0.000 S 
ATOM     21  O   UNL     1       4.402   3.255  17.503  0.00  0.00    +0.000 OA
ATOM     22  O   UNL     1       4.776   2.981  19.992  0.00  0.00    +0.000 OA
ATOM     23  C   UNL     1       4.310   5.409  19.049  0.00  0.00    +0.000 C 
ENDBRANCH  14  17
ENDBRANCH   1  15
TORSDOF 3
ENDMDL
MODEL 5
REMARK VINA RESULT:      -6.5      2.108      3.615
REMARK  Name = 
REMARK  5 active torsions:
REMARK  status: ('A' for Active; 'I' for Inactive)
REMARK    1  A    between atoms: C_1  and  N_2
REMARK    2  A    between atoms: N_2  and  C_17
REMARK    3  A    between atoms: C_3  and  C_5
REMARK    4  A    between atoms: C_5  and  N_6
REMARK    5  A    between atoms: N_9  and  C_10
REMARK                            x       y       z     vdW  Elec       q    Type
REMARK                         _______ _______ _______ _____ _____    ______ ____
ROOT
ATOM      1  C   UNL     1       2.040   6.885  18.156  0.00  0.00    +0.000 C 
ENDROOT
BRANCH   1   2
ATOM      2  N   UNL     1       3.063   5.891  18.372  0.00  0.00    +0.000 N 
ATOM      3  C   UNL     1       2.847   4.640  18.983  0.00  0.00    +0.000 A 
ATOM      4  O   UNL     1       1.777   4.186  19.351  0.00  0.00    +0.000 OA
ATOM      5  N   UNL     1       4.108   4.026  19.092  0.00  0.00    +0.000 N 
ATOM      6  C   UNL     1       4.378   2.778  19.733  0.00  0.00    +0.000 C 
ATOM      7  C   UNL     1       5.067   4.844  18.477  0.00  0.00    +0.000 A 
ATOM      8  C   UNL     1       6.416   4.632  18.273  0.00  0.00    +0.000 A 
ATOM      9  C   UNL     1       7.122   5.622  17.585  0.00  0.00    +0.000 A 
ATOM     10  C   UNL     1       6.478   6.796  17.143  0.00  0.00    +0.000 A 
ATOM     11  C   UNL     1       5.112   6.999  17.372  0.00  0.00    +0.000 A 
ATOM     12  C   UNL     1       4.423   6.004  18.033  0.00  0.00    +0.000 A 
ENDBRANCH   1   2
BRANCH   1  15
ATOM     13  C   UNL     1       0.892   9.622  17.878  0.00  0.00    +0.000 C 
ATOM     14  N   UNL     1       1.409   9.144  19.159  0.00  0.00    +0.000 N 
ATOM     15  C   UNL     1       1.943   7.866  19.338  0.00  0.00    +0.000 C 
ATOM     16  O   UNL     1       2.296   7.480  20.457  0.00  0.00    +0.000 OA
BRANCH  14  17
ATOM     17  C   UNL     1       1.102  10.001  20.334  0.00  0.00    +0.000 C 
ATOM     18  C   UNL     1       1.199  11.503  20.002  0.00  0.00    +0.000 C 
ATOM     19  C   UNL     1       0.659  12.245  21.213  0.00  0.00    +0.000 C 
ATOM     20  S   UNL     1      -0.785  11.325  21.683  0.00  0.00    +0.000 S 
ATOM     21  O   UNL     1      -1.894  11.787  20.882  0.00  0.00    +0.000 OA
ATOM     22  O   UNL     1      -0.848  11.288  23.133  0.00  0.00    +0.000 OA
ATOM     23  C   UNL     1      -0.222   9.737  21.083  0.00  0.00    +0.000 C 
ENDBRANCH  14  17
ENDBRANCH   1  15
TORSDOF 3
ENDMDL
MODEL 6
REMARK VINA RESULT:      -6.5      2.011      2.720
REMARK  Name = 
REMARK  5 active torsions:
REMARK  status: ('A' for Active; 'I' for Inactive)
REMARK    1  A    between atoms: C_1  and  N_2
REMARK    2  A    between atoms: N_2  and  C_17
REMARK    3  A    between atoms: C_3  and  C_5
REMARK    4  A    between atoms: C_5  and  N_6
REMARK    5  A    between atoms: N_9  and  C_10
REMARK                            x       y       z     vdW  Elec       q    Type
REMARK                         _______ _______ _______ _____ _____    ______ ____
ROOT
ATOM      1  C   UNL     1       2.664   7.573  17.760  0.00  0.00    +0.000 C 
ENDROOT
BRANCH   1   2
ATOM      2  N   UNL     1       3.445   6.360  17.716  0.00  0.00    +0.000 N 
ATOM      3  C   UNL     1       4.846   6.315  17.580  0.00  0.00    +0.000 A 
ATOM      4  O   UNL     1       5.605   7.269  17.550  0.00  0.00    +0.000 OA
ATOM      5  N   UNL     1       5.194   4.956  17.477  0.00  0.00    +0.000 N 
ATOM      6  C   UNL     1       6.506   4.444  17.236  0.00  0.00    +0.000 C 
ATOM      7  C   UNL     1       4.038   4.178  17.638  0.00  0.00    +0.000 A 
ATOM      8  C   UNL     1       3.891   2.806  17.685  0.00  0.00    +0.000 A 
ATOM      9  C   UNL     1       2.603   2.308  17.900  0.00  0.00    +0.000 A 
ATOM     10  C   UNL     1       1.504   3.179  18.037  0.00  0.00    +0.000 A 
ATOM     11  C   UNL     1       1.671   4.567  17.973  0.00  0.00    +0.000 A 
ATOM     12  C   UNL     1       2.951   5.046  17.783  0.00  0.00    +0.000 A 
ENDBRANCH   1   2
BRANCH   1  15
ATOM     13  C   UNL     1       0.938   9.922  18.385  0.00  0.00    +0.000 C 
ATOM     14  N   UNL     1       1.309   8.957  19.419  0.00  0.00    +0.000 N 
ATOM     15  C   UNL     1       2.104   7.837  19.169  0.00  0.00    +0.000 C 
ATOM     16  O   UNL     1       2.326   7.009  20.058  0.00  0.00    +0.000 OA
BRANCH  14  17
ATOM     17  C   UNL     1       0.582   9.090  20.709  0.00  0.00    +0.000 C 
ATOM     18  C   UNL     1       1.540   9.237  21.907  0.00  0.00    +0.000 C 
ATOM     19  C   UNL     1       0.675   9.575  23.108  0.00  0.00    +0.000 C 
ATOM     20  S   UNL     1      -0.487  10.768  22.491  0.00  0.00    +0.000 S 
ATOM     21  O   UNL     1       0.133  12.071  22.547  0.00  0.00    +0.000 OA
ATOM     22  O   UNL     1      -1.776  10.505  23.102  0.00  0.00    +0.000 OA
ATOM     23  C   UNL     1      -0.509  10.179  20.803  0.00  0.00    +0.000 C 
ENDBRANCH  14  17
ENDBRANCH   1  15
TORSDOF 3
ENDMDL
MODEL 7
REMARK VINA RESULT:      -6.4      1.791      2.313
REMARK  Name = 
REMARK  5 active torsions:
REMARK  status: ('A' for Active; 'I' for Inactive)
REMARK    1  A    between atoms: C_1  and  N_2
REMARK    2  A    between atoms: N_2  and  C_17
REMARK    3  A    between atoms: C_3  and  C_5
REMARK    4  A    between atoms: C_5  and  N_6
REMARK    5  A    between atoms: N_9  and  C_10
REMARK                            x       y       z     vdW  Elec       q    Type
REMARK                         _______ _______ _______ _____ _____    ______ ____
ROOT
ATOM      1  C   UNL     1       1.828   7.231  18.341  0.00  0.00    +0.000 C 
ENDROOT
BRANCH   1   2
ATOM      2  N   UNL     1       2.762   6.173  18.637  0.00  0.00    +0.000 N 
ATOM      3  C   UNL     1       4.092   6.127  18.172  0.00  0.00    +0.000 A 
ATOM      4  O   UNL     1       4.666   6.986  17.525  0.00  0.00    +0.000 OA
ATOM      5  N   UNL     1       4.620   4.893  18.595  0.00  0.00    +0.000 N 
ATOM      6  C   UNL     1       5.914   4.383  18.271  0.00  0.00    +0.000 C 
ATOM      7  C   UNL     1       3.663   4.235  19.382  0.00  0.00    +0.000 A 
ATOM      8  C   UNL     1       3.748   3.041  20.069  0.00  0.00    +0.000 A 
ATOM      9  C   UNL     1       2.631   2.650  20.812  0.00  0.00    +0.000 A 
ATOM     10  C   UNL     1       1.463   3.438  20.831  0.00  0.00    +0.000 A 
ATOM     11  C   UNL     1       1.391   4.639  20.116  0.00  0.00    +0.000 A 
ATOM     12  C   UNL     1       2.508   5.024  19.406  0.00  0.00    +0.000 A 
ENDBRANCH   1   2
BRANCH   1  15
ATOM     13  C   UNL     1       0.611   9.931  17.998  0.00  0.00    +0.000 C 
ATOM     14  N   UNL     1       1.180   9.514  19.278  0.00  0.00    +0.000 N 
ATOM     15  C   UNL     1       1.748   8.255  19.487  0.00  0.00    +0.000 C 
ATOM     16  O   UNL     1       2.145   7.920  20.608  0.00  0.00    +0.000 OA
BRANCH  14  17
ATOM     17  C   UNL     1       0.893  10.410  20.429  0.00  0.00    +0.000 C 
ATOM     18  C   UNL     1       0.960  11.900  20.041  0.00  0.00    +0.000 C 
ATOM     19  C   UNL     1       0.443  12.678  21.238  0.00  0.00    +0.000 C 
ATOM     20  S   UNL     1      -0.975  11.757  21.781  0.00  0.00    +0.000 S 
ATOM     21  O   UNL     1      -2.112  12.175  20.994  0.00  0.00    +0.000 OA
ATOM     22  O   UNL     1      -0.999  11.773  23.232  0.00  0.00    +0.000 OA
ATOM     23  C   UNL     1      -0.407  10.156  21.222  0.00  0.00    +0.000 C 
ENDBRANCH  14  17
ENDBRANCH   1  15
TORSDOF 3
ENDMDL
MODEL 8
REMARK VINA RESULT:      -6.3      2.492      2.804
REMARK  Name = 
REMARK  5 active torsions:
REMARK  status: ('A' for Active; 'I' for Inactive)
REMARK    1  A    between atoms: C_1  and  N_2
REMARK    2  A    between atoms: N_2  and  C_17
REMARK    3  A    between atoms: C_3  and  C_5
REMARK    4  A    between atoms: C_5  and  N_6
REMARK    5  A    between atoms: N_9  and  C_10
REMARK                            x       y       z     vdW  Elec       q    Type
REMARK                         _______ _______ _______ _____ _____    ______ ____
ROOT
ATOM      1  C   UNL     1       2.407   7.253  17.560  0.00  0.00    +0.000 C 
ENDROOT
BRANCH   1   2
ATOM      2  N   UNL     1       3.267   6.101  17.674  0.00  0.00    +0.000 N 
ATOM      3  C   UNL     1       4.673   6.138  17.576  0.00  0.00    +0.000 A 
ATOM      4  O   UNL     1       5.367   7.133  17.455  0.00  0.00    +0.000 OA
ATOM      5  N   UNL     1       5.113   4.803  17.638  0.00  0.00    +0.000 N 
ATOM      6  C   UNL     1       6.463   4.360  17.487  0.00  0.00    +0.000 C 
ATOM      7  C   UNL     1       4.007   3.970  17.861  0.00  0.00    +0.000 A 
ATOM      8  C   UNL     1       3.950   2.606  18.061  0.00  0.00    +0.000 A 
ATOM      9  C   UNL     1       2.692   2.046  18.302  0.00  0.00    +0.000 A 
ATOM     10  C   UNL     1       1.533   2.849  18.313  0.00  0.00    +0.000 A 
ATOM     11  C   UNL     1       1.610   4.230  18.093  0.00  0.00    +0.000 A 
ATOM     12  C   UNL     1       2.861   4.771  17.879  0.00  0.00    +0.000 A 
ENDBRANCH   1   2
BRANCH   1  15
ATOM     13  C   UNL     1       1.492  10.076  17.845  0.00  0.00    +0.000 C 
ATOM     14  N   UNL     1       1.731   9.235  19.016  0.00  0.00    +0.000 N 
ATOM     15  C   UNL     1       2.148   7.905  18.930  0.00  0.00    +0.000 C 
ATOM     16  O   UNL     1       2.261   7.212  19.946  0.00  0.00    +0.000 OA
BRANCH  14  17
ATOM     17  C   UNL     1       1.260   9.792  20.312  0.00  0.00    +0.000 C 
ATOM     18  C   UNL     1      -0.165  10.373  20.214  0.00  0.00    +0.000 C 
ATOM     19  C   UNL     1      -0.591  10.702  21.635  0.00  0.00    +0.000 C 
ATOM     20  S   UNL     1      -0.045   9.309  22.591  0.00  0.00    +0.000 S 
ATOM     21  O   UNL     1      -1.056   8.282  22.507  0.00  0.00    +0.000 OA
ATOM     22  O   UNL     1       0.447   9.799  23.866  0.00  0.00    +0.000 OA
ATOM     23  C   UNL     1       1.345   8.879  21.553  0.00  0.00    +0.000 C 
ENDBRANCH  14  17
ENDBRANCH   1  15
TORSDOF 3
ENDMDL
MODEL 9
REMARK VINA RESULT:      -6.3      2.316      3.859
REMARK  Name = 
REMARK  5 active torsions:
REMARK  status: ('A' for Active; 'I' for Inactive)
REMARK    1  A    between atoms: C_1  and  N_2
REMARK    2  A    between atoms: N_2  and  C_17
REMARK    3  A    between atoms: C_3  and  C_5
REMARK    4  A    between atoms: C_5  and  N_6
REMARK    5  A    between atoms: N_9  and  C_10
REMARK                            x       y       z     vdW  Elec       q    Type
REMARK                         _______ _______ _______ _____ _____    ______ ____
ROOT
ATOM      1  C   UNL     1       2.715   7.532  17.789  0.00  0.00    +0.000 C 
ENDROOT
BRANCH   1   2
ATOM      2  N   UNL     1       3.446   6.290  17.752  0.00  0.00    +0.000 N 
ATOM      3  C   UNL     1       2.854   5.012  17.771  0.00  0.00    +0.000 A 
ATOM      4  O   UNL     1       1.660   4.763  17.749  0.00  0.00    +0.000 OA
ATOM      5  N   UNL     1       3.909   4.082  17.827  0.00  0.00    +0.000 N 
ATOM      6  C   UNL     1       3.771   2.666  17.952  0.00  0.00    +0.000 C 
ATOM      7  C   UNL     1       5.127   4.774  17.752  0.00  0.00    +0.000 A 
ATOM      8  C   UNL     1       6.419   4.292  17.700  0.00  0.00    +0.000 A 
ATOM      9  C   UNL     1       7.448   5.231  17.586  0.00  0.00    +0.000 A 
ATOM     10  C   UNL     1       7.167   6.612  17.552  0.00  0.00    +0.000 A 
ATOM     11  C   UNL     1       5.850   7.082  17.621  0.00  0.00    +0.000 A 
ATOM     12  C   UNL     1       4.844   6.143  17.710  0.00  0.00    +0.000 A 
ENDBRANCH   1   2
BRANCH   1  15
ATOM     13  C   UNL     1       1.029   9.918  18.383  0.00  0.00    +0.000 C 
ATOM     14  N   UNL     1       1.350   8.940  19.420  0.00  0.00    +0.000 N 
ATOM     15  C   UNL     1       2.125   7.803  19.184  0.00  0.00    +0.000 C 
ATOM     16  O   UNL     1       2.305   6.966  20.074  0.00  0.00    +0.000 OA
BRANCH  14  17
ATOM     17  C   UNL     1       0.594   9.084  20.692  0.00  0.00    +0.000 C 
ATOM     18  C   UNL     1       1.525   9.204  21.915  0.00  0.00    +0.000 C 
ATOM     19  C   UNL     1       0.638   9.557  23.096  0.00  0.00    +0.000 C 
ATOM     20  S   UNL     1      -0.481  10.778  22.455  0.00  0.00    +0.000 S 
ATOM     21  O   UNL     1       0.166  12.066  22.533  0.00  0.00    +0.000 OA
ATOM     22  O   UNL     1      -1.791  10.541  23.033  0.00  0.00    +0.000 OA
ATOM     23  C   UNL     1      -0.474  10.197  20.764  0.00  0.00    +0.000 C 
ENDBRANCH  14  17
ENDBRANCH   1  15
TORSDOF 3
ENDMDL
