MODEL 1
REMARK VINA RESULT:      -8.2      0.000      0.000
REMARK  Name = 
REMARK  4 active torsions:
REMARK  status: ('A' for Active; 'I' for Inactive)
REMARK    1  A    between atoms: C_1  and  O_2
REMARK    2  A    between atoms: O_2  and  C_3
REMARK    3  A    between atoms: C_12  and  N_13
REMARK    4  A    between atoms: C_14  and  C_16
REMARK                            x       y       z     vdW  Elec       q    Type
REMARK                         _______ _______ _______ _____ _____    ______ ____
ROOT
ATOM      1  N   UNL     1       2.199   7.734  19.129  0.00  0.00    +0.000 N 
ATOM      2  C   UNL     1       1.744   8.912  18.538  0.00  0.00    +0.000 C 
ATOM      3  O   UNL     1       1.783   9.130  17.332  0.00  0.00    +0.000 OA
ATOM      4  H   UNL     1       1.954   7.557  20.101  0.00  0.00    +0.000 HD
ENDROOT
BRANCH   1  14
ATOM      5  C   UNL     1       2.685   5.346  18.733  0.00  0.00    +0.000 A 
ATOM      6  C   UNL     1       3.455   4.358  18.095  0.00  0.00    +0.000 A 
ATOM      7  C   UNL     1       4.394   4.694  17.109  0.00  0.00    +0.000 A 
ATOM      8  C   UNL     1       5.131   3.718  16.421  0.00  0.00    +0.000 A 
ATOM      9  C   UNL     1       6.023   4.098  15.427  0.00  0.00    +0.000 A 
ATOM     10  C   UNL     1       6.155   5.447  15.162  0.00  0.00    +0.000 A 
ATOM     11  N   UNL     1       5.477   6.410  15.819  0.00  0.00    +0.000 NA
ATOM     12  C   UNL     1       4.604   6.039  16.774  0.00  0.00    +0.000 A 
ATOM     13  C   UNL     1       3.883   7.006  17.463  0.00  0.00    +0.000 A 
ATOM     14  C   UNL     1       2.917   6.702  18.441  0.00  0.00    +0.000 A 
BRANCH   5  16
ATOM     15  C   UNL     1       2.149   4.532  20.885  0.00  0.00    +0.000 C 
ATOM     16  O   UNL     1       1.683   5.029  19.623  0.00  0.00    +0.000 OA
ENDBRANCH   5  16
ENDBRANCH   1  14
BRANCH   2  17
ATOM     17  C   UNL     1       1.138   9.920  19.387  0.00  0.00    +0.000 A 
ATOM     18  C   UNL     1       1.102  11.293  19.047  0.00  0.00    +0.000 A 
ATOM     19  N   UNL     1       0.484  12.049  19.948  0.00  0.00    +0.000 NA
ATOM     20  N   UNL     1       0.119  11.179  20.912  0.00  0.00    +0.000 N 
ATOM     21  C   UNL     1      -0.581  11.478  22.076  0.00  0.00    +0.000 A 
ATOM     22  C   UNL     1      -0.850  10.514  22.963  0.00  0.00    +0.000 A 
ATOM     23  C   UNL     1      -0.342   9.161  22.598  0.00  0.00    +0.000 A 
ATOM     24  N   UNL     1       0.287   8.835  21.505  0.00  0.00    +0.000 NA
ATOM     25  C   UNL     1       0.524   9.859  20.624  0.00  0.00    +0.000 A 
ENDBRANCH   2  17
TORSDOF 3
ENDMDL
MODEL 2
REMARK VINA RESULT:      -7.8      1.348      1.966
REMARK  Name = 
REMARK  4 active torsions:
REMARK  status: ('A' for Active; 'I' for Inactive)
REMARK    1  A    between atoms: C_1  and  O_2
REMARK    2  A    between atoms: O_2  and  C_3
REMARK    3  A    between atoms: C_12  and  N_13
REMARK    4  A    between atoms: C_14  and  C_16
REMARK                            x       y       z     vdW  Elec       q    Type
REMARK                         _______ _______ _______ _____ _____    ______ ____
ROOT
ATOM      1  N   UNL     1       1.725   7.280  20.459  0.00  0.00    +0.000 N 
ATOM      2  C   UNL     1       1.274   8.561  20.146  0.00  0.00    +0.000 C 
ATOM      3  O   UNL     1       1.308   9.041  19.019  0.00  0.00    +0.000 OA
ATOM      4  H   UNL     1       1.483   6.893  21.369  0.00  0.00    +0.000 HD
ENDROOT
BRANCH   1  14
ATOM      5  C   UNL     1       2.338   5.023  19.666  0.00  0.00    +0.000 A 
ATOM      6  C   UNL     1       3.101   4.208  18.812  0.00  0.00    +0.000 A 
ATOM      7  C   UNL     1       3.891   4.761  17.794  0.00  0.00    +0.000 A 
ATOM      8  C   UNL     1       4.613   3.961  16.896  0.00  0.00    +0.000 A 
ATOM      9  C   UNL     1       5.353   4.554  15.882  0.00  0.00    +0.000 A 
ATOM     10  C   UNL     1       5.352   5.932  15.806  0.00  0.00    +0.000 A 
ATOM     11  N   UNL     1       4.685   6.730  16.666  0.00  0.00    +0.000 NA
ATOM     12  C   UNL     1       3.959   6.153  17.641  0.00  0.00    +0.000 A 
ATOM     13  C   UNL     1       3.253   6.945  18.537  0.00  0.00    +0.000 A 
ATOM     14  C   UNL     1       2.433   6.423  19.555  0.00  0.00    +0.000 A 
BRANCH   5  16
ATOM     15  C   UNL     1       2.019   3.417  21.367  0.00  0.00    +0.000 C 
ATOM     16  O   UNL     1       1.473   4.497  20.599  0.00  0.00    +0.000 OA
ENDBRANCH   5  16
ENDBRANCH   1  14
BRANCH   2  17
ATOM     17  C   UNL     1       0.678   9.359  21.202  0.00  0.00    +0.000 A 
ATOM     18  C   UNL     1       0.935   9.134  22.575  0.00  0.00    +0.000 A 
ATOM     19  N   UNL     1       0.309   9.984  23.381  0.00  0.00    +0.000 NA
ATOM     20  N   UNL     1      -0.391  10.776  22.543  0.00  0.00    +0.000 N 
ATOM     21  C   UNL     1      -1.203  11.848  22.899  0.00  0.00    +0.000 A 
ATOM     22  C   UNL     1      -1.865  12.529  21.958  0.00  0.00    +0.000 A 
ATOM     23  C   UNL     1      -1.658  12.043  20.564  0.00  0.00    +0.000 A 
ATOM     24  N   UNL     1      -0.882  11.068  20.187  0.00  0.00    +0.000 NA
ATOM     25  C   UNL     1      -0.216  10.412  21.191  0.00  0.00    +0.000 A 
ENDBRANCH   2  17
TORSDOF 3
ENDMDL
MODEL 3
REMARK VINA RESULT:      -7.6      1.195      1.910
REMARK  Name = 
REMARK  4 active torsions:
REMARK  status: ('A' for Active; 'I' for Inactive)
REMARK    1  A    between atoms: C_1  and  O_2
REMARK    2  A    between atoms: O_2  and  C_3
REMARK    3  A    between atoms: C_12  and  N_13
REMARK    4  A    between atoms: C_14  and  C_16
REMARK                            x       y       z     vdW  Elec       q    Type
REMARK                         _______ _______ _______ _____ _____    ______ ____
ROOT
ATOM      1  N   UNL     1       2.559   6.927  19.211  0.00  0.00    +0.000 N 
ATOM      2  C   UNL     1       1.916   8.111  18.857  0.00  0.00    +0.000 C 
ATOM      3  O   UNL     1       1.764   8.487  17.700  0.00  0.00    +0.000 OA
ATOM      4  H   UNL     1       2.470   6.599  20.171  0.00  0.00    +0.000 HD
ENDROOT
BRANCH   1  14
ATOM      5  C   UNL     1       2.802   4.787  18.004  0.00  0.00    +0.000 A 
ATOM      6  C   UNL     1       3.557   3.953  17.161  0.00  0.00    +0.000 A 
ATOM      7  C   UNL     1       4.726   4.416  16.539  0.00  0.00    +0.000 A 
ATOM      8  C   UNL     1       5.461   3.617  15.651  0.00  0.00    +0.000 A 
ATOM      9  C   UNL     1       6.592   4.132  15.031  0.00  0.00    +0.000 A 
ATOM     10  C   UNL     1       6.956   5.430  15.332  0.00  0.00    +0.000 A 
ATOM     11  N   UNL     1       6.282   6.216  16.197  0.00  0.00    +0.000 NA
ATOM     12  C   UNL     1       5.179   5.719  16.786  0.00  0.00    +0.000 A 
ATOM     13  C   UNL     1       4.458   6.506  17.675  0.00  0.00    +0.000 A 
ATOM     14  C   UNL     1       3.269   6.081  18.298  0.00  0.00    +0.000 A 
BRANCH   5  16
ATOM     15  C   UNL     1       1.370   2.973  18.495  0.00  0.00    +0.000 C 
ATOM     16  O   UNL     1       1.596   4.389  18.536  0.00  0.00    +0.000 OA
ENDBRANCH   5  16
ENDBRANCH   1  14
BRANCH   2  17
ATOM     17  C   UNL     1       1.341   8.925  19.911  0.00  0.00    +0.000 A 
ATOM     18  C   UNL     1       1.273   8.503  21.260  0.00  0.00    +0.000 A 
ATOM     19  N   UNL     1       0.729   9.401  22.074  0.00  0.00    +0.000 NA
ATOM     20  N   UNL     1       0.410  10.430  21.261  0.00  0.00    +0.000 N 
ATOM     21  C   UNL     1      -0.174  11.634  21.638  0.00  0.00    +0.000 A 
ATOM     22  C   UNL     1      -0.464  12.557  20.715  0.00  0.00    +0.000 A 
ATOM     23  C   UNL     1      -0.121  12.178  19.315  0.00  0.00    +0.000 A 
ATOM     24  N   UNL     1       0.456  11.078  18.925  0.00  0.00    +0.000 NA
ATOM     25  C   UNL     1       0.743  10.172  19.915  0.00  0.00    +0.000 A 
ENDBRANCH   2  17
TORSDOF 3
ENDMDL
MODEL 4
REMARK VINA RESULT:      -7.4      6.797      9.278
REMARK  Name = 
REMARK  4 active torsions:
REMARK  status: ('A' for Active; 'I' for Inactive)
REMARK    1  A    between atoms: C_1  and  O_2
REMARK    2  A    between atoms: O_2  and  C_3
REMARK    3  A    between atoms: C_12  and  N_13
REMARK    4  A    between atoms: C_14  and  C_16
REMARK                            x       y       z     vdW  Elec       q    Type
REMARK                         _______ _______ _______ _____ _____    ______ ____
ROOT
ATOM      1  N   UNL     1       9.094   9.211  19.010  0.00  0.00    +0.000 N 
ATOM      2  C   UNL     1       8.178   8.749  18.067  0.00  0.00    +0.000 C 
ATOM      3  O   UNL     1       7.773   9.418  17.123  0.00  0.00    +0.000 OA
ATOM      4  H   UNL     1       9.519   8.534  19.641  0.00  0.00    +0.000 HD
ENDROOT
BRANCH   1  14
ATOM      5  C   UNL     1       9.401  11.298  20.292  0.00  0.00    +0.000 A 
ATOM      6  C   UNL     1       9.797  12.647  20.331  0.00  0.00    +0.000 A 
ATOM      7  C   UNL     1      10.420  13.252  19.230  0.00  0.00    +0.000 A 
ATOM      8  C   UNL     1      10.874  14.579  19.270  0.00  0.00    +0.000 A 
ATOM      9  C   UNL     1      11.518  15.124  18.166  0.00  0.00    +0.000 A 
ATOM     10  C   UNL     1      11.678  14.321  17.054  0.00  0.00    +0.000 A 
ATOM     11  N   UNL     1      11.237  13.049  16.978  0.00  0.00    +0.000 NA
ATOM     12  C   UNL     1      10.623  12.520  18.052  0.00  0.00    +0.000 A 
ATOM     13  C   UNL     1      10.164  11.209  18.009  0.00  0.00    +0.000 A 
ATOM     14  C   UNL     1       9.556  10.564  19.102  0.00  0.00    +0.000 A 
BRANCH   5  16
ATOM     15  C   UNL     1       8.348  11.534  22.393  0.00  0.00    +0.000 C 
ATOM     16  O   UNL     1       8.888  10.656  21.397  0.00  0.00    +0.000 OA
ENDBRANCH   5  16
ENDBRANCH   1  14
BRANCH   2  17
ATOM     17  C   UNL     1       7.713   7.379  18.172  0.00  0.00    +0.000 A 
ATOM     18  C   UNL     1       8.191   6.475  19.151  0.00  0.00    +0.000 A 
ATOM     19  N   UNL     1       7.626   5.275  19.091  0.00  0.00    +0.000 NA
ATOM     20  N   UNL     1       6.773   5.366  18.050  0.00  0.00    +0.000 N 
ATOM     21  C   UNL     1       5.921   4.368  17.587  0.00  0.00    +0.000 A 
ATOM     22  C   UNL     1       5.148   4.589  16.518  0.00  0.00    +0.000 A 
ATOM     23  C   UNL     1       5.291   5.940  15.905  0.00  0.00    +0.000 A 
ATOM     24  N   UNL     1       6.049   6.911  16.328  0.00  0.00    +0.000 NA
ATOM     25  C   UNL     1       6.811   6.634  17.435  0.00  0.00    +0.000 A 
ENDBRANCH   2  17
TORSDOF 3
ENDMDL
MODEL 5
REMARK VINA RESULT:      -7.3      1.208      1.734
REMARK  Name = 
REMARK  4 active torsions:
REMARK  status: ('A' for Active; 'I' for Inactive)
REMARK    1  A    between atoms: C_1  and  O_2
REMARK    2  A    between atoms: O_2  and  C_3
REMARK    3  A    between atoms: C_12  and  N_13
REMARK    4  A    between atoms: C_14  and  C_16
REMARK                            x       y       z     vdW  Elec       q    Type
REMARK                         _______ _______ _______ _____ _____    ______ ____
ROOT
ATOM      1  N   UNL     1       2.012   7.668  19.525  0.00  0.00    +0.000 N 
ATOM      2  C   UNL     1       1.389   8.791  18.986  0.00  0.00    +0.000 C 
ATOM      3  O   UNL     1       1.274   8.999  17.783  0.00  0.00    +0.000 OA
ATOM      4  H   UNL     1       1.893   7.481  20.519  0.00  0.00    +0.000 HD
ENDROOT
BRANCH   1  14
ATOM      5  C   UNL     1       2.583   5.322  19.008  0.00  0.00    +0.000 A 
ATOM      6  C   UNL     1       3.365   4.396  18.295  0.00  0.00    +0.000 A 
ATOM      7  C   UNL     1       4.243   4.814  17.285  0.00  0.00    +0.000 A 
ATOM      8  C   UNL     1       4.990   3.901  16.525  0.00  0.00    +0.000 A 
ATOM      9  C   UNL     1       5.819   4.361  15.510  0.00  0.00    +0.000 A 
ATOM     10  C   UNL     1       5.881   5.723  15.297  0.00  0.00    +0.000 A 
ATOM     11  N   UNL     1       5.192   6.628  16.024  0.00  0.00    +0.000 NA
ATOM     12  C   UNL     1       4.380   6.180  16.998  0.00  0.00    +0.000 A 
ATOM     13  C   UNL     1       3.650   7.084  17.759  0.00  0.00    +0.000 A 
ATOM     14  C   UNL     1       2.742   6.698  18.763  0.00  0.00    +0.000 A 
BRANCH   5  16
ATOM     15  C   UNL     1       1.105   3.613  19.697  0.00  0.00    +0.000 C 
ATOM     16  O   UNL     1       1.636   4.924  19.926  0.00  0.00    +0.000 OA
ENDBRANCH   5  16
ENDBRANCH   1  14
BRANCH   2  17
ATOM     17  C   UNL     1       0.789   9.749  19.896  0.00  0.00    +0.000 A 
ATOM     18  C   UNL     1       1.239   9.936  21.225  0.00  0.00    +0.000 A 
ATOM     19  N   UNL     1       0.572  10.874  21.888  0.00  0.00    +0.000 NA
ATOM     20  N   UNL     1      -0.349  11.309  21.003  0.00  0.00    +0.000 N 
ATOM     21  C   UNL     1      -1.290  12.312  21.211  0.00  0.00    +0.000 A 
ATOM     22  C   UNL     1      -2.166  12.619  20.248  0.00  0.00    +0.000 A 
ATOM     23  C   UNL     1      -2.040  11.815  19.000  0.00  0.00    +0.000 A 
ATOM     24  N   UNL     1      -1.154  10.892  18.754  0.00  0.00    +0.000 NA
ATOM     25  C   UNL     1      -0.272  10.627  19.771  0.00  0.00    +0.000 A 
ENDBRANCH   2  17
TORSDOF 3
ENDMDL
MODEL 6
REMARK VINA RESULT:      -7.3      1.992      2.368
REMARK  Name = 
REMARK  4 active torsions:
REMARK  status: ('A' for Active; 'I' for Inactive)
REMARK    1  A    between atoms: C_1  and  O_2
REMARK    2  A    between atoms: O_2  and  C_3
REMARK    3  A    between atoms: C_12  and  N_13
REMARK    4  A    between atoms: C_14  and  C_16
REMARK                            x       y       z     vdW  Elec       q    Type
REMARK                         _______ _______ _______ _____ _____    ______ ____
ROOT
ATOM      1  N   UNL     1       1.825   7.933  19.002  0.00  0.00    +0.000 N 
ATOM      2  C   UNL     1       1.592   9.119  18.308  0.00  0.00    +0.000 C 
ATOM      3  O   UNL     1       2.186   9.441  17.285  0.00  0.00    +0.000 OA
ATOM      4  H   UNL     1       1.161   7.658  19.722  0.00  0.00    +0.000 HD
ENDROOT
BRANCH   1  14
ATOM      5  C   UNL     1       3.126   5.905  19.543  0.00  0.00    +0.000 A 
ATOM      6  C   UNL     1       4.222   5.065  19.279  0.00  0.00    +0.000 A 
ATOM      7  C   UNL     1       5.038   5.268  18.157  0.00  0.00    +0.000 A 
ATOM      8  C   UNL     1       6.101   4.407  17.846  0.00  0.00    +0.000 A 
ATOM      9  C   UNL     1       6.859   4.628  16.703  0.00  0.00    +0.000 A 
ATOM     10  C   UNL     1       6.531   5.711  15.913  0.00  0.00    +0.000 A 
ATOM     11  N   UNL     1       5.528   6.569  16.195  0.00  0.00    +0.000 NA
ATOM     12  C   UNL     1       4.788   6.347  17.296  0.00  0.00    +0.000 A 
ATOM     13  C   UNL     1       3.742   7.205  17.610  0.00  0.00    +0.000 A 
ATOM     14  C   UNL     1       2.890   7.018  18.715  0.00  0.00    +0.000 A 
BRANCH   5  16
ATOM     15  C   UNL     1       1.404   4.519  20.376  0.00  0.00    +0.000 C 
ATOM     16  O   UNL     1       2.249   5.660  20.576  0.00  0.00    +0.000 OA
ENDBRANCH   5  16
ENDBRANCH   1  14
BRANCH   2  17
ATOM     17  C   UNL     1       0.549  10.005  18.789  0.00  0.00    +0.000 A 
ATOM     18  C   UNL     1       0.672  10.770  19.973  0.00  0.00    +0.000 A 
ATOM     19  N   UNL     1      -0.385  11.532  20.229  0.00  0.00    +0.000 NA
ATOM     20  N   UNL     1      -1.236  11.264  19.218  0.00  0.00    +0.000 N 
ATOM     21  C   UNL     1      -2.491  11.829  19.017  0.00  0.00    +0.000 A 
ATOM     22  C   UNL     1      -3.243  11.443  17.981  0.00  0.00    +0.000 A 
ATOM     23  C   UNL     1      -2.632  10.395  17.115  0.00  0.00    +0.000 A 
ATOM     24  N   UNL     1      -1.450   9.866  17.248  0.00  0.00    +0.000 NA
ATOM     25  C   UNL     1      -0.716  10.308  18.320  0.00  0.00    +0.000 A 
ENDBRANCH   2  17
TORSDOF 3
ENDMDL
MODEL 7
REMARK VINA RESULT:      -7.2      1.206      2.057
REMARK  Name = 
REMARK  4 active torsions:
REMARK  status: ('A' for Active; 'I' for Inactive)
REMARK    1  A    between atoms: C_1  and  O_2
REMARK    2  A    between atoms: O_2  and  C_3
REMARK    3  A    between atoms: C_12  and  N_13
REMARK    4  A    between atoms: C_14  and  C_16
REMARK                            x       y       z     vdW  Elec       q    Type
REMARK                         _______ _______ _______ _____ _____    ______ ____
ROOT
ATOM      1  N   UNL     1       1.991   7.885  19.898  0.00  0.00    +0.000 N 
ATOM      2  C   UNL     1       1.349   9.004  19.369  0.00  0.00    +0.000 C 
ATOM      3  O   UNL     1       1.113   9.156  18.176  0.00  0.00    +0.000 OA
ATOM      4  H   UNL     1       1.973   7.752  20.907  0.00  0.00    +0.000 HD
ENDROOT
BRANCH   1  14
ATOM      5  C   UNL     1       2.351   5.497  19.388  0.00  0.00    +0.000 A 
ATOM      6  C   UNL     1       3.023   4.505  18.651  0.00  0.00    +0.000 A 
ATOM      7  C   UNL     1       3.880   4.842  17.593  0.00  0.00    +0.000 A 
ATOM      8  C   UNL     1       4.514   3.865  16.811  0.00  0.00    +0.000 A 
ATOM      9  C   UNL     1       5.325   4.248  15.750  0.00  0.00    +0.000 A 
ATOM     10  C   UNL     1       5.482   5.599  15.515  0.00  0.00    +0.000 A 
ATOM     11  N   UNL     1       4.902   6.563  16.261  0.00  0.00    +0.000 NA
ATOM     12  C   UNL     1       4.107   6.190  17.280  0.00  0.00    +0.000 A 
ATOM     13  C   UNL     1       3.488   7.157  18.062  0.00  0.00    +0.000 A 
ATOM     14  C   UNL     1       2.605   6.853  19.116  0.00  0.00    +0.000 A 
BRANCH   5  16
ATOM     15  C   UNL     1       1.075   3.795  20.415  0.00  0.00    +0.000 C 
ATOM     16  O   UNL     1       1.424   5.184  20.356  0.00  0.00    +0.000 OA
ENDBRANCH   5  16
ENDBRANCH   1  14
BRANCH   2  17
ATOM     17  C   UNL     1       0.880  10.026  20.286  0.00  0.00    +0.000 A 
ATOM     18  C   UNL     1       0.499   9.749  21.620  0.00  0.00    +0.000 A 
ATOM     19  N   UNL     1       0.118  10.824  22.301  0.00  0.00    +0.000 NA
ATOM     20  N   UNL     1       0.227  11.832  21.410  0.00  0.00    +0.000 N 
ATOM     21  C   UNL     1      -0.041  13.177  21.643  0.00  0.00    +0.000 A 
ATOM     22  C   UNL     1       0.081  14.066  20.652  0.00  0.00    +0.000 A 
ATOM     23  C   UNL     1       0.504  13.496  19.342  0.00  0.00    +0.000 A 
ATOM     24  N   UNL     1       0.796  12.252  19.091  0.00  0.00    +0.000 NA
ATOM     25  C   UNL     1       0.667  11.385  20.147  0.00  0.00    +0.000 A 
ENDBRANCH   2  17
TORSDOF 3
ENDMDL
MODEL 8
REMARK VINA RESULT:      -7.1      2.558      4.069
REMARK  Name = 
REMARK  4 active torsions:
REMARK  status: ('A' for Active; 'I' for Inactive)
REMARK    1  A    between atoms: C_1  and  O_2
REMARK    2  A    between atoms: O_2  and  C_3
REMARK    3  A    between atoms: C_12  and  N_13
REMARK    4  A    between atoms: C_14  and  C_16
REMARK                            x       y       z     vdW  Elec       q    Type
REMARK                         _______ _______ _______ _____ _____    ______ ____
ROOT
ATOM      1  N   UNL     1       1.434   8.523  20.743  0.00  0.00    +0.000 N 
ATOM      2  C   UNL     1       0.219   8.819  21.357  0.00  0.00    +0.000 C 
ATOM      3  O   UNL     1      -0.644   7.983  21.604  0.00  0.00    +0.000 OA
ATOM      4  H   UNL     1       2.164   9.232  20.752  0.00  0.00    +0.000 HD
ENDROOT
BRANCH   1  14
ATOM      5  C   UNL     1       2.383   7.169  18.909  0.00  0.00    +0.000 A 
ATOM      6  C   UNL     1       2.634   5.907  18.343  0.00  0.00    +0.000 A 
ATOM      7  C   UNL     1       2.362   4.727  19.049  0.00  0.00    +0.000 A 
ATOM      8  C   UNL     1       2.658   3.460  18.523  0.00  0.00    +0.000 A 
ATOM      9  C   UNL     1       2.404   2.321  19.276  0.00  0.00    +0.000 A 
ATOM     10  C   UNL     1       1.850   2.489  20.529  0.00  0.00    +0.000 A 
ATOM     11  N   UNL     1       1.534   3.691  21.055  0.00  0.00    +0.000 NA
ATOM     12  C   UNL     1       1.793   4.794  20.329  0.00  0.00    +0.000 A 
ATOM     13  C   UNL     1       1.488   6.047  20.845  0.00  0.00    +0.000 A 
ATOM     14  C   UNL     1       1.770   7.252  20.173  0.00  0.00    +0.000 A 
BRANCH   5  16
ATOM     15  C   UNL     1       1.651   9.046  17.677  0.00  0.00    +0.000 C 
ATOM     16  O   UNL     1       2.743   8.338  18.277  0.00  0.00    +0.000 OA
ENDBRANCH   5  16
ENDBRANCH   1  14
BRANCH   2  17
ATOM     17  C   UNL     1      -0.024  10.185  21.782  0.00  0.00    +0.000 A 
ATOM     18  C   UNL     1      -0.787  10.511  22.929  0.00  0.00    +0.000 A 
ATOM     19  N   UNL     1      -0.875  11.817  23.157  0.00  0.00    +0.000 NA
ATOM     20  N   UNL     1      -0.182  12.374  22.143  0.00  0.00    +0.000 N 
ATOM     21  C   UNL     1       0.040  13.732  21.939  0.00  0.00    +0.000 A 
ATOM     22  C   UNL     1       0.724  14.147  20.868  0.00  0.00    +0.000 A 
ATOM     23  C   UNL     1       1.193  13.061  19.961  0.00  0.00    +0.000 A 
ATOM     24  N   UNL     1       1.036  11.779  20.133  0.00  0.00    +0.000 NA
ATOM     25  C   UNL     1       0.338  11.410  21.255  0.00  0.00    +0.000 A 
ENDBRANCH   2  17
TORSDOF 3
ENDMDL
MODEL 9
REMARK VINA RESULT:      -7.1      1.497      2.119
REMARK  Name = 
REMARK  4 active torsions:
REMARK  status: ('A' for Active; 'I' for Inactive)
REMARK    1  A    between atoms: C_1  and  O_2
REMARK    2  A    between atoms: O_2  and  C_3
REMARK    3  A    between atoms: C_12  and  N_13
REMARK    4  A    between atoms: C_14  and  C_16
REMARK                            x       y       z     vdW  Elec       q    Type
REMARK                         _______ _______ _______ _____ _____    ______ ____
ROOT
ATOM      1  N   UNL     1       2.313   7.589  18.616  0.00  0.00    +0.000 N 
ATOM      2  C   UNL     1       2.042   7.602  19.983  0.00  0.00    +0.000 C 
ATOM      3  O   UNL     1       2.543   6.823  20.787  0.00  0.00    +0.000 OA
ATOM      4  H   UNL     1       2.009   8.383  18.057  0.00  0.00    +0.000 HD
ENDROOT
BRANCH   1  14
ATOM      5  C   UNL     1       2.614   5.244  17.903  0.00  0.00    +0.000 A 
ATOM      6  C   UNL     1       3.413   4.256  17.302  0.00  0.00    +0.000 A 
ATOM      7  C   UNL     1       4.621   4.585  16.670  0.00  0.00    +0.000 A 
ATOM      8  C   UNL     1       5.404   3.621  16.016  0.00  0.00    +0.000 A 
ATOM      9  C   UNL     1       6.575   4.002  15.373  0.00  0.00    +0.000 A 
ATOM     10  C   UNL     1       6.928   5.335  15.416  0.00  0.00    +0.000 A 
ATOM     11  N   UNL     1       6.208   6.282  16.053  0.00  0.00    +0.000 NA
ATOM     12  C   UNL     1       5.068   5.914  16.665  0.00  0.00    +0.000 A 
ATOM     13  C   UNL     1       4.299   6.865  17.323  0.00  0.00    +0.000 A 
ATOM     14  C   UNL     1       3.071   6.574  17.946  0.00  0.00    +0.000 A 
BRANCH   5  16
ATOM     15  C   UNL     1       1.341   3.793  19.265  0.00  0.00    +0.000 C 
ATOM     16  O   UNL     1       1.374   4.959  18.432  0.00  0.00    +0.000 OA
ENDBRANCH   5  16
ENDBRANCH   1  14
BRANCH   2  17
ATOM     17  C   UNL     1       1.159   8.630  20.501  0.00  0.00    +0.000 A 
ATOM     18  C   UNL     1       0.893   8.794  21.882  0.00  0.00    +0.000 A 
ATOM     19  N   UNL     1       0.075   9.805  22.151  0.00  0.00    +0.000 NA
ATOM     20  N   UNL     1      -0.229  10.314  20.939  0.00  0.00    +0.000 N 
ATOM     21  C   UNL     1      -1.047  11.408  20.680  0.00  0.00    +0.000 A 
ATOM     22  C   UNL     1      -1.285  11.785  19.419  0.00  0.00    +0.000 A 
ATOM     23  C   UNL     1      -0.624  10.950  18.377  0.00  0.00    +0.000 A 
ATOM     24  N   UNL     1       0.174   9.940  18.577  0.00  0.00    +0.000 NA
ATOM     25  C   UNL     1       0.395   9.606  19.890  0.00  0.00    +0.000 A 
ENDBRANCH   2  17
TORSDOF 3
ENDMDL
