MODEL 1
REMARK VINA RESULT:      -9.1      0.000      0.000
REMARK  Name = 
REMARK  8 active torsions:
REMARK  status: ('A' for Active; 'I' for Inactive)
REMARK    1  A    between atoms: C_1  and  O_2
REMARK    2  A    between atoms: O_2  and  C_3
REMARK    3  A    between atoms: C_5  and  C_6
REMARK    4  A    between atoms: N_9  and  C_10
REMARK    5  A    between atoms: C_10  and  N_12
REMARK    6  A    between atoms: C_13  and  C_15
REMARK    7  A    between atoms: C_16  and  C_17
REMARK    8  A    between atoms: C_27  and  C_28
REMARK                            x       y       z     vdW  Elec       q    Type
REMARK                         _______ _______ _______ _____ _____    ______ ____
ROOT
ATOM      1  N   UNL     1       2.785   6.484  19.708  0.00  0.00    +0.000 N 
ATOM      2  C   UNL     1       2.489   5.265  19.129  0.00  0.00    +0.000 C 
ATOM      3  O   UNL     1       1.687   5.149  18.202  0.00  0.00    +0.000 OA
ATOM      4  H   UNL     1       3.561   6.535  20.359  0.00  0.00    +0.000 HD
ENDROOT
BRANCH   2   5
ATOM      5  C   UNL     1       3.257   4.140  19.605  0.00  0.00    +0.000 A 
ATOM      6  C   UNL     1       4.440   3.569  19.024  0.00  0.00    +0.000 A 
ATOM      7  N   UNL     1       4.841   2.519  19.754  0.00  0.00    +0.000 NA
ATOM      8  O   UNL     1       3.909   2.345  20.751  0.00  0.00    +0.000 OA
ATOM      9  C   UNL     1       2.962   3.312  20.667  0.00  0.00    +0.000 A 
ATOM     10  C   UNL     1       1.861   3.224  21.647  0.00  0.00    +0.000 C 
BRANCH   6  11
ATOM     11  C   UNL     1       5.201   4.046  17.863  0.00  0.00    +0.000 A 
ATOM     12  C   UNL     1       4.802   3.625  16.578  0.00  0.00    +0.000 A 
ATOM     13  C   UNL     1       5.517   3.996  15.437  0.00  0.00    +0.000 A 
ATOM     14  C   UNL     1       6.624   4.827  15.559  0.00  0.00    +0.000 A 
ATOM     15 CL   UNL     1       7.509   5.277  14.156  0.00  0.00    +0.000 Cl
ATOM     16  C   UNL     1       7.021   5.286  16.811  0.00  0.00    +0.000 A 
ATOM     17  C   UNL     1       6.321   4.894  17.961  0.00  0.00    +0.000 A 
ATOM     18 CL   UNL     1       6.947   5.471  19.468  0.00  0.00    +0.000 Cl
ENDBRANCH   6  11
ENDBRANCH   2   5
BRANCH   1  19
ATOM     19  C   UNL     1       2.171   7.709  19.475  0.00  0.00    +0.000 C 
ATOM     20  S   UNL     1       2.372   8.355  17.947  0.00  0.00    +0.000 S 
BRANCH  19  27
ATOM     21  C   UNL     1      -0.557  10.660  22.021  0.00  0.00    +0.000 A 
ATOM     22  C   UNL     1      -1.025  11.415  20.975  0.00  0.00    +0.000 A 
ATOM     23  C   UNL     1      -0.602  11.021  19.727  0.00  0.00    +0.000 A 
ATOM     24  C   UNL     1      -0.967  11.800  18.501  0.00  0.00    +0.000 C 
ATOM     25  N   UNL     1       0.204   9.955  19.546  0.00  0.00    +0.000 NA
ATOM     26  C   UNL     1       0.581   9.266  20.627  0.00  0.00    +0.000 A 
ATOM     27  N   UNL     1       1.500   8.226  20.548  0.00  0.00    +0.000 N 
ATOM     28  N   UNL     1       0.225   9.578  21.878  0.00  0.00    +0.000 NA
ATOM     29  H   UNL     1       1.742   7.881  21.474  0.00  0.00    +0.000 HD
BRANCH  21  31
ATOM     30  C   UNL     1      -2.080  11.902  23.272  0.00  0.00    +0.000 C 
ATOM     31  O   UNL     1      -0.913  11.084  23.286  0.00  0.00    +0.000 OA
ENDBRANCH  21  31
ENDBRANCH  19  27
ENDBRANCH   1  19
TORSDOF 5
ENDMDL
MODEL 2
REMARK VINA RESULT:      -8.6      1.117      1.421
REMARK  Name = 
REMARK  8 active torsions:
REMARK  status: ('A' for Active; 'I' for Inactive)
REMARK    1  A    between atoms: C_1  and  O_2
REMARK    2  A    between atoms: O_2  and  C_3
REMARK    3  A    between atoms: C_5  and  C_6
REMARK    4  A    between atoms: N_9  and  C_10
REMARK    5  A    between atoms: C_10  and  N_12
REMARK    6  A    between atoms: C_13  and  C_15
REMARK    7  A    between atoms: C_16  and  C_17
REMARK    8  A    between atoms: C_27  and  C_28
REMARK                            x       y       z     vdW  Elec       q    Type
REMARK                         _______ _______ _______ _____ _____    ______ ____
ROOT
ATOM      1  N   UNL     1       2.892   6.225  19.870  0.00  0.00    +0.000 N 
ATOM      2  C   UNL     1       2.390   4.971  19.579  0.00  0.00    +0.000 C 
ATOM      3  O   UNL     1       1.380   4.804  18.897  0.00  0.00    +0.000 OA
ATOM      4  H   UNL     1       3.806   6.292  20.304  0.00  0.00    +0.000 HD
ENDROOT
BRANCH   2   5
ATOM      5  C   UNL     1       3.183   3.855  20.036  0.00  0.00    +0.000 A 
ATOM      6  C   UNL     1       4.345   3.283  19.414  0.00  0.00    +0.000 A 
ATOM      7  N   UNL     1       4.781   2.244  20.139  0.00  0.00    +0.000 NA
ATOM      8  O   UNL     1       3.891   2.078  21.175  0.00  0.00    +0.000 OA
ATOM      9  C   UNL     1       2.937   3.039  21.119  0.00  0.00    +0.000 A 
ATOM     10  C   UNL     1       1.877   2.957  22.144  0.00  0.00    +0.000 C 
BRANCH   6  11
ATOM     11  C   UNL     1       5.055   3.751  18.217  0.00  0.00    +0.000 A 
ATOM     12  C   UNL     1       6.333   4.323  18.374  0.00  0.00    +0.000 A 
ATOM     13  C   UNL     1       7.037   4.839  17.282  0.00  0.00    +0.000 A 
ATOM     14  C   UNL     1       6.486   4.759  16.009  0.00  0.00    +0.000 A 
ATOM     15 CL   UNL     1       7.348   5.401  14.668  0.00  0.00    +0.000 Cl
ATOM     16  C   UNL     1       5.241   4.168  15.820  0.00  0.00    +0.000 A 
ATOM     17  C   UNL     1       4.522   3.672  16.916  0.00  0.00    +0.000 A 
ATOM     18 CL   UNL     1       2.955   3.023  16.568  0.00  0.00    +0.000 Cl
ENDBRANCH   6  11
ENDBRANCH   2   5
BRANCH   1  19
ATOM     19  C   UNL     1       2.314   7.458  19.593  0.00  0.00    +0.000 C 
ATOM     20  S   UNL     1       2.497   8.025  18.032  0.00  0.00    +0.000 S 
BRANCH  19  27
ATOM     21  C   UNL     1      -0.319  10.572  22.046  0.00  0.00    +0.000 A 
ATOM     22  C   UNL     1      -0.842  11.245  20.971  0.00  0.00    +0.000 A 
ATOM     23  C   UNL     1      -0.474  10.764  19.736  0.00  0.00    +0.000 A 
ATOM     24  C   UNL     1      -0.904  11.450  18.475  0.00  0.00    +0.000 C 
ATOM     25  N   UNL     1       0.332   9.692  19.595  0.00  0.00    +0.000 NA
ATOM     26  C   UNL     1       0.765   9.087  20.704  0.00  0.00    +0.000 A 
ATOM     27  N   UNL     1       1.689   8.049  20.657  0.00  0.00    +0.000 N 
ATOM     28  N   UNL     1       0.465   9.486  21.945  0.00  0.00    +0.000 NA
ATOM     29  H   UNL     1       1.977   7.774  21.593  0.00  0.00    +0.000 HD
BRANCH  21  31
ATOM     30  C   UNL     1      -1.861  11.783  23.302  0.00  0.00    +0.000 C 
ATOM     31  O   UNL     1      -0.619  11.084  23.292  0.00  0.00    +0.000 OA
ENDBRANCH  21  31
ENDBRANCH  19  27
ENDBRANCH   1  19
TORSDOF 5
ENDMDL
MODEL 3
REMARK VINA RESULT:      -7.9      1.164      1.208
REMARK  Name = 
REMARK  8 active torsions:
REMARK  status: ('A' for Active; 'I' for Inactive)
REMARK    1  A    between atoms: C_1  and  O_2
REMARK    2  A    between atoms: O_2  and  C_3
REMARK    3  A    between atoms: C_5  and  C_6
REMARK    4  A    between atoms: N_9  and  C_10
REMARK    5  A    between atoms: C_10  and  N_12
REMARK    6  A    between atoms: C_13  and  C_15
REMARK    7  A    between atoms: C_16  and  C_17
REMARK    8  A    between atoms: C_27  and  C_28
REMARK                            x       y       z     vdW  Elec       q    Type
REMARK                         _______ _______ _______ _____ _____    ______ ____
ROOT
ATOM      1  N   UNL     1       2.480   6.284  18.654  0.00  0.00    +0.000 N 
ATOM      2  C   UNL     1       3.547   5.522  19.090  0.00  0.00    +0.000 C 
ATOM      3  O   UNL     1       4.462   5.988  19.768  0.00  0.00    +0.000 OA
ATOM      4  H   UNL     1       1.688   5.813  18.233  0.00  0.00    +0.000 HD
ENDROOT
BRANCH   2   5
ATOM      5  C   UNL     1       3.473   4.111  18.791  0.00  0.00    +0.000 A 
ATOM      6  C   UNL     1       4.097   3.405  17.707  0.00  0.00    +0.000 A 
ATOM      7  N   UNL     1       3.767   2.108  17.763  0.00  0.00    +0.000 NA
ATOM      8  O   UNL     1       2.886   1.964  18.810  0.00  0.00    +0.000 OA
ATOM      9  C   UNL     1       2.709   3.158  19.428  0.00  0.00    +0.000 A 
ATOM     10  C   UNL     1       1.744   3.170  20.545  0.00  0.00    +0.000 C 
BRANCH   6  11
ATOM     11  C   UNL     1       5.028   3.929  16.700  0.00  0.00    +0.000 A 
ATOM     12  C   UNL     1       4.631   3.917  15.347  0.00  0.00    +0.000 A 
ATOM     13  C   UNL     1       5.492   4.349  14.334  0.00  0.00    +0.000 A 
ATOM     14  C   UNL     1       6.752   4.833  14.663  0.00  0.00    +0.000 A 
ATOM     15 CL   UNL     1       7.814   5.356  13.416  0.00  0.00    +0.000 Cl
ATOM     16  C   UNL     1       7.158   4.887  15.992  0.00  0.00    +0.000 A 
ATOM     17  C   UNL     1       6.306   4.432  17.009  0.00  0.00    +0.000 A 
ATOM     18 CL   UNL     1       6.944   4.484  18.617  0.00  0.00    +0.000 Cl
ENDBRANCH   6  11
ENDBRANCH   2   5
BRANCH   1  19
ATOM     19  C   UNL     1       2.318   7.661  18.764  0.00  0.00    +0.000 C 
ATOM     20  S   UNL     1       2.852   8.572  17.469  0.00  0.00    +0.000 S 
BRANCH  19  27
ATOM     21  C   UNL     1      -0.142  10.360  21.813  0.00  0.00    +0.000 A 
ATOM     22  C   UNL     1      -0.715  11.195  20.887  0.00  0.00    +0.000 A 
ATOM     23  C   UNL     1      -0.419  10.912  19.575  0.00  0.00    +0.000 A 
ATOM     24  C   UNL     1      -0.908  11.788  18.462  0.00  0.00    +0.000 C 
ATOM     25  N   UNL     1       0.366   9.873  19.224  0.00  0.00    +0.000 NA
ATOM     26  C   UNL     1       0.851   9.100  20.198  0.00  0.00    +0.000 A 
ATOM     27  N   UNL     1       1.759   8.079  19.939  0.00  0.00    +0.000 N 
ATOM     28  N   UNL     1       0.623   9.301  21.501  0.00  0.00    +0.000 NA
ATOM     29  H   UNL     1       2.094   7.660  20.803  0.00  0.00    +0.000 HD
BRANCH  21  31
ATOM     30  C   UNL     1      -1.598  11.368  23.326  0.00  0.00    +0.000 C 
ATOM     31  O   UNL     1      -0.369  10.671  23.140  0.00  0.00    +0.000 OA
ENDBRANCH  21  31
ENDBRANCH  19  27
ENDBRANCH   1  19
TORSDOF 5
ENDMDL
MODEL 4
REMARK VINA RESULT:      -7.8      4.120      9.868
REMARK  Name = 
REMARK  8 active torsions:
REMARK  status: ('A' for Active; 'I' for Inactive)
REMARK    1  A    between atoms: C_1  and  O_2
REMARK    2  A    between atoms: O_2  and  C_3
REMARK    3  A    between atoms: C_5  and  C_6
REMARK    4  A    between atoms: N_9  and  C_10
REMARK    5  A    between atoms: C_10  and  N_12
REMARK    6  A    between atoms: C_13  and  C_15
REMARK    7  A    between atoms: C_16  and  C_17
REMARK    8  A    between atoms: C_27  and  C_28
REMARK                            x       y       z     vdW  Elec       q    Type
REMARK                         _______ _______ _______ _____ _____    ______ ____
ROOT
ATOM      1  N   UNL     1      -0.232   9.676  20.122  0.00  0.00    +0.000 N 
ATOM      2  C   UNL     1      -0.339  10.744  19.252  0.00  0.00    +0.000 C 
ATOM      3  O   UNL     1       0.634  11.228  18.674  0.00  0.00    +0.000 OA
ATOM      4  H   UNL     1      -1.082   9.228  20.446  0.00  0.00    +0.000 HD
ENDROOT
BRANCH   2   5
ATOM      5  C   UNL     1      -1.681  11.198  18.977  0.00  0.00    +0.000 A 
ATOM      6  C   UNL     1      -2.491  12.088  19.761  0.00  0.00    +0.000 A 
ATOM      7  N   UNL     1      -3.687  12.243  19.178  0.00  0.00    +0.000 NA
ATOM      8  O   UNL     1      -3.705  11.420  18.075  0.00  0.00    +0.000 OA
ATOM      9  C   UNL     1      -2.508  10.796  17.951  0.00  0.00    +0.000 A 
ATOM     10  C   UNL     1      -2.395   9.834  16.835  0.00  0.00    +0.000 C 
BRANCH   6  11
ATOM     11  C   UNL     1      -2.117  12.819  20.978  0.00  0.00    +0.000 A 
ATOM     12  C   UNL     1      -2.637  12.379  22.213  0.00  0.00    +0.000 A 
ATOM     13  C   UNL     1      -2.366  13.064  23.400  0.00  0.00    +0.000 A 
ATOM     14  C   UNL     1      -1.540  14.181  23.376  0.00  0.00    +0.000 A 
ATOM     15 CL   UNL     1      -1.213  15.029  24.836  0.00  0.00    +0.000 Cl
ATOM     16  C   UNL     1      -0.985  14.618  22.177  0.00  0.00    +0.000 A 
ATOM     17  C   UNL     1      -1.275  13.947  20.981  0.00  0.00    +0.000 A 
ATOM     18 CL   UNL     1      -0.585  14.622  19.543  0.00  0.00    +0.000 Cl
ENDBRANCH   6  11
ENDBRANCH   2   5
BRANCH   1  19
ATOM     19  C   UNL     1       0.930   9.076  20.593  0.00  0.00    +0.000 C 
ATOM     20  S   UNL     1       1.200   9.183  22.239  0.00  0.00    +0.000 S 
BRANCH  19  27
ATOM     21  C   UNL     1       3.590   5.807  18.386  0.00  0.00    +0.000 A 
ATOM     22  C   UNL     1       3.324   4.761  19.234  0.00  0.00    +0.000 A 
ATOM     23  C   UNL     1       2.441   5.036  20.251  0.00  0.00    +0.000 A 
ATOM     24  C   UNL     1       2.120   4.015  21.299  0.00  0.00    +0.000 C 
ATOM     25  N   UNL     1       1.863   6.247  20.392  0.00  0.00    +0.000 NA
ATOM     26  C   UNL     1       2.164   7.190  19.496  0.00  0.00    +0.000 A 
ATOM     27  N   UNL     1       1.707   8.497  19.629  0.00  0.00    +0.000 N 
ATOM     28  N   UNL     1       3.015   7.017  18.479  0.00  0.00    +0.000 NA
ATOM     29  H   UNL     1       2.110   9.098  18.915  0.00  0.00    +0.000 HD
BRANCH  21  31
ATOM     30  C   UNL     1       4.494   4.224  16.936  0.00  0.00    +0.000 C 
ATOM     31  O   UNL     1       4.529   5.570  17.401  0.00  0.00    +0.000 OA
ENDBRANCH  21  31
ENDBRANCH  19  27
ENDBRANCH   1  19
TORSDOF 5
ENDMDL
MODEL 5
REMARK VINA RESULT:      -7.7      1.330      1.764
REMARK  Name = 
REMARK  8 active torsions:
REMARK  status: ('A' for Active; 'I' for Inactive)
REMARK    1  A    between atoms: C_1  and  O_2
REMARK    2  A    between atoms: O_2  and  C_3
REMARK    3  A    between atoms: C_5  and  C_6
REMARK    4  A    between atoms: N_9  and  C_10
REMARK    5  A    between atoms: C_10  and  N_12
REMARK    6  A    between atoms: C_13  and  C_15
REMARK    7  A    between atoms: C_16  and  C_17
REMARK    8  A    between atoms: C_27  and  C_28
REMARK                            x       y       z     vdW  Elec       q    Type
REMARK                         _______ _______ _______ _____ _____    ______ ____
ROOT
ATOM      1  N   UNL     1       2.809   6.495  19.612  0.00  0.00    +0.000 N 
ATOM      2  C   UNL     1       2.439   5.244  19.158  0.00  0.00    +0.000 C 
ATOM      3  O   UNL     1       1.501   5.072  18.380  0.00  0.00    +0.000 OA
ATOM      4  H   UNL     1       3.678   6.587  20.126  0.00  0.00    +0.000 HD
ENDROOT
BRANCH   2   5
ATOM      5  C   UNL     1       3.289   4.151  19.568  0.00  0.00    +0.000 A 
ATOM      6  C   UNL     1       4.700   3.999  19.347  0.00  0.00    +0.000 A 
ATOM      7  N   UNL     1       5.115   2.834  19.863  0.00  0.00    +0.000 NA
ATOM      8  O   UNL     1       3.999   2.190  20.347  0.00  0.00    +0.000 OA
ATOM      9  C   UNL     1       2.907   2.975  20.174  0.00  0.00    +0.000 A 
ATOM     10  C   UNL     1       1.619   2.390  20.602  0.00  0.00    +0.000 C 
BRANCH   6  11
ATOM     11  C   UNL     1       5.630   4.955  18.734  0.00  0.00    +0.000 A 
ATOM     12  C   UNL     1       6.661   5.495  19.530  0.00  0.00    +0.000 A 
ATOM     13  C   UNL     1       7.544   6.452  19.024  0.00  0.00    +0.000 A 
ATOM     14  C   UNL     1       7.431   6.859  17.700  0.00  0.00    +0.000 A 
ATOM     15 CL   UNL     1       8.512   8.043  17.079  0.00  0.00    +0.000 Cl
ATOM     16  C   UNL     1       6.445   6.318  16.881  0.00  0.00    +0.000 A 
ATOM     17  C   UNL     1       5.542   5.376  17.393  0.00  0.00    +0.000 A 
ATOM     18 CL   UNL     1       4.315   4.825  16.302  0.00  0.00    +0.000 Cl
ENDBRANCH   6  11
ENDBRANCH   2   5
BRANCH   1  19
ATOM     19  C   UNL     1       2.149   7.702  19.411  0.00  0.00    +0.000 C 
ATOM     20  S   UNL     1       2.321   8.394  17.900  0.00  0.00    +0.000 S 
BRANCH  19  27
ATOM     21  C   UNL     1      -0.553  10.567  22.081  0.00  0.00    +0.000 A 
ATOM     22  C   UNL     1      -0.962  11.409  21.078  0.00  0.00    +0.000 A 
ATOM     23  C   UNL     1      -0.514  11.089  19.819  0.00  0.00    +0.000 A 
ATOM     24  C   UNL     1      -0.813  11.965  18.641  0.00  0.00    +0.000 C 
ATOM     25  N   UNL     1       0.260  10.009  19.586  0.00  0.00    +0.000 NA
ATOM     26  C   UNL     1       0.579   9.233  20.625  0.00  0.00    +0.000 A 
ATOM     27  N   UNL     1       1.463   8.168  20.498  0.00  0.00    +0.000 N 
ATOM     28  N   UNL     1       0.195   9.469  21.885  0.00  0.00    +0.000 NA
ATOM     29  H   UNL     1       1.664   7.750  21.404  0.00  0.00    +0.000 HD
BRANCH  21  31
ATOM     30  C   UNL     1      -2.089  11.748  23.374  0.00  0.00    +0.000 C 
ATOM     31  O   UNL     1      -0.934  10.914  23.363  0.00  0.00    +0.000 OA
ENDBRANCH  21  31
ENDBRANCH  19  27
ENDBRANCH   1  19
TORSDOF 5
ENDMDL
MODEL 6
REMARK VINA RESULT:      -7.5      5.843     10.146
REMARK  Name = 
REMARK  8 active torsions:
REMARK  status: ('A' for Active; 'I' for Inactive)
REMARK    1  A    between atoms: C_1  and  O_2
REMARK    2  A    between atoms: O_2  and  C_3
REMARK    3  A    between atoms: C_5  and  C_6
REMARK    4  A    between atoms: N_9  and  C_10
REMARK    5  A    between atoms: C_10  and  N_12
REMARK    6  A    between atoms: C_13  and  C_15
REMARK    7  A    between atoms: C_16  and  C_17
REMARK    8  A    between atoms: C_27  and  C_28
REMARK                            x       y       z     vdW  Elec       q    Type
REMARK                         _______ _______ _______ _____ _____    ______ ____
ROOT
ATOM      1  N   UNL     1      -3.841  12.394  22.499  0.00  0.00    +0.000 N 
ATOM      2  C   UNL     1      -4.415  12.768  21.299  0.00  0.00    +0.000 C 
ATOM      3  O   UNL     1      -3.837  13.486  20.484  0.00  0.00    +0.000 OA
ATOM      4  H   UNL     1      -4.302  11.683  23.056  0.00  0.00    +0.000 HD
ENDROOT
BRANCH   2   5
ATOM      5  C   UNL     1      -5.700  12.179  21.007  0.00  0.00    +0.000 A 
ATOM      6  C   UNL     1      -6.126  11.548  19.789  0.00  0.00    +0.000 A 
ATOM      7  N   UNL     1      -7.399  11.149  19.907  0.00  0.00    +0.000 NA
ATOM      8  O   UNL     1      -7.837  11.569  21.142  0.00  0.00    +0.000 OA
ATOM      9  C   UNL     1      -6.825  12.182  21.803  0.00  0.00    +0.000 A 
ATOM     10  C   UNL     1      -7.162  12.735  23.130  0.00  0.00    +0.000 C 
BRANCH   6  11
ATOM     11  C   UNL     1      -5.331  11.272  18.585  0.00  0.00    +0.000 A 
ATOM     12  C   UNL     1      -4.387  10.226  18.628  0.00  0.00    +0.000 A 
ATOM     13  C   UNL     1      -3.560   9.949  17.537  0.00  0.00    +0.000 A 
ATOM     14  C   UNL     1      -3.689  10.693  16.370  0.00  0.00    +0.000 A 
ATOM     15 CL   UNL     1      -2.665  10.358  15.030  0.00  0.00    +0.000 Cl
ATOM     16  C   UNL     1      -4.636  11.709  16.287  0.00  0.00    +0.000 A 
ATOM     17  C   UNL     1      -5.450  12.006  17.389  0.00  0.00    +0.000 A 
ATOM     18 CL   UNL     1      -6.542  13.335  17.193  0.00  0.00    +0.000 Cl
ENDBRANCH   6  11
ENDBRANCH   2   5
BRANCH   1  19
ATOM     19  C   UNL     1      -2.645  12.843  23.047  0.00  0.00    +0.000 C 
ATOM     20  S   UNL     1      -2.608  14.442  23.529  0.00  0.00    +0.000 S 
BRANCH  19  27
ATOM     21  C   UNL     1       0.651   9.769  21.522  0.00  0.00    +0.000 A 
ATOM     22  C   UNL     1       0.633  10.132  20.199  0.00  0.00    +0.000 A 
ATOM     23  C   UNL     1      -0.209  11.173  19.884  0.00  0.00    +0.000 A 
ATOM     24  C   UNL     1      -0.392  11.623  18.467  0.00  0.00    +0.000 C 
ATOM     25  N   UNL     1      -0.951  11.803  20.818  0.00  0.00    +0.000 NA
ATOM     26  C   UNL     1      -0.840  11.394  22.084  0.00  0.00    +0.000 A 
ATOM     27  N   UNL     1      -1.650  11.906  23.092  0.00  0.00    +0.000 N 
ATOM     28  N   UNL     1      -0.053  10.388  22.483  0.00  0.00    +0.000 NA
ATOM     29  H   UNL     1      -1.496  11.415  23.969  0.00  0.00    +0.000 HD
BRANCH  21  31
ATOM     30  C   UNL     1       1.456   7.703  20.806  0.00  0.00    +0.000 C 
ATOM     31  O   UNL     1       1.436   8.679  21.845  0.00  0.00    +0.000 OA
ENDBRANCH  21  31
ENDBRANCH  19  27
ENDBRANCH   1  19
TORSDOF 5
ENDMDL
MODEL 7
REMARK VINA RESULT:      -7.4      7.568     10.859
REMARK  Name = 
REMARK  8 active torsions:
REMARK  status: ('A' for Active; 'I' for Inactive)
REMARK    1  A    between atoms: C_1  and  O_2
REMARK    2  A    between atoms: O_2  and  C_3
REMARK    3  A    between atoms: C_5  and  C_6
REMARK    4  A    between atoms: N_9  and  C_10
REMARK    5  A    between atoms: C_10  and  N_12
REMARK    6  A    between atoms: C_13  and  C_15
REMARK    7  A    between atoms: C_16  and  C_17
REMARK    8  A    between atoms: C_27  and  C_28
REMARK                            x       y       z     vdW  Elec       q    Type
REMARK                         _______ _______ _______ _____ _____    ______ ____
ROOT
ATOM      1  N   UNL     1      -3.754  11.322  18.279  0.00  0.00    +0.000 N 
ATOM      2  C   UNL     1      -5.043  11.818  18.277  0.00  0.00    +0.000 C 
ATOM      3  O   UNL     1      -5.582  12.261  17.262  0.00  0.00    +0.000 OA
ATOM      4  H   UNL     1      -3.424  10.835  19.104  0.00  0.00    +0.000 HD
ENDROOT
BRANCH   2   5
ATOM      5  C   UNL     1      -5.767  11.691  19.519  0.00  0.00    +0.000 A 
ATOM      6  C   UNL     1      -5.689  12.538  20.677  0.00  0.00    +0.000 A 
ATOM      7  N   UNL     1      -6.502  12.071  21.634  0.00  0.00    +0.000 NA
ATOM      8  O   UNL     1      -7.051  10.902  21.159  0.00  0.00    +0.000 OA
ATOM      9  C   UNL     1      -6.615  10.673  19.896  0.00  0.00    +0.000 A 
ATOM     10  C   UNL     1      -7.083   9.419  19.270  0.00  0.00    +0.000 C 
BRANCH   6  11
ATOM     11  C   UNL     1      -4.926  13.782  20.841  0.00  0.00    +0.000 A 
ATOM     12  C   UNL     1      -5.510  14.990  20.411  0.00  0.00    +0.000 A 
ATOM     13  C   UNL     1      -4.815  16.200  20.486  0.00  0.00    +0.000 A 
ATOM     14  C   UNL     1      -3.535  16.225  21.026  0.00  0.00    +0.000 A 
ATOM     15 CL   UNL     1      -2.677  17.713  21.110  0.00  0.00    +0.000 Cl
ATOM     16  C   UNL     1      -2.947  15.053  21.490  0.00  0.00    +0.000 A 
ATOM     17  C   UNL     1      -3.632  13.834  21.393  0.00  0.00    +0.000 A 
ATOM     18 CL   UNL     1      -2.773  12.433  21.938  0.00  0.00    +0.000 Cl
ENDBRANCH   6  11
ENDBRANCH   2   5
BRANCH   1  19
ATOM     19  C   UNL     1      -2.828  11.358  17.243  0.00  0.00    +0.000 C 
ATOM     20  S   UNL     1      -3.152  10.378  15.929  0.00  0.00    +0.000 S 
BRANCH  19  27
ATOM     21  C   UNL     1       0.967  13.259  19.394  0.00  0.00    +0.000 A 
ATOM     22  C   UNL     1       1.115  12.303  20.368  0.00  0.00    +0.000 A 
ATOM     23  C   UNL     1       0.227  11.255  20.306  0.00  0.00    +0.000 A 
ATOM     24  C   UNL     1       0.217  10.182  21.352  0.00  0.00    +0.000 C 
ATOM     25  N   UNL     1      -0.712  11.166  19.342  0.00  0.00    +0.000 NA
ATOM     26  C   UNL     1      -0.755  12.132  18.421  0.00  0.00    +0.000 A 
ATOM     27  N   UNL     1      -1.759  12.182  17.460  0.00  0.00    +0.000 N 
ATOM     28  N   UNL     1       0.062  13.191  18.404  0.00  0.00    +0.000 NA
ATOM     29  H   UNL     1      -1.691  13.032  16.906  0.00  0.00    +0.000 HD
BRANCH  21  31
ATOM     30  C   UNL     1       1.260  15.499  18.828  0.00  0.00    +0.000 C 
ATOM     31  O   UNL     1       1.802  14.355  19.483  0.00  0.00    +0.000 OA
ENDBRANCH  21  31
ENDBRANCH  19  27
ENDBRANCH   1  19
TORSDOF 5
ENDMDL
MODEL 8
REMARK VINA RESULT:      -7.4      4.150      9.945
REMARK  Name = 
REMARK  8 active torsions:
REMARK  status: ('A' for Active; 'I' for Inactive)
REMARK    1  A    between atoms: C_1  and  O_2
REMARK    2  A    between atoms: O_2  and  C_3
REMARK    3  A    between atoms: C_5  and  C_6
REMARK    4  A    between atoms: N_9  and  C_10
REMARK    5  A    between atoms: C_10  and  N_12
REMARK    6  A    between atoms: C_13  and  C_15
REMARK    7  A    between atoms: C_16  and  C_17
REMARK    8  A    between atoms: C_27  and  C_28
REMARK                            x       y       z     vdW  Elec       q    Type
REMARK                         _______ _______ _______ _____ _____    ______ ____
ROOT
ATOM      1  N   UNL     1      -0.240   9.817  20.244  0.00  0.00    +0.000 N 
ATOM      2  C   UNL     1      -0.367  11.016  19.569  0.00  0.00    +0.000 C 
ATOM      3  O   UNL     1       0.599  11.618  19.099  0.00  0.00    +0.000 OA
ATOM      4  H   UNL     1      -1.080   9.298  20.472  0.00  0.00    +0.000 HD
ENDROOT
BRANCH   2   5
ATOM      5  C   UNL     1      -1.718  11.476  19.354  0.00  0.00    +0.000 A 
ATOM      6  C   UNL     1      -2.420  12.515  20.055  0.00  0.00    +0.000 A 
ATOM      7  N   UNL     1      -3.665  12.624  19.573  0.00  0.00    +0.000 NA
ATOM      8  O   UNL     1      -3.817  11.635  18.629  0.00  0.00    +0.000 OA
ATOM      9  C   UNL     1      -2.656  10.948  18.494  0.00  0.00    +0.000 A 
ATOM     10  C   UNL     1      -2.683   9.815  17.546  0.00  0.00    +0.000 C 
BRANCH   6  11
ATOM     11  C   UNL     1      -1.904  13.416  21.093  0.00  0.00    +0.000 A 
ATOM     12  C   UNL     1      -1.654  14.760  20.753  0.00  0.00    +0.000 A 
ATOM     13  C   UNL     1      -1.109  15.655  21.678  0.00  0.00    +0.000 A 
ATOM     14  C   UNL     1      -0.839  15.226  22.971  0.00  0.00    +0.000 A 
ATOM     15 CL   UNL     1      -0.161  16.325  24.107  0.00  0.00    +0.000 Cl
ATOM     16  C   UNL     1      -1.107  13.914  23.346  0.00  0.00    +0.000 A 
ATOM     17  C   UNL     1      -1.631  13.007  22.413  0.00  0.00    +0.000 A 
ATOM     18 CL   UNL     1      -1.859  11.385  22.973  0.00  0.00    +0.000 Cl
ENDBRANCH   6  11
ENDBRANCH   2   5
BRANCH   1  19
ATOM     19  C   UNL     1       0.933   9.175  20.624  0.00  0.00    +0.000 C 
ATOM     20  S   UNL     1       1.284   9.186  22.258  0.00  0.00    +0.000 S 
BRANCH  19  27
ATOM     21  C   UNL     1       3.497   6.026  18.145  0.00  0.00    +0.000 A 
ATOM     22  C   UNL     1       3.312   4.952  18.979  0.00  0.00    +0.000 A 
ATOM     23  C   UNL     1       2.496   5.180  20.062  0.00  0.00    +0.000 A 
ATOM     24  C   UNL     1       2.270   4.123  21.100  0.00  0.00    +0.000 C 
ATOM     25  N   UNL     1       1.906   6.373  20.278  0.00  0.00    +0.000 NA
ATOM     26  C   UNL     1       2.125   7.347  19.391  0.00  0.00    +0.000 A 
ATOM     27  N   UNL     1       1.653   8.639  19.592  0.00  0.00    +0.000 N 
ATOM     28  N   UNL     1       2.907   7.220  18.313  0.00  0.00    +0.000 NA
ATOM     29  H   UNL     1       1.993   9.269  18.869  0.00  0.00    +0.000 HD
BRANCH  21  31
ATOM     30  C   UNL     1       4.660   4.459  16.873  0.00  0.00    +0.000 C 
ATOM     31  O   UNL     1       4.371   5.837  17.092  0.00  0.00    +0.000 OA
ENDBRANCH  21  31
ENDBRANCH  19  27
ENDBRANCH   1  19
TORSDOF 5
ENDMDL
MODEL 9
REMARK VINA RESULT:      -7.3      7.821     11.131
REMARK  Name = 
REMARK  8 active torsions:
REMARK  status: ('A' for Active; 'I' for Inactive)
REMARK    1  A    between atoms: C_1  and  O_2
REMARK    2  A    between atoms: O_2  and  C_3
REMARK    3  A    between atoms: C_5  and  C_6
REMARK    4  A    between atoms: N_9  and  C_10
REMARK    5  A    between atoms: C_10  and  N_12
REMARK    6  A    between atoms: C_13  and  C_15
REMARK    7  A    between atoms: C_16  and  C_17
REMARK    8  A    between atoms: C_27  and  C_28
REMARK                            x       y       z     vdW  Elec       q    Type
REMARK                         _______ _______ _______ _____ _____    ______ ____
ROOT
ATOM      1  N   UNL     1      -3.848  11.349  18.218  0.00  0.00    +0.000 N 
ATOM      2  C   UNL     1      -5.081  11.966  18.309  0.00  0.00    +0.000 C 
ATOM      3  O   UNL     1      -5.584  12.583  17.371  0.00  0.00    +0.000 OA
ATOM      4  H   UNL     1      -3.558  10.733  18.969  0.00  0.00    +0.000 HD
ENDROOT
BRANCH   2   5
ATOM      5  C   UNL     1      -5.798  11.758  19.545  0.00  0.00    +0.000 A 
ATOM      6  C   UNL     1      -5.730  12.539  20.748  0.00  0.00    +0.000 A 
ATOM      7  N   UNL     1      -6.532  12.006  21.679  0.00  0.00    +0.000 NA
ATOM      8  O   UNL     1      -7.062  10.856  21.141  0.00  0.00    +0.000 OA
ATOM      9  C   UNL     1      -6.628  10.706  19.865  0.00  0.00    +0.000 A 
ATOM     10  C   UNL     1      -7.076   9.481  19.171  0.00  0.00    +0.000 C 
BRANCH   6  11
ATOM     11  C   UNL     1      -4.988  13.785  20.979  0.00  0.00    +0.000 A 
ATOM     12  C   UNL     1      -3.854  13.747  21.816  0.00  0.00    +0.000 A 
ATOM     13  C   UNL     1      -3.138  14.906  22.122  0.00  0.00    +0.000 A 
ATOM     14  C   UNL     1      -3.524  16.120  21.567  0.00  0.00    +0.000 A 
ATOM     15 CL   UNL     1      -2.648  17.549  21.950  0.00  0.00    +0.000 Cl
ATOM     16  C   UNL     1      -4.619  16.182  20.710  0.00  0.00    +0.000 A 
ATOM     17  C   UNL     1      -5.355  15.024  20.421  0.00  0.00    +0.000 A 
ATOM     18 CL   UNL     1      -6.737  15.235  19.399  0.00  0.00    +0.000 Cl
ENDBRANCH   6  11
ENDBRANCH   2   5
BRANCH   1  19
ATOM     19  C   UNL     1      -2.936  11.422  17.172  0.00  0.00    +0.000 C 
ATOM     20  S   UNL     1      -3.379  10.661  15.752  0.00  0.00    +0.000 S 
BRANCH  19  27
ATOM     21  C   UNL     1       1.002  12.700  19.517  0.00  0.00    +0.000 A 
ATOM     22  C   UNL     1       1.010  11.670  20.423  0.00  0.00    +0.000 A 
ATOM     23  C   UNL     1       0.006  10.743  20.272  0.00  0.00    +0.000 A 
ATOM     24  C   UNL     1      -0.158   9.610  21.239  0.00  0.00    +0.000 C 
ATOM     25  N   UNL     1      -0.912  10.833  19.288  0.00  0.00    +0.000 NA
ATOM     26  C   UNL     1      -0.816  11.858  18.437  0.00  0.00    +0.000 A 
ATOM     27  N   UNL     1      -1.782  12.095  17.465  0.00  0.00    +0.000 N 
ATOM     28  N   UNL     1       0.121  12.810  18.509  0.00  0.00    +0.000 NA
ATOM     29  H   UNL     1      -1.599  12.966  16.974  0.00  0.00    +0.000 HD
BRANCH  21  31
ATOM     30  C   UNL     1       2.066  14.542  18.568  0.00  0.00    +0.000 C 
ATOM     31  O   UNL     1       1.960  13.679  19.697  0.00  0.00    +0.000 OA
ENDBRANCH  21  31
ENDBRANCH  19  27
ENDBRANCH   1  19
TORSDOF 5
ENDMDL
