MODEL 1
REMARK VINA RESULT:      -9.2      0.000      0.000
REMARK  Name = 
REMARK  4 active torsions:
REMARK  status: ('A' for Active; 'I' for Inactive)
REMARK    1  A    between atoms: C_2  and  C_15
REMARK    2  A    between atoms: N_3  and  N_4
REMARK    3  A    between atoms: C_5  and  C_6
REMARK    4  A    between atoms: C_17  and  C_18
REMARK                            x       y       z     vdW  Elec       q    Type
REMARK                         _______ _______ _______ _____ _____    ______ ____
ROOT
ATOM      1  O   UNL     1       8.348   6.741  18.864  0.00  0.00    +0.000 OA
ATOM      2  C   UNL     1       7.563   7.162  18.017  0.00  0.00    +0.000 C 
ATOM      3  N   UNL     1       7.700   8.414  17.408  0.00  0.00    +0.000 N 
ATOM      4  H   UNL     1       7.019   8.724  16.722  0.00  0.00    +0.000 HD
ENDROOT
BRANCH   2   5
ATOM      5  C   UNL     1       6.410   6.407  17.571  0.00  0.00    +0.000 A 
ATOM      6  N   UNL     1       5.571   5.695  18.299  0.00  0.00    +0.000 NA
ATOM      7  C   UNL     1       4.712   5.182  17.339  0.00  0.00    +0.000 A 
ATOM      8  N   UNL     1       5.006   5.561  16.086  0.00  0.00    +0.000 NA
ATOM      9  O   UNL     1       6.125   6.375  16.236  0.00  0.00    +0.000 OA
BRANCH   7  10
ATOM     10  C   UNL     1       3.599   4.297  17.677  0.00  0.00    +0.000 A 
ATOM     11  C   UNL     1       3.817   2.915  17.801  0.00  0.00    +0.000 A 
ATOM     12  C   UNL     1       2.762   2.053  18.112  0.00  0.00    +0.000 A 
ATOM     13  C   UNL     1       1.486   2.568  18.300  0.00  0.00    +0.000 A 
ATOM     14  F   UNL     1       0.477   1.739  18.593  0.00  0.00    +0.000 F 
ATOM     15  C   UNL     1       1.243   3.931  18.185  0.00  0.00    +0.000 A 
ATOM     16  C   UNL     1       2.299   4.796  17.876  0.00  0.00    +0.000 A 
ENDBRANCH   7  10
ENDBRANCH   2   5
BRANCH   3  17
ATOM     17  N   UNL     1       8.714   9.234  17.815  0.00  0.00    +0.000 NA
ATOM     18  C   UNL     1       8.428  10.469  18.081  0.00  0.00    +0.000 C 
BRANCH  18  19
ATOM     19  C   UNL     1       9.483  11.397  18.555  0.00  0.00    +0.000 A 
ATOM     20  C   UNL     1       9.998  11.272  19.864  0.00  0.00    +0.000 A 
ATOM     21  C   UNL     1      10.976  12.153  20.336  0.00  0.00    +0.000 A 
ATOM     22  C   UNL     1      11.407  13.144  19.483  0.00  0.00    +0.000 A 
ATOM     23  C   UNL     1      10.908  13.267  18.205  0.00  0.00    +0.000 A 
ATOM     24  C   UNL     1       9.949  12.408  17.704  0.00  0.00    +0.000 A 
ATOM     25  O   UNL     1      11.466  14.315  17.536  0.00  0.00    +0.000 OA
ATOM     26  C   UNL     1      12.323  14.869  18.558  0.00  0.00    +0.000 C 
ATOM     27  O   UNL     1      12.333  14.095  19.775  0.00  0.00    +0.000 OA
ENDBRANCH  18  19
ENDBRANCH   3  17
TORSDOF 4
ENDMDL
MODEL 2
REMARK VINA RESULT:      -9.1      0.376      1.009
REMARK  Name = 
REMARK  4 active torsions:
REMARK  status: ('A' for Active; 'I' for Inactive)
REMARK    1  A    between atoms: C_2  and  C_15
REMARK    2  A    between atoms: N_3  and  N_4
REMARK    3  A    between atoms: C_5  and  C_6
REMARK    4  A    between atoms: C_17  and  C_18
REMARK                            x       y       z     vdW  Elec       q    Type
REMARK                         _______ _______ _______ _____ _____    ______ ____
ROOT
ATOM      1  O   UNL     1       8.350   6.624  18.875  0.00  0.00    +0.000 OA
ATOM      2  C   UNL     1       7.534   7.067  18.068  0.00  0.00    +0.000 C 
ATOM      3  N   UNL     1       7.618   8.357  17.533  0.00  0.00    +0.000 N 
ATOM      4  H   UNL     1       6.913   8.682  16.878  0.00  0.00    +0.000 HD
ENDROOT
BRANCH   2   5
ATOM      5  C   UNL     1       6.399   6.300  17.599  0.00  0.00    +0.000 A 
ATOM      6  N   UNL     1       5.507   5.644  18.316  0.00  0.00    +0.000 NA
ATOM      7  C   UNL     1       4.699   5.084  17.338  0.00  0.00    +0.000 A 
ATOM      8  N   UNL     1       5.073   5.383  16.084  0.00  0.00    +0.000 NA
ATOM      9  O   UNL     1       6.193   6.191  16.254  0.00  0.00    +0.000 OA
BRANCH   7  10
ATOM     10  C   UNL     1       3.555   4.234  17.660  0.00  0.00    +0.000 A 
ATOM     11  C   UNL     1       2.351   4.816  18.090  0.00  0.00    +0.000 A 
ATOM     12  C   UNL     1       1.251   4.017  18.414  0.00  0.00    +0.000 A 
ATOM     13  C   UNL     1       1.349   2.636  18.310  0.00  0.00    +0.000 A 
ATOM     14  F   UNL     1       0.295   1.874  18.626  0.00  0.00    +0.000 F 
ATOM     15  C   UNL     1       2.527   2.035  17.885  0.00  0.00    +0.000 A 
ATOM     16  C   UNL     1       3.630   2.832  17.559  0.00  0.00    +0.000 A 
ENDBRANCH   7  10
ENDBRANCH   2   5
BRANCH   3  17
ATOM     17  N   UNL     1       8.612   9.186  17.968  0.00  0.00    +0.000 NA
ATOM     18  C   UNL     1       8.431  10.464  17.856  0.00  0.00    +0.000 C 
BRANCH  18  19
ATOM     19  C   UNL     1       9.464  11.412  18.341  0.00  0.00    +0.000 A 
ATOM     20  C   UNL     1      10.355  11.023  19.365  0.00  0.00    +0.000 A 
ATOM     21  C   UNL     1      11.319  11.912  19.851  0.00  0.00    +0.000 A 
ATOM     22  C   UNL     1      11.358  13.173  19.300  0.00  0.00    +0.000 A 
ATOM     23  C   UNL     1      10.492  13.554  18.299  0.00  0.00    +0.000 A 
ATOM     24  C   UNL     1       9.534  12.698  17.790  0.00  0.00    +0.000 A 
ATOM     25  O   UNL     1      10.699  14.842  17.906  0.00  0.00    +0.000 OA
ATOM     26  C   UNL     1      11.751  15.241  18.812  0.00  0.00    +0.000 C 
ATOM     27  O   UNL     1      12.212  14.169  19.658  0.00  0.00    +0.000 OA
ENDBRANCH  18  19
ENDBRANCH   3  17
TORSDOF 4
ENDMDL
MODEL 3
REMARK VINA RESULT:      -8.6      1.190      1.772
REMARK  Name = 
REMARK  4 active torsions:
REMARK  status: ('A' for Active; 'I' for Inactive)
REMARK    1  A    between atoms: C_2  and  C_15
REMARK    2  A    between atoms: N_3  and  N_4
REMARK    3  A    between atoms: C_5  and  C_6
REMARK    4  A    between atoms: C_17  and  C_18
REMARK                            x       y       z     vdW  Elec       q    Type
REMARK                         _______ _______ _______ _____ _____    ______ ____
ROOT
ATOM      1  O   UNL     1       7.624   7.694  16.688  0.00  0.00    +0.000 OA
ATOM      2  C   UNL     1       7.565   7.298  17.850  0.00  0.00    +0.000 C 
ATOM      3  N   UNL     1       8.282   7.892  18.894  0.00  0.00    +0.000 N 
ATOM      4  H   UNL     1       8.209   7.521  19.837  0.00  0.00    +0.000 HD
ENDROOT
BRANCH   2   5
ATOM      5  C   UNL     1       6.752   6.168  18.253  0.00  0.00    +0.000 A 
ATOM      6  N   UNL     1       5.507   5.898  17.911  0.00  0.00    +0.000 NA
ATOM      7  C   UNL     1       5.255   4.733  18.619  0.00  0.00    +0.000 A 
ATOM      8  N   UNL     1       6.294   4.307  19.355  0.00  0.00    +0.000 NA
ATOM      9  O   UNL     1       7.286   5.251  19.110  0.00  0.00    +0.000 OA
BRANCH   7  10
ATOM     10  C   UNL     1       3.964   4.049  18.569  0.00  0.00    +0.000 A 
ATOM     11  C   UNL     1       2.833   4.727  18.087  0.00  0.00    +0.000 A 
ATOM     12  C   UNL     1       1.589   4.093  18.043  0.00  0.00    +0.000 A 
ATOM     13  C   UNL     1       1.470   2.780  18.480  0.00  0.00    +0.000 A 
ATOM     14  F   UNL     1       0.275   2.177  18.441  0.00  0.00    +0.000 F 
ATOM     15  C   UNL     1       2.574   2.086  18.960  0.00  0.00    +0.000 A 
ATOM     16  C   UNL     1       3.821   2.719  19.003  0.00  0.00    +0.000 A 
ENDBRANCH   7  10
ENDBRANCH   2   5
BRANCH   3  17
ATOM     17  N   UNL     1       9.134   8.919  18.605  0.00  0.00    +0.000 NA
ATOM     18  C   UNL     1       8.805  10.110  18.994  0.00  0.00    +0.000 C 
BRANCH  18  19
ATOM     19  C   UNL     1       9.707  11.258  18.733  0.00  0.00    +0.000 A 
ATOM     20  C   UNL     1      11.092  11.140  18.985  0.00  0.00    +0.000 A 
ATOM     21  C   UNL     1      11.953  12.221  18.768  0.00  0.00    +0.000 A 
ATOM     22  C   UNL     1      11.400  13.395  18.310  0.00  0.00    +0.000 A 
ATOM     23  C   UNL     1      10.051  13.512  18.062  0.00  0.00    +0.000 A 
ATOM     24  C   UNL     1       9.173  12.463  18.257  0.00  0.00    +0.000 A 
ATOM     25  O   UNL     1       9.717  14.759  17.624  0.00  0.00    +0.000 OA
ATOM     26  C   UNL     1      10.998  15.424  17.683  0.00  0.00    +0.000 C 
ATOM     27  O   UNL     1      12.078  14.547  18.062  0.00  0.00    +0.000 OA
ENDBRANCH  18  19
ENDBRANCH   3  17
TORSDOF 4
ENDMDL
MODEL 4
REMARK VINA RESULT:      -8.4      1.152      1.907
REMARK  Name = 
REMARK  4 active torsions:
REMARK  status: ('A' for Active; 'I' for Inactive)
REMARK    1  A    between atoms: C_2  and  C_15
REMARK    2  A    between atoms: N_3  and  N_4
REMARK    3  A    between atoms: C_5  and  C_6
REMARK    4  A    between atoms: C_17  and  C_18
REMARK                            x       y       z     vdW  Elec       q    Type
REMARK                         _______ _______ _______ _____ _____    ______ ____
ROOT
ATOM      1  O   UNL     1       7.001   8.207  16.749  0.00  0.00    +0.000 OA
ATOM      2  C   UNL     1       7.261   7.554  17.758  0.00  0.00    +0.000 C 
ATOM      3  N   UNL     1       8.253   7.926  18.671  0.00  0.00    +0.000 N 
ATOM      4  H   UNL     1       8.438   7.347  19.484  0.00  0.00    +0.000 HD
ENDROOT
BRANCH   2   5
ATOM      5  C   UNL     1       6.571   6.326  18.096  0.00  0.00    +0.000 A 
ATOM      6  N   UNL     1       5.299   6.029  17.908  0.00  0.00    +0.000 NA
ATOM      7  C   UNL     1       5.212   4.756  18.454  0.00  0.00    +0.000 A 
ATOM      8  N   UNL     1       6.371   4.295  18.948  0.00  0.00    +0.000 NA
ATOM      9  O   UNL     1       7.272   5.328  18.708  0.00  0.00    +0.000 OA
BRANCH   7  10
ATOM     10  C   UNL     1       3.959   4.005  18.492  0.00  0.00    +0.000 A 
ATOM     11  C   UNL     1       2.822   4.509  17.840  0.00  0.00    +0.000 A 
ATOM     12  C   UNL     1       1.613   3.809  17.877  0.00  0.00    +0.000 A 
ATOM     13  C   UNL     1       1.535   2.605  18.565  0.00  0.00    +0.000 A 
ATOM     14  F   UNL     1       0.374   1.940  18.602  0.00  0.00    +0.000 F 
ATOM     15  C   UNL     1       2.646   2.084  19.216  0.00  0.00    +0.000 A 
ATOM     16  C   UNL     1       3.858   2.782  19.179  0.00  0.00    +0.000 A 
ENDBRANCH   7  10
ENDBRANCH   2   5
BRANCH   3  17
ATOM     17  N   UNL     1       9.011   9.030  18.404  0.00  0.00    +0.000 NA
ATOM     18  C   UNL     1       9.072   9.958  19.305  0.00  0.00    +0.000 C 
BRANCH  18  19
ATOM     19  C   UNL     1       9.904  11.166  19.081  0.00  0.00    +0.000 A 
ATOM     20  C   UNL     1      10.651  11.298  17.889  0.00  0.00    +0.000 A 
ATOM     21  C   UNL     1      11.460  12.418  17.672  0.00  0.00    +0.000 A 
ATOM     22  C   UNL     1      11.505  13.374  18.662  0.00  0.00    +0.000 A 
ATOM     23  C   UNL     1      10.776  13.248  19.824  0.00  0.00    +0.000 A 
ATOM     24  C   UNL     1       9.960  12.160  20.066  0.00  0.00    +0.000 A 
ATOM     25  O   UNL     1      10.972  14.300  20.667  0.00  0.00    +0.000 OA
ATOM     26  C   UNL     1      11.949  15.067  19.929  0.00  0.00    +0.000 C 
ATOM     27  O   UNL     1      12.246  14.513  18.631  0.00  0.00    +0.000 OA
ENDBRANCH  18  19
ENDBRANCH   3  17
TORSDOF 4
ENDMDL
MODEL 5
REMARK VINA RESULT:      -8.2      1.820      2.052
REMARK  Name = 
REMARK  4 active torsions:
REMARK  status: ('A' for Active; 'I' for Inactive)
REMARK    1  A    between atoms: C_2  and  C_15
REMARK    2  A    between atoms: N_3  and  N_4
REMARK    3  A    between atoms: C_5  and  C_6
REMARK    4  A    between atoms: C_17  and  C_18
REMARK                            x       y       z     vdW  Elec       q    Type
REMARK                         _______ _______ _______ _____ _____    ______ ____
ROOT
ATOM      1  O   UNL     1       7.913   7.239  16.340  0.00  0.00    +0.000 OA
ATOM      2  C   UNL     1       7.593   7.193  17.527  0.00  0.00    +0.000 C 
ATOM      3  N   UNL     1       7.955   8.178  18.451  0.00  0.00    +0.000 N 
ATOM      4  H   UNL     1       7.677   8.090  19.424  0.00  0.00    +0.000 HD
ENDROOT
BRANCH   2   5
ATOM      5  C   UNL     1       6.818   6.106  18.088  0.00  0.00    +0.000 A 
ATOM      6  N   UNL     1       5.556   6.120  18.473  0.00  0.00    +0.000 NA
ATOM      7  C   UNL     1       5.381   4.830  18.951  0.00  0.00    +0.000 A 
ATOM      8  N   UNL     1       6.478   4.062  18.861  0.00  0.00    +0.000 NA
ATOM      9  O   UNL     1       7.428   4.901  18.287  0.00  0.00    +0.000 OA
BRANCH   7  10
ATOM     10  C   UNL     1       4.113   4.368  19.512  0.00  0.00    +0.000 A 
ATOM     11  C   UNL     1       3.879   2.993  19.674  0.00  0.00    +0.000 A 
ATOM     12  C   UNL     1       2.668   2.535  20.198  0.00  0.00    +0.000 A 
ATOM     13  C   UNL     1       1.686   3.447  20.561  0.00  0.00    +0.000 A 
ATOM     14  F   UNL     1       0.524   3.004  21.057  0.00  0.00    +0.000 F 
ATOM     15  C   UNL     1       1.892   4.813  20.413  0.00  0.00    +0.000 A 
ATOM     16  C   UNL     1       3.105   5.275  19.890  0.00  0.00    +0.000 A 
ENDBRANCH   7  10
ENDBRANCH   2   5
BRANCH   3  17
ATOM     17  N   UNL     1       8.750   9.208  18.036  0.00  0.00    +0.000 NA
ATOM     18  C   UNL     1       8.522  10.387  18.523  0.00  0.00    +0.000 C 
BRANCH  18  19
ATOM     19  C   UNL     1       9.373  11.537  18.130  0.00  0.00    +0.000 A 
ATOM     20  C   UNL     1      10.724  11.327  17.777  0.00  0.00    +0.000 A 
ATOM     21  C   UNL     1      11.548  12.403  17.428  0.00  0.00    +0.000 A 
ATOM     22  C   UNL     1      10.994  13.663  17.450  0.00  0.00    +0.000 A 
ATOM     23  C   UNL     1       9.676  13.870  17.792  0.00  0.00    +0.000 A 
ATOM     24  C   UNL     1       8.833  12.829  18.133  0.00  0.00    +0.000 A 
ATOM     25  O   UNL     1       9.338  15.189  17.755  0.00  0.00    +0.000 OA
ATOM     26  C   UNL     1      10.607  15.789  17.410  0.00  0.00    +0.000 C 
ATOM     27  O   UNL     1      11.645  14.820  17.159  0.00  0.00    +0.000 OA
ENDBRANCH  18  19
ENDBRANCH   3  17
TORSDOF 4
ENDMDL
MODEL 6
REMARK VINA RESULT:      -8.2      7.710     10.545
REMARK  Name = 
REMARK  4 active torsions:
REMARK  status: ('A' for Active; 'I' for Inactive)
REMARK    1  A    between atoms: C_2  and  C_15
REMARK    2  A    between atoms: N_3  and  N_4
REMARK    3  A    between atoms: C_5  and  C_6
REMARK    4  A    between atoms: C_17  and  C_18
REMARK                            x       y       z     vdW  Elec       q    Type
REMARK                         _______ _______ _______ _____ _____    ______ ____
ROOT
ATOM      1  O   UNL     1       1.189  10.291  19.066  0.00  0.00    +0.000 OA
ATOM      2  C   UNL     1       1.041   9.661  20.112  0.00  0.00    +0.000 C 
ATOM      3  N   UNL     1       1.553   8.374  20.304  0.00  0.00    +0.000 N 
ATOM      4  H   UNL     1       1.395   7.889  21.182  0.00  0.00    +0.000 HD
ENDROOT
BRANCH   2   5
ATOM      5  C   UNL     1       0.313  10.188  21.248  0.00  0.00    +0.000 A 
ATOM      6  N   UNL     1      -0.455  11.259  21.298  0.00  0.00    +0.000 NA
ATOM      7  C   UNL     1      -0.843  11.281  22.629  0.00  0.00    +0.000 A 
ATOM      8  N   UNL     1      -0.341  10.273  23.359  0.00  0.00    +0.000 NA
ATOM      9  O   UNL     1       0.419   9.546  22.448  0.00  0.00    +0.000 OA
BRANCH   7  10
ATOM     10  C   UNL     1      -1.709  12.323  23.175  0.00  0.00    +0.000 A 
ATOM     11  C   UNL     1      -1.207  13.621  23.366  0.00  0.00    +0.000 A 
ATOM     12  C   UNL     1      -2.019  14.626  23.898  0.00  0.00    +0.000 A 
ATOM     13  C   UNL     1      -3.333  14.339  24.242  0.00  0.00    +0.000 A 
ATOM     14  F   UNL     1      -4.106  15.304  24.757  0.00  0.00    +0.000 F 
ATOM     15  C   UNL     1      -3.855  13.065  24.062  0.00  0.00    +0.000 A 
ATOM     16  C   UNL     1      -3.045  12.057  23.527  0.00  0.00    +0.000 A 
ENDBRANCH   7  10
ENDBRANCH   2   5
BRANCH   3  17
ATOM     17  N   UNL     1       2.192   7.760  19.265  0.00  0.00    +0.000 NA
ATOM     18  C   UNL     1       2.703   6.587  19.472  0.00  0.00    +0.000 C 
BRANCH  18  19
ATOM     19  C   UNL     1       3.383   5.861  18.372  0.00  0.00    +0.000 A 
ATOM     20  C   UNL     1       3.191   4.470  18.219  0.00  0.00    +0.000 A 
ATOM     21  C   UNL     1       3.843   3.765  17.203  0.00  0.00    +0.000 A 
ATOM     22  C   UNL     1       4.678   4.475  16.369  0.00  0.00    +0.000 A 
ATOM     23  C   UNL     1       4.865   5.832  16.515  0.00  0.00    +0.000 A 
ATOM     24  C   UNL     1       4.229   6.560  17.502  0.00  0.00    +0.000 A 
ATOM     25  O   UNL     1       5.735   6.331  15.592  0.00  0.00    +0.000 OA
ATOM     26  C   UNL     1       6.115   5.126  14.892  0.00  0.00    +0.000 C 
ATOM     27  O   UNL     1       5.404   3.955  15.343  0.00  0.00    +0.000 OA
ENDBRANCH  18  19
ENDBRANCH   3  17
TORSDOF 4
ENDMDL
MODEL 7
REMARK VINA RESULT:      -8.1      1.439      1.918
REMARK  Name = 
REMARK  4 active torsions:
REMARK  status: ('A' for Active; 'I' for Inactive)
REMARK    1  A    between atoms: C_2  and  C_15
REMARK    2  A    between atoms: N_3  and  N_4
REMARK    3  A    between atoms: C_5  and  C_6
REMARK    4  A    between atoms: C_17  and  C_18
REMARK                            x       y       z     vdW  Elec       q    Type
REMARK                         _______ _______ _______ _____ _____    ______ ____
ROOT
ATOM      1  O   UNL     1       7.520   8.460  16.844  0.00  0.00    +0.000 OA
ATOM      2  C   UNL     1       7.704   7.780  17.851  0.00  0.00    +0.000 C 
ATOM      3  N   UNL     1       8.550   8.175  18.894  0.00  0.00    +0.000 N 
ATOM      4  H   UNL     1       8.679   7.573  19.701  0.00  0.00    +0.000 HD
ENDROOT
BRANCH   2   5
ATOM      5  C   UNL     1       7.070   6.493  18.055  0.00  0.00    +0.000 A 
ATOM      6  N   UNL     1       5.789   6.193  17.961  0.00  0.00    +0.000 NA
ATOM      7  C   UNL     1       5.778   4.847  18.295  0.00  0.00    +0.000 A 
ATOM      8  N   UNL     1       6.991   4.345  18.577  0.00  0.00    +0.000 NA
ATOM      9  O   UNL     1       7.847   5.430  18.414  0.00  0.00    +0.000 OA
BRANCH   7  10
ATOM     10  C   UNL     1       4.546   4.062  18.344  0.00  0.00    +0.000 A 
ATOM     11  C   UNL     1       4.234   3.323  19.496  0.00  0.00    +0.000 A 
ATOM     12  C   UNL     1       3.066   2.558  19.556  0.00  0.00    +0.000 A 
ATOM     13  C   UNL     1       2.207   2.529  18.465  0.00  0.00    +0.000 A 
ATOM     14  F   UNL     1       1.091   1.791  18.523  0.00  0.00    +0.000 F 
ATOM     15  C   UNL     1       2.491   3.252  17.313  0.00  0.00    +0.000 A 
ATOM     16  C   UNL     1       3.659   4.020  17.252  0.00  0.00    +0.000 A 
ENDBRANCH   7  10
ENDBRANCH   2   5
BRANCH   3  17
ATOM     17  N   UNL     1       9.252   9.339  18.763  0.00  0.00    +0.000 NA
ATOM     18  C   UNL     1       9.224  10.180  19.749  0.00  0.00    +0.000 C 
BRANCH  18  19
ATOM     19  C   UNL     1       9.992  11.447  19.675  0.00  0.00    +0.000 A 
ATOM     20  C   UNL     1      11.100  11.551  18.806  0.00  0.00    +0.000 A 
ATOM     21  C   UNL     1      11.850  12.730  18.742  0.00  0.00    +0.000 A 
ATOM     22  C   UNL     1      11.472  13.772  19.558  0.00  0.00    +0.000 A 
ATOM     23  C   UNL     1      10.390  13.673  20.405  0.00  0.00    +0.000 A 
ATOM     24  C   UNL     1       9.622  12.527  20.486  0.00  0.00    +0.000 A 
ATOM     25  O   UNL     1      10.198  14.814  21.125  0.00  0.00    +0.000 OA
ATOM     26  C   UNL     1      11.315  15.614  20.677  0.00  0.00    +0.000 C 
ATOM     27  O   UNL     1      12.092  14.979  19.641  0.00  0.00    +0.000 OA
ENDBRANCH  18  19
ENDBRANCH   3  17
TORSDOF 4
ENDMDL
MODEL 8
REMARK VINA RESULT:      -7.9      1.199      1.547
REMARK  Name = 
REMARK  4 active torsions:
REMARK  status: ('A' for Active; 'I' for Inactive)
REMARK    1  A    between atoms: C_2  and  C_15
REMARK    2  A    between atoms: N_3  and  N_4
REMARK    3  A    between atoms: C_5  and  C_6
REMARK    4  A    between atoms: C_17  and  C_18
REMARK                            x       y       z     vdW  Elec       q    Type
REMARK                         _______ _______ _______ _____ _____    ______ ____
ROOT
ATOM      1  O   UNL     1       7.167   8.463  16.719  0.00  0.00    +0.000 OA
ATOM      2  C   UNL     1       7.382   7.880  17.780  0.00  0.00    +0.000 C 
ATOM      3  N   UNL     1       8.281   8.355  18.741  0.00  0.00    +0.000 N 
ATOM      4  H   UNL     1       8.434   7.831  19.597  0.00  0.00    +0.000 HD
ENDROOT
BRANCH   2   5
ATOM      5  C   UNL     1       6.732   6.635  18.136  0.00  0.00    +0.000 A 
ATOM      6  N   UNL     1       5.498   6.255  17.867  0.00  0.00    +0.000 NA
ATOM      7  C   UNL     1       5.433   5.013  18.480  0.00  0.00    +0.000 A 
ATOM      8  N   UNL     1       6.570   4.648  19.093  0.00  0.00    +0.000 NA
ATOM      9  O   UNL     1       7.432   5.716  18.863  0.00  0.00    +0.000 OA
BRANCH   7  10
ATOM     10  C   UNL     1       4.223   4.194  18.464  0.00  0.00    +0.000 A 
ATOM     11  C   UNL     1       4.317   2.803  18.637  0.00  0.00    +0.000 A 
ATOM     12  C   UNL     1       3.172   2.004  18.612  0.00  0.00    +0.000 A 
ATOM     13  C   UNL     1       1.928   2.590  18.414  0.00  0.00    +0.000 A 
ATOM     14  F   UNL     1       0.833   1.821  18.385  0.00  0.00    +0.000 F 
ATOM     15  C   UNL     1       1.807   3.964  18.242  0.00  0.00    +0.000 A 
ATOM     16  C   UNL     1       2.953   4.766  18.269  0.00  0.00    +0.000 A 
ENDBRANCH   7  10
ENDBRANCH   2   5
BRANCH   3  17
ATOM     17  N   UNL     1       9.000   9.483  18.467  0.00  0.00    +0.000 NA
ATOM     18  C   UNL     1       9.342  10.242  19.459  0.00  0.00    +0.000 C 
BRANCH  18  19
ATOM     19  C   UNL     1      10.149  11.464  19.224  0.00  0.00    +0.000 A 
ATOM     20  C   UNL     1      11.558  11.405  19.293  0.00  0.00    +0.000 A 
ATOM     21  C   UNL     1      12.333  12.552  19.098  0.00  0.00    +0.000 A 
ATOM     22  C   UNL     1      11.672  13.733  18.846  0.00  0.00    +0.000 A 
ATOM     23  C   UNL     1      10.298  13.794  18.776  0.00  0.00    +0.000 A 
ATOM     24  C   UNL     1       9.503  12.678  18.954  0.00  0.00    +0.000 A 
ATOM     25  O   UNL     1       9.853  15.057  18.524  0.00  0.00    +0.000 OA
ATOM     26  C   UNL     1      11.098  15.789  18.504  0.00  0.00    +0.000 C 
ATOM     27  O   UNL     1      12.258  14.944  18.649  0.00  0.00    +0.000 OA
ENDBRANCH  18  19
ENDBRANCH   3  17
TORSDOF 4
ENDMDL
MODEL 9
REMARK VINA RESULT:      -7.9      6.870      8.905
REMARK  Name = 
REMARK  4 active torsions:
REMARK  status: ('A' for Active; 'I' for Inactive)
REMARK    1  A    between atoms: C_2  and  C_15
REMARK    2  A    between atoms: N_3  and  N_4
REMARK    3  A    between atoms: C_5  and  C_6
REMARK    4  A    between atoms: C_17  and  C_18
REMARK                            x       y       z     vdW  Elec       q    Type
REMARK                         _______ _______ _______ _____ _____    ______ ____
ROOT
ATOM      1  O   UNL     1       1.537   5.158  20.881  0.00  0.00    +0.000 OA
ATOM      2  C   UNL     1       2.318   5.779  20.163  0.00  0.00    +0.000 C 
ATOM      3  N   UNL     1       2.364   7.177  20.118  0.00  0.00    +0.000 N 
ATOM      4  H   UNL     1       3.019   7.645  19.499  0.00  0.00    +0.000 HD
ENDROOT
BRANCH   2   5
ATOM      5  C   UNL     1       3.265   5.125  19.284  0.00  0.00    +0.000 A 
ATOM      6  N   UNL     1       3.778   5.579  18.156  0.00  0.00    +0.000 NA
ATOM      7  C   UNL     1       4.576   4.520  17.749  0.00  0.00    +0.000 A 
ATOM      8  N   UNL     1       4.556   3.470  18.586  0.00  0.00    +0.000 NA
ATOM      9  O   UNL     1       3.695   3.869  19.603  0.00  0.00    +0.000 OA
BRANCH   7  10
ATOM     10  C   UNL     1       5.351   4.554  16.511  0.00  0.00    +0.000 A 
ATOM     11  C   UNL     1       6.675   5.020  16.528  0.00  0.00    +0.000 A 
ATOM     12  C   UNL     1       7.426   5.071  15.351  0.00  0.00    +0.000 A 
ATOM     13  C   UNL     1       6.857   4.658  14.153  0.00  0.00    +0.000 A 
ATOM     14  F   UNL     1       7.578   4.713  13.026  0.00  0.00    +0.000 F 
ATOM     15  C   UNL     1       5.549   4.192  14.109  0.00  0.00    +0.000 A 
ATOM     16  C   UNL     1       4.796   4.138  15.287  0.00  0.00    +0.000 A 
ENDBRANCH   7  10
ENDBRANCH   2   5
BRANCH   3  17
ATOM     17  N   UNL     1       1.460   7.887  20.855  0.00  0.00    +0.000 NA
ATOM     18  C   UNL     1       1.230   9.116  20.516  0.00  0.00    +0.000 C 
BRANCH  18  19
ATOM     19  C   UNL     1       0.237   9.926  21.263  0.00  0.00    +0.000 A 
ATOM     20  C   UNL     1      -0.024   9.645  22.622  0.00  0.00    +0.000 A 
ATOM     21  C   UNL     1      -0.976  10.382  23.335  0.00  0.00    +0.000 A 
ATOM     22  C   UNL     1      -1.646  11.378  22.661  0.00  0.00    +0.000 A 
ATOM     23  C   UNL     1      -1.392  11.655  21.337  0.00  0.00    +0.000 A 
ATOM     24  C   UNL     1      -0.453  10.953  20.606  0.00  0.00    +0.000 A 
ATOM     25  O   UNL     1      -2.170  12.671  20.867  0.00  0.00    +0.000 OA
ATOM     26  C   UNL     1      -2.979  12.957  22.029  0.00  0.00    +0.000 C 
ATOM     27  O   UNL     1      -2.611  12.180  23.186  0.00  0.00    +0.000 OA
ENDBRANCH  18  19
ENDBRANCH   3  17
TORSDOF 4
ENDMDL
