MODEL 1
REMARK VINA RESULT:      -8.0      0.000      0.000
REMARK  Name = 
REMARK  9 active torsions:
REMARK  status: ('A' for Active; 'I' for Inactive)
REMARK    1  A    between atoms: C_1  and  C_2
REMARK    2  A    between atoms: C_5  and  O_6
REMARK    3  A    between atoms: O_6  and  C_7
REMARK    4  A    between atoms: C_7  and  C_8
REMARK    5  A    between atoms: C_8  and  O_9
REMARK    6  A    between atoms: C_8  and  C_10
REMARK    7  A    between atoms: C_10  and  N_11
REMARK    8  A    between atoms: N_27  and  C_28
REMARK    9  A    between atoms: C_30  and  C_31
REMARK                            x       y       z     vdW  Elec       q    Type
REMARK                         _______ _______ _______ _____ _____    ______ ____
ROOT
ATOM      1  N   UNL     1      -1.136  11.502  20.438  0.00  0.00    +0.000 N 
ATOM      2  C   UNL     1      -2.198  12.214  21.002  0.00  0.00    +0.000 A 
ATOM      3  N   UNL     1      -2.215  12.765  22.250  0.00  0.00    +0.000 N 
ATOM      4  C   UNL     1      -3.498  12.841  22.970  0.00  0.00    +0.000 C 
ATOM      5  C   UNL     1      -3.749  14.243  23.534  0.00  0.00    +0.000 C 
ATOM      6  C   UNL     1      -2.557  14.760  24.332  0.00  0.00    +0.000 C 
ATOM      7  C   UNL     1      -1.305  14.707  23.475  0.00  0.00    +0.000 C 
ATOM      8  C   UNL     1      -1.054  13.295  22.958  0.00  0.00    +0.000 C 
ATOM      9  N   UNL     1      -3.217  12.232  20.151  0.00  0.00    +0.000 NA
ATOM     10  C   UNL     1      -2.771  11.645  19.010  0.00  0.00    +0.000 A 
ATOM     11  C   UNL     1      -1.505  11.170  19.152  0.00  0.00    +0.000 A 
ATOM     12  C   UNL     1      -0.826  10.503  18.093  0.00  0.00    +0.000 A 
ATOM     13  O   UNL     1       0.295  10.006  18.158  0.00  0.00    +0.000 OA
ATOM     14  N   UNL     1      -1.560  10.444  16.937  0.00  0.00    +0.000 N 
ATOM     15  C   UNL     1      -2.844  10.922  16.736  0.00  0.00    +0.000 A 
ATOM     16  O   UNL     1      -3.352  10.787  15.622  0.00  0.00    +0.000 OA
ATOM     17  N   UNL     1      -3.469  11.524  17.822  0.00  0.00    +0.000 N 
ATOM     18  C   UNL     1      -4.808  12.063  17.677  0.00  0.00    +0.000 C 
ATOM     19  H   UNL     1      -1.127  10.009  16.140  0.00  0.00    +0.000 HD
ENDROOT
BRANCH   1  20
ATOM     20  C   UNL     1       0.142  11.154  21.008  0.00  0.00    +0.000 C 
BRANCH  20  21
ATOM     21  C   UNL     1       0.262   9.796  21.701  0.00  0.00    +0.000 C 
BRANCH  21  22
ATOM     22  O   UNL     1       0.345  10.062  23.116  0.00  0.00    +0.000 OA
ATOM     23  H   UNL     1       0.552  11.006  23.239  0.00  0.00    +0.000 HD
ENDBRANCH  21  22
BRANCH  21  24
ATOM     24  C   UNL     1       1.480   8.984  21.235  0.00  0.00    +0.000 C 
BRANCH  24  25
ATOM     25  O   UNL     1       1.182   7.592  21.414  0.00  0.00    +0.000 OA
BRANCH  25  30
ATOM     26  C   UNL     1       2.750   3.827  17.464  0.00  0.00    +0.000 C 
ATOM     27  C   UNL     1       2.380   4.812  18.538  0.00  0.00    +0.000 A 
ATOM     28  C   UNL     1       2.705   6.166  18.366  0.00  0.00    +0.000 A 
ATOM     29  C   UNL     1       2.326   7.122  19.311  0.00  0.00    +0.000 A 
ATOM     30  C   UNL     1       1.641   6.733  20.456  0.00  0.00    +0.000 A 
ATOM     31  C   UNL     1       1.315   5.387  20.640  0.00  0.00    +0.000 A 
ATOM     32  C   UNL     1       1.686   4.413  19.697  0.00  0.00    +0.000 A 
ATOM     33  C   UNL     1       1.318   2.974  19.934  0.00  0.00    +0.000 C 
ENDBRANCH  25  30
ENDBRANCH  24  25
ENDBRANCH  21  24
ENDBRANCH  20  21
ENDBRANCH   1  20
TORSDOF 6
ENDMDL
MODEL 2
REMARK VINA RESULT:      -7.7      1.767      2.263
REMARK  Name = 
REMARK  9 active torsions:
REMARK  status: ('A' for Active; 'I' for Inactive)
REMARK    1  A    between atoms: C_1  and  C_2
REMARK    2  A    between atoms: C_5  and  O_6
REMARK    3  A    between atoms: O_6  and  C_7
REMARK    4  A    between atoms: C_7  and  C_8
REMARK    5  A    between atoms: C_8  and  O_9
REMARK    6  A    between atoms: C_8  and  C_10
REMARK    7  A    between atoms: C_10  and  N_11
REMARK    8  A    between atoms: N_27  and  C_28
REMARK    9  A    between atoms: C_30  and  C_31
REMARK                            x       y       z     vdW  Elec       q    Type
REMARK                         _______ _______ _______ _____ _____    ______ ____
ROOT
ATOM      1  N   UNL     1      -0.855  11.591  19.396  0.00  0.00    +0.000 N 
ATOM      2  C   UNL     1      -1.065  12.635  20.300  0.00  0.00    +0.000 A 
ATOM      3  N   UNL     1      -0.100  13.256  21.039  0.00  0.00    +0.000 N 
ATOM      4  C   UNL     1      -0.457  13.778  22.369  0.00  0.00    +0.000 C 
ATOM      5  C   UNL     1       0.005  15.226  22.553  0.00  0.00    +0.000 C 
ATOM      6  C   UNL     1       1.474  15.408  22.189  0.00  0.00    +0.000 C 
ATOM      7  C   UNL     1       1.717  14.907  20.776  0.00  0.00    +0.000 C 
ATOM      8  C   UNL     1       1.286  13.453  20.628  0.00  0.00    +0.000 C 
ATOM      9  N   UNL     1      -2.363  12.904  20.369  0.00  0.00    +0.000 NA
ATOM     10  C   UNL     1      -2.963  12.125  19.432  0.00  0.00    +0.000 A 
ATOM     11  C   UNL     1      -2.074  11.294  18.825  0.00  0.00    +0.000 A 
ATOM     12  C   UNL     1      -2.471  10.373  17.814  0.00  0.00    +0.000 A 
ATOM     13  O   UNL     1      -1.739   9.560  17.256  0.00  0.00    +0.000 OA
ATOM     14  N   UNL     1      -3.803  10.458  17.503  0.00  0.00    +0.000 N 
ATOM     15  C   UNL     1      -4.745  11.292  18.079  0.00  0.00    +0.000 A 
ATOM     16  O   UNL     1      -5.905  11.238  17.668  0.00  0.00    +0.000 OA
ATOM     17  N   UNL     1      -4.304  12.137  19.091  0.00  0.00    +0.000 N 
ATOM     18  C   UNL     1      -5.234  13.051  19.726  0.00  0.00    +0.000 C 
ATOM     19  H   UNL     1      -4.143   9.852  16.775  0.00  0.00    +0.000 HD
ENDROOT
BRANCH   1  20
ATOM     20  C   UNL     1       0.367  10.908  19.049  0.00  0.00    +0.000 C 
BRANCH  20  21
ATOM     21  C   UNL     1       0.674   9.594  19.767  0.00  0.00    +0.000 C 
BRANCH  21  22
ATOM     22  O   UNL     1       1.096   9.944  21.101  0.00  0.00    +0.000 OA
ATOM     23  H   UNL     1       2.057  10.103  21.087  0.00  0.00    +0.000 HD
ENDBRANCH  21  22
BRANCH  21  24
ATOM     24  C   UNL     1       1.753   8.757  19.064  0.00  0.00    +0.000 C 
BRANCH  24  25
ATOM     25  O   UNL     1       2.199   7.747  19.982  0.00  0.00    +0.000 OA
BRANCH  25  30
ATOM     26  C   UNL     1       1.730   2.317  18.389  0.00  0.00    +0.000 C 
ATOM     27  C   UNL     1       1.906   3.745  18.825  0.00  0.00    +0.000 A 
ATOM     28  C   UNL     1       2.247   4.715  17.871  0.00  0.00    +0.000 A 
ATOM     29  C   UNL     1       2.361   6.062  18.223  0.00  0.00    +0.000 A 
ATOM     30  C   UNL     1       2.161   6.453  19.542  0.00  0.00    +0.000 A 
ATOM     31  C   UNL     1       1.825   5.495  20.502  0.00  0.00    +0.000 A 
ATOM     32  C   UNL     1       1.703   4.136  20.163  0.00  0.00    +0.000 A 
ATOM     33  C   UNL     1       1.342   3.137  21.227  0.00  0.00    +0.000 C 
ENDBRANCH  25  30
ENDBRANCH  24  25
ENDBRANCH  21  24
ENDBRANCH  20  21
ENDBRANCH   1  20
TORSDOF 6
ENDMDL
MODEL 3
REMARK VINA RESULT:      -7.5      2.348      4.896
REMARK  Name = 
REMARK  9 active torsions:
REMARK  status: ('A' for Active; 'I' for Inactive)
REMARK    1  A    between atoms: C_1  and  C_2
REMARK    2  A    between atoms: C_5  and  O_6
REMARK    3  A    between atoms: O_6  and  C_7
REMARK    4  A    between atoms: C_7  and  C_8
REMARK    5  A    between atoms: C_8  and  O_9
REMARK    6  A    between atoms: C_8  and  C_10
REMARK    7  A    between atoms: C_10  and  N_11
REMARK    8  A    between atoms: N_27  and  C_28
REMARK    9  A    between atoms: C_30  and  C_31
REMARK                            x       y       z     vdW  Elec       q    Type
REMARK                         _______ _______ _______ _____ _____    ______ ____
ROOT
ATOM      1  N   UNL     1      -2.859  12.513  20.224  0.00  0.00    +0.000 N 
ATOM      2  C   UNL     1      -3.665  12.036  19.187  0.00  0.00    +0.000 A 
ATOM      3  N   UNL     1      -3.227  11.621  17.963  0.00  0.00    +0.000 N 
ATOM      4  C   UNL     1      -4.104  11.817  16.796  0.00  0.00    +0.000 C 
ATOM      5  C   UNL     1      -4.246  10.535  15.971  0.00  0.00    +0.000 C 
ATOM      6  C   UNL     1      -2.893   9.920  15.633  0.00  0.00    +0.000 C 
ATOM      7  C   UNL     1      -2.102   9.691  16.909  0.00  0.00    +0.000 C 
ATOM      8  C   UNL     1      -1.940  10.988  17.694  0.00  0.00    +0.000 C 
ATOM      9  N   UNL     1      -4.938  12.093  19.558  0.00  0.00    +0.000 NA
ATOM     10  C   UNL     1      -4.939  12.487  20.857  0.00  0.00    +0.000 A 
ATOM     11  C   UNL     1      -3.684  12.770  21.298  0.00  0.00    +0.000 A 
ATOM     12  C   UNL     1      -3.432  13.214  22.627  0.00  0.00    +0.000 A 
ATOM     13  O   UNL     1      -2.338  13.534  23.082  0.00  0.00    +0.000 OA
ATOM     14  N   UNL     1      -4.565  13.273  23.397  0.00  0.00    +0.000 N 
ATOM     15  C   UNL     1      -5.860  12.984  23.003  0.00  0.00    +0.000 A 
ATOM     16  O   UNL     1      -6.763  13.087  23.836  0.00  0.00    +0.000 OA
ATOM     17  N   UNL     1      -6.045  12.598  21.680  0.00  0.00    +0.000 N 
ATOM     18  C   UNL     1      -7.375  12.264  21.205  0.00  0.00    +0.000 C 
ATOM     19  H   UNL     1      -4.453  13.553  24.356  0.00  0.00    +0.000 HD
ENDROOT
BRANCH   1  20
ATOM     20  C   UNL     1      -1.431  12.711  20.260  0.00  0.00    +0.000 C 
BRANCH  20  21
ATOM     21  C   UNL     1      -0.583  11.635  20.938  0.00  0.00    +0.000 C 
BRANCH  21  22
ATOM     22  O   UNL     1       0.155  12.294  21.988  0.00  0.00    +0.000 OA
ATOM     23  H   UNL     1      -0.283  13.142  22.184  0.00  0.00    +0.000 HD
ENDBRANCH  21  22
BRANCH  21  24
ATOM     24  C   UNL     1       0.376  10.921  19.973  0.00  0.00    +0.000 C 
BRANCH  24  25
ATOM     25  O   UNL     1       1.063   9.896  20.707  0.00  0.00    +0.000 OA
BRANCH  25  30
ATOM     26  C   UNL     1       2.755   5.262  17.896  0.00  0.00    +0.000 C 
ATOM     27  C   UNL     1       2.358   6.495  18.658  0.00  0.00    +0.000 A 
ATOM     28  C   UNL     1       2.325   7.730  17.993  0.00  0.00    +0.000 A 
ATOM     29  C   UNL     1       1.903   8.890  18.648  0.00  0.00    +0.000 A 
ATOM     30  C   UNL     1       1.536   8.834  19.988  0.00  0.00    +0.000 A 
ATOM     31  C   UNL     1       1.568   7.611  20.662  0.00  0.00    +0.000 A 
ATOM     32  C   UNL     1       1.986   6.435  20.015  0.00  0.00    +0.000 A 
ATOM     33  C   UNL     1       2.009   5.139  20.778  0.00  0.00    +0.000 C 
ENDBRANCH  25  30
ENDBRANCH  24  25
ENDBRANCH  21  24
ENDBRANCH  20  21
ENDBRANCH   1  20
TORSDOF 6
ENDMDL
MODEL 4
REMARK VINA RESULT:      -7.5      0.899      1.565
REMARK  Name = 
REMARK  9 active torsions:
REMARK  status: ('A' for Active; 'I' for Inactive)
REMARK    1  A    between atoms: C_1  and  C_2
REMARK    2  A    between atoms: C_5  and  O_6
REMARK    3  A    between atoms: O_6  and  C_7
REMARK    4  A    between atoms: C_7  and  C_8
REMARK    5  A    between atoms: C_8  and  O_9
REMARK    6  A    between atoms: C_8  and  C_10
REMARK    7  A    between atoms: C_10  and  N_11
REMARK    8  A    between atoms: N_27  and  C_28
REMARK    9  A    between atoms: C_30  and  C_31
REMARK                            x       y       z     vdW  Elec       q    Type
REMARK                         _______ _______ _______ _____ _____    ______ ____
ROOT
ATOM      1  N   UNL     1      -1.145  11.388  20.124  0.00  0.00    +0.000 N 
ATOM      2  C   UNL     1      -2.114  12.195  20.725  0.00  0.00    +0.000 A 
ATOM      3  N   UNL     1      -2.016  12.779  21.955  0.00  0.00    +0.000 N 
ATOM      4  C   UNL     1      -3.245  12.975  22.742  0.00  0.00    +0.000 C 
ATOM      5  C   UNL     1      -3.354  14.406  23.276  0.00  0.00    +0.000 C 
ATOM      6  C   UNL     1      -2.082  14.849  23.990  0.00  0.00    +0.000 C 
ATOM      7  C   UNL     1      -0.890  14.675  23.066  0.00  0.00    +0.000 C 
ATOM      8  C   UNL     1      -0.779  13.234  22.579  0.00  0.00    +0.000 C 
ATOM      9  N   UNL     1      -3.177  12.271  19.932  0.00  0.00    +0.000 NA
ATOM     10  C   UNL     1      -2.845  11.621  18.787  0.00  0.00    +0.000 A 
ATOM     11  C   UNL     1      -1.613  11.052  18.872  0.00  0.00    +0.000 A 
ATOM     12  C   UNL     1      -1.050  10.306  17.797  0.00  0.00    +0.000 A 
ATOM     13  O   UNL     1       0.031   9.724  17.815  0.00  0.00    +0.000 OA
ATOM     14  N   UNL     1      -1.853  10.274  16.687  0.00  0.00    +0.000 N 
ATOM     15  C   UNL     1      -3.106  10.847  16.544  0.00  0.00    +0.000 A 
ATOM     16  O   UNL     1      -3.687  10.722  15.465  0.00  0.00    +0.000 OA
ATOM     17  N   UNL     1      -3.618  11.524  17.645  0.00  0.00    +0.000 N 
ATOM     18  C   UNL     1      -4.918  12.162  17.558  0.00  0.00    +0.000 C 
ATOM     19  H   UNL     1      -1.502   9.786  15.881  0.00  0.00    +0.000 HD
ENDROOT
BRANCH   1  20
ATOM     20  C   UNL     1       0.133  10.956  20.633  0.00  0.00    +0.000 C 
BRANCH  20  21
ATOM     21  C   UNL     1       0.152   9.743  21.564  0.00  0.00    +0.000 C 
BRANCH  21  22
ATOM     22  O   UNL     1       0.141  10.259  22.911  0.00  0.00    +0.000 OA
ATOM     23  H   UNL     1       0.845  10.928  22.989  0.00  0.00    +0.000 HD
ENDBRANCH  21  22
BRANCH  21  24
ATOM     24  C   UNL     1       1.370   8.832  21.348  0.00  0.00    +0.000 C 
BRANCH  24  25
ATOM     25  O   UNL     1       1.482   8.565  19.942  0.00  0.00    +0.000 OA
BRANCH  25  30
ATOM     26  C   UNL     1       4.549   4.064  18.338  0.00  0.00    +0.000 C 
ATOM     27  C   UNL     1       3.697   5.241  18.728  0.00  0.00    +0.000 A 
ATOM     28  C   UNL     1       2.887   5.150  19.870  0.00  0.00    +0.000 A 
ATOM     29  C   UNL     1       2.128   6.240  20.302  0.00  0.00    +0.000 A 
ATOM     30  C   UNL     1       2.146   7.428  19.580  0.00  0.00    +0.000 A 
ATOM     31  C   UNL     1       2.946   7.528  18.439  0.00  0.00    +0.000 A 
ATOM     32  C   UNL     1       3.719   6.442  17.994  0.00  0.00    +0.000 A 
ATOM     33  C   UNL     1       4.564   6.591  16.759  0.00  0.00    +0.000 C 
ENDBRANCH  25  30
ENDBRANCH  24  25
ENDBRANCH  21  24
ENDBRANCH  20  21
ENDBRANCH   1  20
TORSDOF 6
ENDMDL
MODEL 5
REMARK VINA RESULT:      -7.5      1.869      2.646
REMARK  Name = 
REMARK  9 active torsions:
REMARK  status: ('A' for Active; 'I' for Inactive)
REMARK    1  A    between atoms: C_1  and  C_2
REMARK    2  A    between atoms: C_5  and  O_6
REMARK    3  A    between atoms: O_6  and  C_7
REMARK    4  A    between atoms: C_7  and  C_8
REMARK    5  A    between atoms: C_8  and  O_9
REMARK    6  A    between atoms: C_8  and  C_10
REMARK    7  A    between atoms: C_10  and  N_11
REMARK    8  A    between atoms: N_27  and  C_28
REMARK    9  A    between atoms: C_30  and  C_31
REMARK                            x       y       z     vdW  Elec       q    Type
REMARK                         _______ _______ _______ _____ _____    ______ ____
ROOT
ATOM      1  N   UNL     1      -0.799  11.485  19.091  0.00  0.00    +0.000 N 
ATOM      2  C   UNL     1      -0.940  12.496  20.044  0.00  0.00    +0.000 A 
ATOM      3  N   UNL     1       0.077  13.078  20.745  0.00  0.00    +0.000 N 
ATOM      4  C   UNL     1      -0.192  13.552  22.113  0.00  0.00    +0.000 C 
ATOM      5  C   UNL     1       0.299  14.988  22.323  0.00  0.00    +0.000 C 
ATOM      6  C   UNL     1       1.746  15.167  21.876  0.00  0.00    +0.000 C 
ATOM      7  C   UNL     1       1.896  14.719  20.434  0.00  0.00    +0.000 C 
ATOM      8  C   UNL     1       1.437  13.276  20.258  0.00  0.00    +0.000 C 
ATOM      9  N   UNL     1      -2.228  12.776  20.203  0.00  0.00    +0.000 NA
ATOM     10  C   UNL     1      -2.894  12.040  19.276  0.00  0.00    +0.000 A 
ATOM     11  C   UNL     1      -2.055  11.224  18.585  0.00  0.00    +0.000 A 
ATOM     12  C   UNL     1      -2.524  10.346  17.566  0.00  0.00    +0.000 A 
ATOM     13  O   UNL     1      -1.838   9.548  16.934  0.00  0.00    +0.000 OA
ATOM     14  N   UNL     1      -3.871  10.457  17.341  0.00  0.00    +0.000 N 
ATOM     15  C   UNL     1      -4.765  11.279  18.004  0.00  0.00    +0.000 A 
ATOM     16  O   UNL     1      -5.950  11.253  17.664  0.00  0.00    +0.000 OA
ATOM     17  N   UNL     1      -4.252  12.079  19.019  0.00  0.00    +0.000 N 
ATOM     18  C   UNL     1      -5.131  12.978  19.744  0.00  0.00    +0.000 C 
ATOM     19  H   UNL     1      -4.263   9.884  16.613  0.00  0.00    +0.000 HD
ENDROOT
BRANCH   1  20
ATOM     20  C   UNL     1       0.390  10.804  18.643  0.00  0.00    +0.000 C 
BRANCH  20  21
ATOM     21  C   UNL     1       0.733   9.468  19.304  0.00  0.00    +0.000 C 
BRANCH  21  22
ATOM     22  O   UNL     1       1.154   9.771  20.650  0.00  0.00    +0.000 OA
ATOM     23  H   UNL     1       1.646  10.613  20.635  0.00  0.00    +0.000 HD
ENDBRANCH  21  22
BRANCH  21  24
ATOM     24  C   UNL     1       1.828   8.688  18.562  0.00  0.00    +0.000 C 
BRANCH  24  25
ATOM     25  O   UNL     1       2.503   7.853  19.515  0.00  0.00    +0.000 OA
BRANCH  25  30
ATOM     26  C   UNL     1       1.405   2.284  19.400  0.00  0.00    +0.000 C 
ATOM     27  C   UNL     1       1.648   3.767  19.405  0.00  0.00    +0.000 A 
ATOM     28  C   UNL     1       1.317   4.511  20.548  0.00  0.00    +0.000 A 
ATOM     29  C   UNL     1       1.583   5.880  20.617  0.00  0.00    +0.000 A 
ATOM     30  C   UNL     1       2.158   6.531  19.532  0.00  0.00    +0.000 A 
ATOM     31  C   UNL     1       2.488   5.802  18.387  0.00  0.00    +0.000 A 
ATOM     32  C   UNL     1       2.231   4.422  18.303  0.00  0.00    +0.000 A 
ATOM     33  C   UNL     1       2.599   3.675  17.051  0.00  0.00    +0.000 C 
ENDBRANCH  25  30
ENDBRANCH  24  25
ENDBRANCH  21  24
ENDBRANCH  20  21
ENDBRANCH   1  20
TORSDOF 6
ENDMDL
MODEL 6
REMARK VINA RESULT:      -7.5      2.772      5.542
REMARK  Name = 
REMARK  9 active torsions:
REMARK  status: ('A' for Active; 'I' for Inactive)
REMARK    1  A    between atoms: C_1  and  C_2
REMARK    2  A    between atoms: C_5  and  O_6
REMARK    3  A    between atoms: O_6  and  C_7
REMARK    4  A    between atoms: C_7  and  C_8
REMARK    5  A    between atoms: C_8  and  O_9
REMARK    6  A    between atoms: C_8  and  C_10
REMARK    7  A    between atoms: C_10  and  N_11
REMARK    8  A    between atoms: N_27  and  C_28
REMARK    9  A    between atoms: C_30  and  C_31
REMARK                            x       y       z     vdW  Elec       q    Type
REMARK                         _______ _______ _______ _____ _____    ______ ____
ROOT
ATOM      1  N   UNL     1      -3.520  13.091  21.104  0.00  0.00    +0.000 N 
ATOM      2  C   UNL     1      -4.169  12.368  20.100  0.00  0.00    +0.000 A 
ATOM      3  N   UNL     1      -3.608  11.954  18.927  0.00  0.00    +0.000 N 
ATOM      4  C   UNL     1      -4.464  11.861  17.732  0.00  0.00    +0.000 C 
ATOM      5  C   UNL     1      -4.303  10.513  17.023  0.00  0.00    +0.000 C 
ATOM      6  C   UNL     1      -2.839  10.172  16.767  0.00  0.00    +0.000 C 
ATOM      7  C   UNL     1      -2.066  10.225  18.072  0.00  0.00    +0.000 C 
ATOM      8  C   UNL     1      -2.209  11.588  18.739  0.00  0.00    +0.000 C 
ATOM      9  N   UNL     1      -5.439  12.185  20.441  0.00  0.00    +0.000 NA
ATOM     10  C   UNL     1      -5.570  12.678  21.700  0.00  0.00    +0.000 A 
ATOM     11  C   UNL     1      -4.420  13.256  22.135  0.00  0.00    +0.000 A 
ATOM     12  C   UNL     1      -4.316  13.855  23.423  0.00  0.00    +0.000 A 
ATOM     13  O   UNL     1      -3.331  14.437  23.868  0.00  0.00    +0.000 OA
ATOM     14  N   UNL     1      -5.463  13.736  24.164  0.00  0.00    +0.000 N 
ATOM     15  C   UNL     1      -6.653  13.147  23.775  0.00  0.00    +0.000 A 
ATOM     16  O   UNL     1      -7.587  13.125  24.578  0.00  0.00    +0.000 OA
ATOM     17  N   UNL     1      -6.705  12.620  22.489  0.00  0.00    +0.000 N 
ATOM     18  C   UNL     1      -7.916  11.972  22.022  0.00  0.00    +0.000 C 
ATOM     19  H   UNL     1      -5.448  14.114  25.096  0.00  0.00    +0.000 HD
ENDROOT
BRANCH   1  20
ATOM     20  C   UNL     1      -2.168  13.591  21.148  0.00  0.00    +0.000 C 
BRANCH  20  21
ATOM     21  C   UNL     1      -1.206  12.945  22.147  0.00  0.00    +0.000 C 
BRANCH  21  22
ATOM     22  O   UNL     1      -0.605  14.023  22.894  0.00  0.00    +0.000 OA
ATOM     23  H   UNL     1       0.066  14.449  22.331  0.00  0.00    +0.000 HD
ENDBRANCH  21  22
BRANCH  21  24
ATOM     24  C   UNL     1      -0.123  12.087  21.477  0.00  0.00    +0.000 C 
BRANCH  24  25
ATOM     25  O   UNL     1      -0.257  10.743  21.964  0.00  0.00    +0.000 OA
BRANCH  25  30
ATOM     26  C   UNL     1       2.643   6.954  18.885  0.00  0.00    +0.000 C 
ATOM     27  C   UNL     1       1.829   7.940  19.677  0.00  0.00    +0.000 A 
ATOM     28  C   UNL     1       1.434   7.609  20.983  0.00  0.00    +0.000 A 
ATOM     29  C   UNL     1       0.729   8.519  21.774  0.00  0.00    +0.000 A 
ATOM     30  C   UNL     1       0.385   9.764  21.259  0.00  0.00    +0.000 A 
ATOM     31  C   UNL     1       0.771  10.103  19.960  0.00  0.00    +0.000 A 
ATOM     32  C   UNL     1       1.483   9.200  19.152  0.00  0.00    +0.000 A 
ATOM     33  C   UNL     1       1.876   9.603  17.758  0.00  0.00    +0.000 C 
ENDBRANCH  25  30
ENDBRANCH  24  25
ENDBRANCH  21  24
ENDBRANCH  20  21
ENDBRANCH   1  20
TORSDOF 6
ENDMDL
MODEL 7
REMARK VINA RESULT:      -7.3      3.688      7.666
REMARK  Name = 
REMARK  9 active torsions:
REMARK  status: ('A' for Active; 'I' for Inactive)
REMARK    1  A    between atoms: C_1  and  C_2
REMARK    2  A    between atoms: C_5  and  O_6
REMARK    3  A    between atoms: O_6  and  C_7
REMARK    4  A    between atoms: C_7  and  C_8
REMARK    5  A    between atoms: C_8  and  O_9
REMARK    6  A    between atoms: C_8  and  C_10
REMARK    7  A    between atoms: C_10  and  N_11
REMARK    8  A    between atoms: N_27  and  C_28
REMARK    9  A    between atoms: C_30  and  C_31
REMARK                            x       y       z     vdW  Elec       q    Type
REMARK                         _______ _______ _______ _____ _____    ______ ____
ROOT
ATOM      1  N   UNL     1      -0.780  10.847  19.783  0.00  0.00    +0.000 N 
ATOM      2  C   UNL     1      -0.131  10.005  18.877  0.00  0.00    +0.000 A 
ATOM      3  N   UNL     1       1.024   9.317  19.114  0.00  0.00    +0.000 N 
ATOM      4  C   UNL     1       1.941   9.071  17.988  0.00  0.00    +0.000 C 
ATOM      5  C   UNL     1       2.364   7.601  17.911  0.00  0.00    +0.000 C 
ATOM      6  C   UNL     1       2.872   7.082  19.251  0.00  0.00    +0.000 C 
ATOM      7  C   UNL     1       1.823   7.317  20.323  0.00  0.00    +0.000 C 
ATOM      8  C   UNL     1       1.447   8.792  20.407  0.00  0.00    +0.000 C 
ATOM      9  N   UNL     1      -0.787  10.012  17.723  0.00  0.00    +0.000 NA
ATOM     10  C   UNL     1      -1.907  10.752  17.925  0.00  0.00    +0.000 A 
ATOM     11  C   UNL     1      -1.932  11.295  19.172  0.00  0.00    +0.000 A 
ATOM     12  C   UNL     1      -3.003  12.122  19.614  0.00  0.00    +0.000 A 
ATOM     13  O   UNL     1      -3.073  12.685  20.703  0.00  0.00    +0.000 OA
ATOM     14  N   UNL     1      -3.996  12.260  18.679  0.00  0.00    +0.000 N 
ATOM     15  C   UNL     1      -4.026  11.719  17.406  0.00  0.00    +0.000 A 
ATOM     16  O   UNL     1      -5.010  11.944  16.697  0.00  0.00    +0.000 OA
ATOM     17  N   UNL     1      -2.930  10.958  17.018  0.00  0.00    +0.000 N 
ATOM     18  C   UNL     1      -2.904  10.347  15.702  0.00  0.00    +0.000 C 
ATOM     19  H   UNL     1      -4.797  12.810  18.940  0.00  0.00    +0.000 HD
ENDROOT
BRANCH   1  20
ATOM     20  C   UNL     1      -0.403  11.216  21.125  0.00  0.00    +0.000 C 
BRANCH  20  21
ATOM     21  C   UNL     1       0.311  12.554  21.318  0.00  0.00    +0.000 C 
BRANCH  21  22
ATOM     22  O   UNL     1      -0.626  13.430  21.977  0.00  0.00    +0.000 OA
ATOM     23  H   UNL     1      -0.157  14.245  22.233  0.00  0.00    +0.000 HD
ENDBRANCH  21  22
BRANCH  21  24
ATOM     24  C   UNL     1       0.794  13.179  20.000  0.00  0.00    +0.000 C 
BRANCH  24  25
ATOM     25  O   UNL     1       1.343  14.472  20.296  0.00  0.00    +0.000 OA
BRANCH  25  30
ATOM     26  C   UNL     1      -0.172  18.631  16.739  0.00  0.00    +0.000 C 
ATOM     27  C   UNL     1       0.250  17.567  17.715  0.00  0.00    +0.000 A 
ATOM     28  C   UNL     1      -0.684  17.079  18.642  0.00  0.00    +0.000 A 
ATOM     29  C   UNL     1      -0.352  16.050  19.524  0.00  0.00    +0.000 A 
ATOM     30  C   UNL     1       0.930  15.512  19.511  0.00  0.00    +0.000 A 
ATOM     31  C   UNL     1       1.870  15.992  18.595  0.00  0.00    +0.000 A 
ATOM     32  C   UNL     1       1.549  17.025  17.698  0.00  0.00    +0.000 A 
ATOM     33  C   UNL     1       2.591  17.515  16.730  0.00  0.00    +0.000 C 
ENDBRANCH  25  30
ENDBRANCH  24  25
ENDBRANCH  21  24
ENDBRANCH  20  21
ENDBRANCH   1  20
TORSDOF 6
ENDMDL
MODEL 8
REMARK VINA RESULT:      -7.3      3.358      4.249
REMARK  Name = 
REMARK  9 active torsions:
REMARK  status: ('A' for Active; 'I' for Inactive)
REMARK    1  A    between atoms: C_1  and  C_2
REMARK    2  A    between atoms: C_5  and  O_6
REMARK    3  A    between atoms: O_6  and  C_7
REMARK    4  A    between atoms: C_7  and  C_8
REMARK    5  A    between atoms: C_8  and  O_9
REMARK    6  A    between atoms: C_8  and  C_10
REMARK    7  A    between atoms: C_10  and  N_11
REMARK    8  A    between atoms: N_27  and  C_28
REMARK    9  A    between atoms: C_30  and  C_31
REMARK                            x       y       z     vdW  Elec       q    Type
REMARK                         _______ _______ _______ _____ _____    ______ ____
ROOT
ATOM      1  N   UNL     1       0.606  12.985  19.649  0.00  0.00    +0.000 N 
ATOM      2  C   UNL     1      -0.536  13.569  20.202  0.00  0.00    +0.000 A 
ATOM      3  N   UNL     1      -1.487  12.921  20.936  0.00  0.00    +0.000 N 
ATOM      4  C   UNL     1      -2.880  13.392  20.857  0.00  0.00    +0.000 C 
ATOM      5  C   UNL     1      -3.494  13.583  22.247  0.00  0.00    +0.000 C 
ATOM      6  C   UNL     1      -3.303  12.353  23.129  0.00  0.00    +0.000 C 
ATOM      7  C   UNL     1      -1.829  12.000  23.202  0.00  0.00    +0.000 C 
ATOM      8  C   UNL     1      -1.249  11.777  21.809  0.00  0.00    +0.000 C 
ATOM      9  N   UNL     1      -0.582  14.852  19.864  0.00  0.00    +0.000 NA
ATOM     10  C   UNL     1       0.576  15.114  19.204  0.00  0.00    +0.000 A 
ATOM     11  C   UNL     1       1.325  13.991  19.039  0.00  0.00    +0.000 A 
ATOM     12  C   UNL     1       2.579  14.012  18.364  0.00  0.00    +0.000 A 
ATOM     13  O   UNL     1       3.287  13.036  18.134  0.00  0.00    +0.000 OA
ATOM     14  N   UNL     1       2.950  15.269  17.961  0.00  0.00    +0.000 N 
ATOM     15  C   UNL     1       2.234  16.443  18.117  0.00  0.00    +0.000 A 
ATOM     16  O   UNL     1       2.727  17.490  17.695  0.00  0.00    +0.000 OA
ATOM     17  N   UNL     1       0.997  16.348  18.744  0.00  0.00    +0.000 N 
ATOM     18  C   UNL     1       0.201  17.542  18.955  0.00  0.00    +0.000 C 
ATOM     19  H   UNL     1       3.841  15.358  17.503  0.00  0.00    +0.000 HD
ENDROOT
BRANCH   1  20
ATOM     20  C   UNL     1       1.041  11.610  19.678  0.00  0.00    +0.000 C 
BRANCH  20  21
ATOM     21  C   UNL     1       0.609  10.705  18.524  0.00  0.00    +0.000 C 
BRANCH  21  22
ATOM     22  O   UNL     1      -0.614  10.064  18.940  0.00  0.00    +0.000 OA
ATOM     23  H   UNL     1      -1.321  10.735  18.961  0.00  0.00    +0.000 HD
ENDBRANCH  21  22
BRANCH  21  24
ATOM     24  C   UNL     1       1.665   9.655  18.149  0.00  0.00    +0.000 C 
BRANCH  24  25
ATOM     25  O   UNL     1       1.668   8.644  19.167  0.00  0.00    +0.000 OA
BRANCH  25  30
ATOM     26  C   UNL     1       4.959   4.165  18.005  0.00  0.00    +0.000 C 
ATOM     27  C   UNL     1       4.051   5.332  18.277  0.00  0.00    +0.000 A 
ATOM     28  C   UNL     1       3.181   5.281  19.378  0.00  0.00    +0.000 A 
ATOM     29  C   UNL     1       2.365   6.367  19.701  0.00  0.00    +0.000 A 
ATOM     30  C   UNL     1       2.387   7.511  18.911  0.00  0.00    +0.000 A 
ATOM     31  C   UNL     1       3.246   7.572  17.811  0.00  0.00    +0.000 A 
ATOM     32  C   UNL     1       4.076   6.489  17.474  0.00  0.00    +0.000 A 
ATOM     33  C   UNL     1       4.984   6.594  16.280  0.00  0.00    +0.000 C 
ENDBRANCH  25  30
ENDBRANCH  24  25
ENDBRANCH  21  24
ENDBRANCH  20  21
ENDBRANCH   1  20
TORSDOF 6
ENDMDL
MODEL 9
REMARK VINA RESULT:      -7.2      1.862      4.590
REMARK  Name = 
REMARK  9 active torsions:
REMARK  status: ('A' for Active; 'I' for Inactive)
REMARK    1  A    between atoms: C_1  and  C_2
REMARK    2  A    between atoms: C_5  and  O_6
REMARK    3  A    between atoms: O_6  and  C_7
REMARK    4  A    between atoms: C_7  and  C_8
REMARK    5  A    between atoms: C_8  and  O_9
REMARK    6  A    between atoms: C_8  and  C_10
REMARK    7  A    between atoms: C_10  and  N_11
REMARK    8  A    between atoms: N_27  and  C_28
REMARK    9  A    between atoms: C_30  and  C_31
REMARK                            x       y       z     vdW  Elec       q    Type
REMARK                         _______ _______ _______ _____ _____    ______ ____
ROOT
ATOM      1  N   UNL     1      -1.532  11.738  20.127  0.00  0.00    +0.000 N 
ATOM      2  C   UNL     1      -2.551  11.729  19.171  0.00  0.00    +0.000 A 
ATOM      3  N   UNL     1      -2.433  11.289  17.885  0.00  0.00    +0.000 N 
ATOM      4  C   UNL     1      -3.249  11.934  16.842  0.00  0.00    +0.000 C 
ATOM      5  C   UNL     1      -3.981  10.904  15.976  0.00  0.00    +0.000 C 
ATOM      6  C   UNL     1      -3.038   9.827  15.450  0.00  0.00    +0.000 C 
ATOM      7  C   UNL     1      -2.304   9.178  16.609  0.00  0.00    +0.000 C 
ATOM      8  C   UNL     1      -1.553  10.217  17.433  0.00  0.00    +0.000 C 
ATOM      9  N   UNL     1      -3.649  12.263  19.693  0.00  0.00    +0.000 NA
ATOM     10  C   UNL     1      -3.372  12.499  21.002  0.00  0.00    +0.000 A 
ATOM     11  C   UNL     1      -2.079  12.205  21.303  0.00  0.00    +0.000 A 
ATOM     12  C   UNL     1      -1.550  12.381  22.613  0.00  0.00    +0.000 A 
ATOM     13  O   UNL     1      -0.387  12.185  22.951  0.00  0.00    +0.000 OA
ATOM     14  N   UNL     1      -2.485  12.821  23.515  0.00  0.00    +0.000 N 
ATOM     15  C   UNL     1      -3.813  13.121  23.264  0.00  0.00    +0.000 A 
ATOM     16  O   UNL     1      -4.515  13.502  24.202  0.00  0.00    +0.000 OA
ATOM     17  N   UNL     1      -4.256  12.970  21.955  0.00  0.00    +0.000 N 
ATOM     18  C   UNL     1      -5.641  13.251  21.625  0.00  0.00    +0.000 C 
ATOM     19  H   UNL     1      -2.183  12.940  24.467  0.00  0.00    +0.000 HD
ENDROOT
BRANCH   1  20
ATOM     20  C   UNL     1      -0.153  11.335  20.003  0.00  0.00    +0.000 C 
BRANCH  20  21
ATOM     21  C   UNL     1       0.212   9.914  20.433  0.00  0.00    +0.000 C 
BRANCH  21  22
ATOM     22  O   UNL     1       0.805  10.021  21.744  0.00  0.00    +0.000 OA
ATOM     23  H   UNL     1       1.749  10.241  21.636  0.00  0.00    +0.000 HD
ENDBRANCH  21  22
BRANCH  21  24
ATOM     24  C   UNL     1       1.176   9.216  19.463  0.00  0.00    +0.000 C 
BRANCH  24  25
ATOM     25  O   UNL     1       1.952   8.268  20.211  0.00  0.00    +0.000 OA
BRANCH  25  30
ATOM     26  C   UNL     1       2.252   3.010  18.089  0.00  0.00    +0.000 C 
ATOM     27  C   UNL     1       2.221   4.395  18.675  0.00  0.00    +0.000 A 
ATOM     28  C   UNL     1       2.668   5.476  17.901  0.00  0.00    +0.000 A 
ATOM     29  C   UNL     1       2.600   6.784  18.385  0.00  0.00    +0.000 A 
ATOM     30  C   UNL     1       2.108   7.026  19.663  0.00  0.00    +0.000 A 
ATOM     31  C   UNL     1       1.663   5.957  20.444  0.00  0.00    +0.000 A 
ATOM     32  C   UNL     1       1.722   4.635  19.970  0.00  0.00    +0.000 A 
ATOM     33  C   UNL     1       1.235   3.512  20.844  0.00  0.00    +0.000 C 
ENDBRANCH  25  30
ENDBRANCH  24  25
ENDBRANCH  21  24
ENDBRANCH  20  21
ENDBRANCH   1  20
TORSDOF 6
ENDMDL
