MODEL 1
REMARK VINA RESULT:      -8.3      0.000      0.000
REMARK  Name = 
REMARK  7 active torsions:
REMARK  status: ('A' for Active; 'I' for Inactive)
REMARK    1  A    between atoms: C_1  and  O_2
REMARK    2  A    between atoms: O_2  and  C_3
REMARK    3  A    between atoms: C_6  and  N_7
REMARK    4  A    between atoms: C_8  and  C_10
REMARK    5  A    between atoms: C_14  and  N_15
REMARK    6  A    between atoms: C_16  and  C_18
REMARK    7  A    between atoms: C_21  and  C_22
REMARK                            x       y       z     vdW  Elec       q    Type
REMARK                         _______ _______ _______ _____ _____    ______ ____
ROOT
ATOM      1  C   UNL     1       1.612   5.044  20.079  0.00  0.00    +0.000 A 
ATOM      2  N   UNL     1       0.613   4.397  20.720  0.00  0.00    +0.000 NA
ATOM      3  N   UNL     1       0.752   3.122  20.328  0.00  0.00    +0.000 N 
ATOM      4  C   UNL     1       1.798   2.919  19.486  0.00  0.00    +0.000 A 
ATOM      5  C   UNL     1       2.401   4.140  19.296  0.00  0.00    +0.000 A 
ATOM      6  H   UNL     1       0.094   2.432  20.676  0.00  0.00    +0.000 HD
ENDROOT
BRANCH   1   8
ATOM      7  N   UNL     1       0.767   7.089  20.971  0.00  0.00    +0.000 N 
ATOM      8  C   UNL     1       1.782   6.497  20.239  0.00  0.00    +0.000 C 
ATOM      9  O   UNL     1       2.736   7.108  19.764  0.00  0.00    +0.000 OA
ATOM     10  H   UNL     1       0.106   6.435  21.386  0.00  0.00    +0.000 HD
BRANCH   7  14
ATOM     11  C   UNL     1      -0.319  11.258  21.621  0.00  0.00    +0.000 C 
ATOM     12  C   UNL     1       0.596  10.854  20.456  0.00  0.00    +0.000 C 
ATOM     13  C   UNL     1       0.530   9.374  20.093  0.00  0.00    +0.000 C 
ATOM     14  C   UNL     1       0.752   8.495  21.324  0.00  0.00    +0.000 C 
ATOM     15  C   UNL     1      -0.329   8.794  22.363  0.00  0.00    +0.000 C 
ATOM     16  C   UNL     1      -0.289  10.258  22.786  0.00  0.00    +0.000 C 
BRANCH  11  18
ATOM     17  C   UNL     1       0.614  13.443  21.240  0.00  0.00    +0.000 C 
ATOM     18  O   UNL     1       0.094  12.515  22.178  0.00  0.00    +0.000 OA
ENDBRANCH  11  18
ENDBRANCH   7  14
ENDBRANCH   1   8
BRANCH   5  19
ATOM     19  N   UNL     1       3.517   4.412  18.515  0.00  0.00    +0.000 N 
ATOM     20  C   UNL     1       4.807   3.990  18.803  0.00  0.00    +0.000 C 
ATOM     21  O   UNL     1       5.117   3.324  19.791  0.00  0.00    +0.000 OA
ATOM     22  H   UNL     1       3.378   4.983  17.682  0.00  0.00    +0.000 HD
BRANCH  20  23
ATOM     23  C   UNL     1       5.815   4.395  17.840  0.00  0.00    +0.000 A 
ATOM     24  C   UNL     1       7.058   4.963  18.041  0.00  0.00    +0.000 A 
ATOM     25  C   UNL     1       7.645   5.131  16.767  0.00  0.00    +0.000 A 
ATOM     26  C   UNL     1       6.735   4.649  15.845  0.00  0.00    +0.000 A 
ATOM     27  O   UNL     1       5.609   4.217  16.498  0.00  0.00    +0.000 OA
BRANCH  26  28
ATOM     28  C   UNL     1       6.751   4.483  14.394  0.00  0.00    +0.000 A 
ATOM     29  C   UNL     1       7.645   5.217  13.597  0.00  0.00    +0.000 A 
ATOM     30  C   UNL     1       7.703   5.020  12.213  0.00  0.00    +0.000 A 
ATOM     31  C   UNL     1       6.864   4.089  11.606  0.00  0.00    +0.000 A 
ATOM     32  C   UNL     1       5.961   3.364  12.379  0.00  0.00    +0.000 A 
ATOM     33  C   UNL     1       5.903   3.563  13.762  0.00  0.00    +0.000 A 
ENDBRANCH  26  28
ENDBRANCH  20  23
ENDBRANCH   5  19
TORSDOF 6
ENDMDL
MODEL 2
REMARK VINA RESULT:      -8.2      1.886      2.634
REMARK  Name = 
REMARK  7 active torsions:
REMARK  status: ('A' for Active; 'I' for Inactive)
REMARK    1  A    between atoms: C_1  and  O_2
REMARK    2  A    between atoms: O_2  and  C_3
REMARK    3  A    between atoms: C_6  and  N_7
REMARK    4  A    between atoms: C_8  and  C_10
REMARK    5  A    between atoms: C_14  and  N_15
REMARK    6  A    between atoms: C_16  and  C_18
REMARK    7  A    between atoms: C_21  and  C_22
REMARK                            x       y       z     vdW  Elec       q    Type
REMARK                         _______ _______ _______ _____ _____    ______ ____
ROOT
ATOM      1  C   UNL     1       2.784   3.594  20.616  0.00  0.00    +0.000 A 
ATOM      2  N   UNL     1       2.513   2.744  21.632  0.00  0.00    +0.000 NA
ATOM      3  N   UNL     1       3.531   1.871  21.601  0.00  0.00    +0.000 N 
ATOM      4  C   UNL     1       4.447   2.132  20.632  0.00  0.00    +0.000 A 
ATOM      5  C   UNL     1       4.013   3.252  19.963  0.00  0.00    +0.000 A 
ATOM      6  H   UNL     1       3.543   1.114  22.276  0.00  0.00    +0.000 HD
ENDROOT
BRANCH   1   8
ATOM      7  N   UNL     1       2.520   5.871  19.957  0.00  0.00    +0.000 N 
ATOM      8  C   UNL     1       1.866   4.703  20.308  0.00  0.00    +0.000 C 
ATOM      9  O   UNL     1       0.645   4.585  20.361  0.00  0.00    +0.000 OA
ATOM     10  H   UNL     1       3.529   5.780  19.857  0.00  0.00    +0.000 HD
BRANCH   7  14
ATOM     11  C   UNL     1       1.406   9.981  19.033  0.00  0.00    +0.000 C 
ATOM     12  C   UNL     1       0.861   9.279  20.285  0.00  0.00    +0.000 C 
ATOM     13  C   UNL     1       1.657   8.049  20.709  0.00  0.00    +0.000 C 
ATOM     14  C   UNL     1       1.831   7.078  19.540  0.00  0.00    +0.000 C 
ATOM     15  C   UNL     1       2.578   7.779  18.406  0.00  0.00    +0.000 C 
ATOM     16  C   UNL     1       1.810   9.003  17.921  0.00  0.00    +0.000 C 
BRANCH  11  18
ATOM     17  C   UNL     1      -0.886  10.259  18.357  0.00  0.00    +0.000 C 
ATOM     18  O   UNL     1       0.407  10.834  18.454  0.00  0.00    +0.000 OA
ENDBRANCH  11  18
ENDBRANCH   7  14
ENDBRANCH   1   8
BRANCH   5  19
ATOM     19  N   UNL     1       4.638   3.889  18.898  0.00  0.00    +0.000 N 
ATOM     20  C   UNL     1       5.758   4.701  19.007  0.00  0.00    +0.000 C 
ATOM     21  O   UNL     1       6.330   4.958  20.067  0.00  0.00    +0.000 OA
ATOM     22  H   UNL     1       4.228   3.765  17.973  0.00  0.00    +0.000 HD
BRANCH  20  23
ATOM     23  C   UNL     1       6.236   5.258  17.756  0.00  0.00    +0.000 A 
ATOM     24  C   UNL     1       6.894   6.448  17.507  0.00  0.00    +0.000 A 
ATOM     25  C   UNL     1       7.157   6.489  16.120  0.00  0.00    +0.000 A 
ATOM     26  C   UNL     1       6.656   5.318  15.585  0.00  0.00    +0.000 A 
ATOM     27  O   UNL     1       6.076   4.574  16.581  0.00  0.00    +0.000 OA
BRANCH  26  28
ATOM     28  C   UNL     1       6.656   4.730  14.248  0.00  0.00    +0.000 A 
ATOM     29  C   UNL     1       5.683   3.788  13.877  0.00  0.00    +0.000 A 
ATOM     30  C   UNL     1       5.645   3.265  12.580  0.00  0.00    +0.000 A 
ATOM     31  C   UNL     1       6.585   3.673  11.637  0.00  0.00    +0.000 A 
ATOM     32  C   UNL     1       7.567   4.594  11.992  0.00  0.00    +0.000 A 
ATOM     33  C   UNL     1       7.604   5.115  13.289  0.00  0.00    +0.000 A 
ENDBRANCH  26  28
ENDBRANCH  20  23
ENDBRANCH   5  19
TORSDOF 6
ENDMDL
MODEL 3
REMARK VINA RESULT:      -8.1      1.814      8.957
REMARK  Name = 
REMARK  7 active torsions:
REMARK  status: ('A' for Active; 'I' for Inactive)
REMARK    1  A    between atoms: C_1  and  O_2
REMARK    2  A    between atoms: O_2  and  C_3
REMARK    3  A    between atoms: C_6  and  N_7
REMARK    4  A    between atoms: C_8  and  C_10
REMARK    5  A    between atoms: C_14  and  N_15
REMARK    6  A    between atoms: C_16  and  C_18
REMARK    7  A    between atoms: C_21  and  C_22
REMARK                            x       y       z     vdW  Elec       q    Type
REMARK                         _______ _______ _______ _____ _____    ______ ____
ROOT
ATOM      1  C   UNL     1       3.797   3.715  20.189  0.00  0.00    +0.000 A 
ATOM      2  N   UNL     1       3.705   2.450  20.658  0.00  0.00    +0.000 NA
ATOM      3  N   UNL     1       2.569   2.454  21.372  0.00  0.00    +0.000 N 
ATOM      4  C   UNL     1       1.922   3.648  21.366  0.00  0.00    +0.000 A 
ATOM      5  C   UNL     1       2.675   4.506  20.600  0.00  0.00    +0.000 A 
ATOM      6  H   UNL     1       2.288   1.600  21.843  0.00  0.00    +0.000 HD
ENDROOT
BRANCH   1   8
ATOM      7  N   UNL     1       4.785   3.818  18.020  0.00  0.00    +0.000 N 
ATOM      8  C   UNL     1       4.944   4.121  19.361  0.00  0.00    +0.000 C 
ATOM      9  O   UNL     1       5.935   4.674  19.831  0.00  0.00    +0.000 OA
ATOM     10  H   UNL     1       3.866   3.457  17.772  0.00  0.00    +0.000 HD
BRANCH   7  14
ATOM     11  C   UNL     1       6.763   5.337  14.447  0.00  0.00    +0.000 C 
ATOM     12  C   UNL     1       6.481   3.836  14.615  0.00  0.00    +0.000 C 
ATOM     13  C   UNL     1       5.423   3.512  15.664  0.00  0.00    +0.000 C 
ATOM     14  C   UNL     1       5.747   4.185  16.999  0.00  0.00    +0.000 C 
ATOM     15  C   UNL     1       5.796   5.701  16.803  0.00  0.00    +0.000 C 
ATOM     16  C   UNL     1       6.863   6.085  15.784  0.00  0.00    +0.000 C 
BRANCH  11  18
ATOM     17  C   UNL     1       7.969   5.527  12.374  0.00  0.00    +0.000 C 
ATOM     18  O   UNL     1       8.022   5.546  13.791  0.00  0.00    +0.000 OA
ENDBRANCH  11  18
ENDBRANCH   7  14
ENDBRANCH   1   8
BRANCH   5  19
ATOM     19  N   UNL     1       2.396   5.835  20.308  0.00  0.00    +0.000 N 
ATOM     20  C   UNL     1       2.282   6.359  19.028  0.00  0.00    +0.000 C 
ATOM     21  O   UNL     1       2.421   5.704  17.995  0.00  0.00    +0.000 OA
ATOM     22  H   UNL     1       2.288   6.475  21.095  0.00  0.00    +0.000 HD
BRANCH  20  23
ATOM     23  C   UNL     1       1.983   7.777  18.969  0.00  0.00    +0.000 A 
ATOM     24  C   UNL     1       2.181   8.685  17.945  0.00  0.00    +0.000 A 
ATOM     25  C   UNL     1       1.687   9.929  18.398  0.00  0.00    +0.000 A 
ATOM     26  C   UNL     1       1.202   9.722  19.675  0.00  0.00    +0.000 A 
ATOM     27  O   UNL     1       1.400   8.412  20.032  0.00  0.00    +0.000 OA
BRANCH  26  28
ATOM     28  C   UNL     1       0.521  10.568  20.652  0.00  0.00    +0.000 A 
ATOM     29  C   UNL     1       0.334  11.939  20.408  0.00  0.00    +0.000 A 
ATOM     30  C   UNL     1      -0.367  12.741  21.315  0.00  0.00    +0.000 A 
ATOM     31  C   UNL     1      -0.886  12.185  22.481  0.00  0.00    +0.000 A 
ATOM     32  C   UNL     1      -0.696  10.831  22.746  0.00  0.00    +0.000 A 
ATOM     33  C   UNL     1       0.006  10.031  21.840  0.00  0.00    +0.000 A 
ENDBRANCH  26  28
ENDBRANCH  20  23
ENDBRANCH   5  19
TORSDOF 6
ENDMDL
MODEL 4
REMARK VINA RESULT:      -8.0      1.881      2.735
REMARK  Name = 
REMARK  7 active torsions:
REMARK  status: ('A' for Active; 'I' for Inactive)
REMARK    1  A    between atoms: C_1  and  O_2
REMARK    2  A    between atoms: O_2  and  C_3
REMARK    3  A    between atoms: C_6  and  N_7
REMARK    4  A    between atoms: C_8  and  C_10
REMARK    5  A    between atoms: C_14  and  N_15
REMARK    6  A    between atoms: C_16  and  C_18
REMARK    7  A    between atoms: C_21  and  C_22
REMARK                            x       y       z     vdW  Elec       q    Type
REMARK                         _______ _______ _______ _____ _____    ______ ____
ROOT
ATOM      1  C   UNL     1       3.054   3.538  19.964  0.00  0.00    +0.000 A 
ATOM      2  N   UNL     1       2.854   2.919  21.149  0.00  0.00    +0.000 NA
ATOM      3  N   UNL     1       3.851   2.023  21.216  0.00  0.00    +0.000 N 
ATOM      4  C   UNL     1       4.687   2.053  20.146  0.00  0.00    +0.000 A 
ATOM      5  C   UNL     1       4.218   3.031  19.300  0.00  0.00    +0.000 A 
ATOM      6  H   UNL     1       3.906   1.417  22.028  0.00  0.00    +0.000 HD
ENDROOT
BRANCH   1   8
ATOM      7  N   UNL     1       2.533   5.865  19.886  0.00  0.00    +0.000 N 
ATOM      8  C   UNL     1       2.134   4.594  19.510  0.00  0.00    +0.000 C 
ATOM      9  O   UNL     1       1.118   4.352  18.863  0.00  0.00    +0.000 OA
ATOM     10  H   UNL     1       3.450   5.910  20.326  0.00  0.00    +0.000 HD
BRANCH   7  14
ATOM     11  C   UNL     1       1.356   9.981  19.078  0.00  0.00    +0.000 C 
ATOM     12  C   UNL     1       0.794   9.224  20.290  0.00  0.00    +0.000 C 
ATOM     13  C   UNL     1       1.604   7.995  20.691  0.00  0.00    +0.000 C 
ATOM     14  C   UNL     1       1.830   7.071  19.494  0.00  0.00    +0.000 C 
ATOM     15  C   UNL     1       2.591   7.827  18.405  0.00  0.00    +0.000 C 
ATOM     16  C   UNL     1       1.810   9.052  17.944  0.00  0.00    +0.000 C 
BRANCH  11  18
ATOM     17  C   UNL     1      -0.564  11.387  19.433  0.00  0.00    +0.000 C 
ATOM     18  O   UNL     1       0.355  10.834  18.504  0.00  0.00    +0.000 OA
ENDBRANCH  11  18
ENDBRANCH   7  14
ENDBRANCH   1   8
BRANCH   5  19
ATOM     19  N   UNL     1       4.763   3.419  18.082  0.00  0.00    +0.000 N 
ATOM     20  C   UNL     1       5.935   4.148  17.935  0.00  0.00    +0.000 C 
ATOM     21  O   UNL     1       6.630   4.542  18.871  0.00  0.00    +0.000 OA
ATOM     22  H   UNL     1       4.251   3.167  17.238  0.00  0.00    +0.000 HD
BRANCH  20  23
ATOM     23  C   UNL     1       6.310   4.437  16.563  0.00  0.00    +0.000 A 
ATOM     24  C   UNL     1       7.251   5.318  16.067  0.00  0.00    +0.000 A 
ATOM     25  C   UNL     1       7.235   5.187  14.660  0.00  0.00    +0.000 A 
ATOM     26  C   UNL     1       6.290   4.224  14.362  0.00  0.00    +0.000 A 
ATOM     27  O   UNL     1       5.711   3.779  15.523  0.00  0.00    +0.000 OA
BRANCH  26  28
ATOM     28  C   UNL     1       5.839   3.593  13.124  0.00  0.00    +0.000 A 
ATOM     29  C   UNL     1       6.668   2.695  12.432  0.00  0.00    +0.000 A 
ATOM     30  C   UNL     1       6.218   2.046  11.277  0.00  0.00    +0.000 A 
ATOM     31  C   UNL     1       4.935   2.289  10.796  0.00  0.00    +0.000 A 
ATOM     32  C   UNL     1       4.105   3.188  11.461  0.00  0.00    +0.000 A 
ATOM     33  C   UNL     1       4.556   3.838  12.614  0.00  0.00    +0.000 A 
ENDBRANCH  26  28
ENDBRANCH  20  23
ENDBRANCH   5  19
TORSDOF 6
ENDMDL
MODEL 5
REMARK VINA RESULT:      -8.0      1.703      8.967
REMARK  Name = 
REMARK  7 active torsions:
REMARK  status: ('A' for Active; 'I' for Inactive)
REMARK    1  A    between atoms: C_1  and  O_2
REMARK    2  A    between atoms: O_2  and  C_3
REMARK    3  A    between atoms: C_6  and  N_7
REMARK    4  A    between atoms: C_8  and  C_10
REMARK    5  A    between atoms: C_14  and  N_15
REMARK    6  A    between atoms: C_16  and  C_18
REMARK    7  A    between atoms: C_21  and  C_22
REMARK                            x       y       z     vdW  Elec       q    Type
REMARK                         _______ _______ _______ _____ _____    ______ ____
ROOT
ATOM      1  C   UNL     1       2.727   3.155  19.846  0.00  0.00    +0.000 A 
ATOM      2  N   UNL     1       2.866   1.968  20.478  0.00  0.00    +0.000 NA
ATOM      3  N   UNL     1       2.298   2.172  21.676  0.00  0.00    +0.000 N 
ATOM      4  C   UNL     1       1.787   3.421  21.833  0.00  0.00    +0.000 A 
ATOM      5  C   UNL     1       2.032   4.103  20.665  0.00  0.00    +0.000 A 
ATOM      6  H   UNL     1       2.290   1.411  22.346  0.00  0.00    +0.000 HD
ENDROOT
BRANCH   1   8
ATOM      7  N   UNL     1       4.496   3.956  18.460  0.00  0.00    +0.000 N 
ATOM      8  C   UNL     1       3.256   3.342  18.485  0.00  0.00    +0.000 C 
ATOM      9  O   UNL     1       2.644   2.982  17.483  0.00  0.00    +0.000 OA
ATOM     10  H   UNL     1       4.919   4.097  19.376  0.00  0.00    +0.000 HD
BRANCH   7  14
ATOM     11  C   UNL     1       7.001   5.608  15.301  0.00  0.00    +0.000 C 
ATOM     12  C   UNL     1       5.472   5.582  15.163  0.00  0.00    +0.000 C 
ATOM     13  C   UNL     1       4.727   5.398  16.481  0.00  0.00    +0.000 C 
ATOM     14  C   UNL     1       5.252   4.180  17.244  0.00  0.00    +0.000 C 
ATOM     15  C   UNL     1       6.739   4.371  17.542  0.00  0.00    +0.000 C 
ATOM     16  C   UNL     1       7.538   4.531  16.254  0.00  0.00    +0.000 C 
BRANCH  11  18
ATOM     17  C   UNL     1       6.915   4.478  13.179  0.00  0.00    +0.000 C 
ATOM     18  O   UNL     1       7.629   5.354  14.036  0.00  0.00    +0.000 OA
ENDBRANCH  11  18
ENDBRANCH   7  14
ENDBRANCH   1   8
BRANCH   5  19
ATOM     19  N   UNL     1       1.679   5.414  20.369  0.00  0.00    +0.000 N 
ATOM     20  C   UNL     1       2.567   6.402  19.966  0.00  0.00    +0.000 C 
ATOM     21  O   UNL     1       3.778   6.233  19.827  0.00  0.00    +0.000 OA
ATOM     22  H   UNL     1       0.699   5.671  20.478  0.00  0.00    +0.000 HD
BRANCH  20  23
ATOM     23  C   UNL     1       1.968   7.699  19.711  0.00  0.00    +0.000 A 
ATOM     24  C   UNL     1       1.794   8.378  18.520  0.00  0.00    +0.000 A 
ATOM     25  C   UNL     1       1.130   9.586  18.829  0.00  0.00    +0.000 A 
ATOM     26  C   UNL     1       0.921   9.585  20.195  0.00  0.00    +0.000 A 
ATOM     27  O   UNL     1       1.450   8.442  20.737  0.00  0.00    +0.000 OA
BRANCH  26  28
ATOM     28  C   UNL     1       0.250  10.496  21.120  0.00  0.00    +0.000 A 
ATOM     29  C   UNL     1       0.288  11.885  20.915  0.00  0.00    +0.000 A 
ATOM     30  C   UNL     1      -0.400  12.756  21.766  0.00  0.00    +0.000 A 
ATOM     31  C   UNL     1      -1.132  12.250  22.837  0.00  0.00    +0.000 A 
ATOM     32  C   UNL     1      -1.168  10.877  23.064  0.00  0.00    +0.000 A 
ATOM     33  C   UNL     1      -0.478  10.007  22.214  0.00  0.00    +0.000 A 
ENDBRANCH  26  28
ENDBRANCH  20  23
ENDBRANCH   5  19
TORSDOF 6
ENDMDL
MODEL 6
REMARK VINA RESULT:      -7.9      1.827      2.566
REMARK  Name = 
REMARK  7 active torsions:
REMARK  status: ('A' for Active; 'I' for Inactive)
REMARK    1  A    between atoms: C_1  and  O_2
REMARK    2  A    between atoms: O_2  and  C_3
REMARK    3  A    between atoms: C_6  and  N_7
REMARK    4  A    between atoms: C_8  and  C_10
REMARK    5  A    between atoms: C_14  and  N_15
REMARK    6  A    between atoms: C_16  and  C_18
REMARK    7  A    between atoms: C_21  and  C_22
REMARK                            x       y       z     vdW  Elec       q    Type
REMARK                         _______ _______ _______ _____ _____    ______ ____
ROOT
ATOM      1  C   UNL     1       2.803   3.513  20.624  0.00  0.00    +0.000 A 
ATOM      2  N   UNL     1       2.807   2.729  21.726  0.00  0.00    +0.000 NA
ATOM      3  N   UNL     1       3.803   1.859  21.499  0.00  0.00    +0.000 N 
ATOM      4  C   UNL     1       4.446   2.061  20.319  0.00  0.00    +0.000 A 
ATOM      5  C   UNL     1       3.840   3.134  19.711  0.00  0.00    +0.000 A 
ATOM      6  H   UNL     1       3.995   1.147  22.196  0.00  0.00    +0.000 HD
ENDROOT
BRANCH   1   8
ATOM      7  N   UNL     1       2.394   5.840  20.294  0.00  0.00    +0.000 N 
ATOM      8  C   UNL     1       1.817   4.596  20.485  0.00  0.00    +0.000 C 
ATOM      9  O   UNL     1       0.605   4.399  20.534  0.00  0.00    +0.000 OA
ATOM     10  H   UNL     1       3.405   5.824  20.170  0.00  0.00    +0.000 HD
BRANCH   7  14
ATOM     11  C   UNL     1       1.069   9.964  19.832  0.00  0.00    +0.000 C 
ATOM     12  C   UNL     1       0.699   9.152  21.082  0.00  0.00    +0.000 C 
ATOM     13  C   UNL     1       1.572   7.923  21.311  0.00  0.00    +0.000 C 
ATOM     14  C   UNL     1       1.629   7.048  20.057  0.00  0.00    +0.000 C 
ATOM     15  C   UNL     1       2.214   7.858  18.900  0.00  0.00    +0.000 C 
ATOM     16  C   UNL     1       1.361   9.087  18.607  0.00  0.00    +0.000 C 
BRANCH  11  18
ATOM     17  C   UNL     1      -0.781  11.340  20.521  0.00  0.00    +0.000 C 
ATOM     18  O   UNL     1      -0.015  10.822  19.445  0.00  0.00    +0.000 OA
ENDBRANCH  11  18
ENDBRANCH   7  14
ENDBRANCH   1   8
BRANCH   5  19
ATOM     19  N   UNL     1       4.171   3.703  18.488  0.00  0.00    +0.000 N 
ATOM     20  C   UNL     1       4.868   4.892  18.329  0.00  0.00    +0.000 C 
ATOM     21  O   UNL     1       5.272   5.590  19.259  0.00  0.00    +0.000 OA
ATOM     22  H   UNL     1       3.859   3.219  17.646  0.00  0.00    +0.000 HD
BRANCH  20  23
ATOM     23  C   UNL     1       5.099   5.290  16.953  0.00  0.00    +0.000 A 
ATOM     24  C   UNL     1       5.199   6.551  16.398  0.00  0.00    +0.000 A 
ATOM     25  C   UNL     1       5.458   6.374  15.020  0.00  0.00    +0.000 A 
ATOM     26  C   UNL     1       5.514   5.012  14.799  0.00  0.00    +0.000 A 
ATOM     27  O   UNL     1       5.276   4.348  15.976  0.00  0.00    +0.000 OA
BRANCH  26  28
ATOM     28  C   UNL     1       5.800   4.184  13.629  0.00  0.00    +0.000 A 
ATOM     29  C   UNL     1       4.763   3.538  12.936  0.00  0.00    +0.000 A 
ATOM     30  C   UNL     1       5.026   2.790  11.784  0.00  0.00    +0.000 A 
ATOM     31  C   UNL     1       6.330   2.674  11.310  0.00  0.00    +0.000 A 
ATOM     32  C   UNL     1       7.372   3.295  11.994  0.00  0.00    +0.000 A 
ATOM     33  C   UNL     1       7.109   4.040  13.147  0.00  0.00    +0.000 A 
ENDBRANCH  26  28
ENDBRANCH  20  23
ENDBRANCH   5  19
TORSDOF 6
ENDMDL
MODEL 7
REMARK VINA RESULT:      -7.9      0.954      1.174
REMARK  Name = 
REMARK  7 active torsions:
REMARK  status: ('A' for Active; 'I' for Inactive)
REMARK    1  A    between atoms: C_1  and  O_2
REMARK    2  A    between atoms: O_2  and  C_3
REMARK    3  A    between atoms: C_6  and  N_7
REMARK    4  A    between atoms: C_8  and  C_10
REMARK    5  A    between atoms: C_14  and  N_15
REMARK    6  A    between atoms: C_16  and  C_18
REMARK    7  A    between atoms: C_21  and  C_22
REMARK                            x       y       z     vdW  Elec       q    Type
REMARK                         _______ _______ _______ _____ _____    ______ ____
ROOT
ATOM      1  C   UNL     1       2.263   4.906  20.093  0.00  0.00    +0.000 A 
ATOM      2  N   UNL     1       1.547   4.285  21.057  0.00  0.00    +0.000 NA
ATOM      3  N   UNL     1       1.759   2.981  20.825  0.00  0.00    +0.000 N 
ATOM      4  C   UNL     1       2.587   2.739  19.776  0.00  0.00    +0.000 A 
ATOM      5  C   UNL     1       2.953   3.962  19.266  0.00  0.00    +0.000 A 
ATOM      6  H   UNL     1       1.305   2.300  21.426  0.00  0.00    +0.000 HD
ENDROOT
BRANCH   1   8
ATOM      7  N   UNL     1       1.392   6.982  20.881  0.00  0.00    +0.000 N 
ATOM      8  C   UNL     1       2.267   6.375  19.998  0.00  0.00    +0.000 C 
ATOM      9  O   UNL     1       2.983   6.985  19.208  0.00  0.00    +0.000 OA
ATOM     10  H   UNL     1       0.948   6.349  21.543  0.00  0.00    +0.000 HD
BRANCH   7  14
ATOM     11  C   UNL     1      -0.004  11.109  20.937  0.00  0.00    +0.000 C 
ATOM     12  C   UNL     1       0.930  10.608  19.826  0.00  0.00    +0.000 C 
ATOM     13  C   UNL     1       0.974   9.090  19.684  0.00  0.00    +0.000 C 
ATOM     14  C   UNL     1       1.272   8.420  21.026  0.00  0.00    +0.000 C 
ATOM     15  C   UNL     1       0.180   8.788  22.030  0.00  0.00    +0.000 C 
ATOM     16  C   UNL     1       0.112  10.297  22.234  0.00  0.00    +0.000 C 
BRANCH  11  18
ATOM     17  C   UNL     1      -0.539  13.041  22.269  0.00  0.00    +0.000 C 
ATOM     18  O   UNL     1       0.317  12.461  21.297  0.00  0.00    +0.000 OA
ENDBRANCH  11  18
ENDBRANCH   7  14
ENDBRANCH   1   8
BRANCH   5  19
ATOM     19  N   UNL     1       3.799   4.203  18.191  0.00  0.00    +0.000 N 
ATOM     20  C   UNL     1       5.184   4.244  18.266  0.00  0.00    +0.000 C 
ATOM     21  O   UNL     1       5.830   4.075  19.300  0.00  0.00    +0.000 OA
ATOM     22  H   UNL     1       3.366   4.385  17.286  0.00  0.00    +0.000 HD
BRANCH  20  23
ATOM     23  C   UNL     1       5.859   4.513  17.009  0.00  0.00    +0.000 A 
ATOM     24  C   UNL     1       6.983   5.276  16.750  0.00  0.00    +0.000 A 
ATOM     25  C   UNL     1       7.233   5.180  15.363  0.00  0.00    +0.000 A 
ATOM     26  C   UNL     1       6.256   4.354  14.840  0.00  0.00    +0.000 A 
ATOM     27  O   UNL     1       5.405   3.962  15.842  0.00  0.00    +0.000 OA
BRANCH  26  28
ATOM     28  C   UNL     1       5.988   3.815  13.508  0.00  0.00    +0.000 A 
ATOM     29  C   UNL     1       7.041   3.402  12.676  0.00  0.00    +0.000 A 
ATOM     30  C   UNL     1       6.786   2.833  11.423  0.00  0.00    +0.000 A 
ATOM     31  C   UNL     1       5.475   2.675  10.984  0.00  0.00    +0.000 A 
ATOM     32  C   UNL     1       4.420   3.094  11.790  0.00  0.00    +0.000 A 
ATOM     33  C   UNL     1       4.675   3.664  13.041  0.00  0.00    +0.000 A 
ENDBRANCH  26  28
ENDBRANCH  20  23
ENDBRANCH   5  19
TORSDOF 6
ENDMDL
MODEL 8
REMARK VINA RESULT:      -7.8      1.693      2.048
REMARK  Name = 
REMARK  7 active torsions:
REMARK  status: ('A' for Active; 'I' for Inactive)
REMARK    1  A    between atoms: C_1  and  O_2
REMARK    2  A    between atoms: O_2  and  C_3
REMARK    3  A    between atoms: C_6  and  N_7
REMARK    4  A    between atoms: C_8  and  C_10
REMARK    5  A    between atoms: C_14  and  N_15
REMARK    6  A    between atoms: C_16  and  C_18
REMARK    7  A    between atoms: C_21  and  C_22
REMARK                            x       y       z     vdW  Elec       q    Type
REMARK                         _______ _______ _______ _____ _____    ______ ____
ROOT
ATOM      1  C   UNL     1       2.149   3.798  21.034  0.00  0.00    +0.000 A 
ATOM      2  N   UNL     1       1.480   3.080  21.963  0.00  0.00    +0.000 NA
ATOM      3  N   UNL     1       2.216   1.966  22.100  0.00  0.00    +0.000 N 
ATOM      4  C   UNL     1       3.329   1.947  21.321  0.00  0.00    +0.000 A 
ATOM      5  C   UNL     1       3.339   3.123  20.610  0.00  0.00    +0.000 A 
ATOM      6  H   UNL     1       1.901   1.253  22.749  0.00  0.00    +0.000 HD
ENDROOT
BRANCH   1   8
ATOM      7  N   UNL     1       2.606   6.087  20.540  0.00  0.00    +0.000 N 
ATOM      8  C   UNL     1       1.634   5.103  20.587  0.00  0.00    +0.000 C 
ATOM      9  O   UNL     1       0.455   5.282  20.290  0.00  0.00    +0.000 OA
ATOM     10  H   UNL     1       3.553   5.758  20.715  0.00  0.00    +0.000 HD
BRANCH   7  14
ATOM     11  C   UNL     1       0.881   9.684  18.786  0.00  0.00    +0.000 C 
ATOM     12  C   UNL     1       1.955   8.879  18.039  0.00  0.00    +0.000 C 
ATOM     13  C   UNL     1       2.135   7.452  18.549  0.00  0.00    +0.000 C 
ATOM     14  C   UNL     1       2.357   7.433  20.062  0.00  0.00    +0.000 C 
ATOM     15  C   UNL     1       1.147   8.055  20.760  0.00  0.00    +0.000 C 
ATOM     16  C   UNL     1       0.937   9.496  20.308  0.00  0.00    +0.000 C 
BRANCH  11  18
ATOM     17  C   UNL     1       0.437  11.930  19.524  0.00  0.00    +0.000 C 
ATOM     18  O   UNL     1       1.056  11.091  18.563  0.00  0.00    +0.000 OA
ENDBRANCH  11  18
ENDBRANCH   7  14
ENDBRANCH   1   8
BRANCH   5  19
ATOM     19  N   UNL     1       4.295   3.540  19.692  0.00  0.00    +0.000 N 
ATOM     20  C   UNL     1       4.080   3.669  18.327  0.00  0.00    +0.000 C 
ATOM     21  O   UNL     1       3.012   3.425  17.766  0.00  0.00    +0.000 OA
ATOM     22  H   UNL     1       5.229   3.744  20.048  0.00  0.00    +0.000 HD
BRANCH  20  23
ATOM     23  C   UNL     1       5.229   4.122  17.565  0.00  0.00    +0.000 A 
ATOM     24  C   UNL     1       6.436   4.637  17.999  0.00  0.00    +0.000 A 
ATOM     25  C   UNL     1       7.212   4.892  16.847  0.00  0.00    +0.000 A 
ATOM     26  C   UNL     1       6.447   4.512  15.761  0.00  0.00    +0.000 A 
ATOM     27  O   UNL     1       5.228   4.060  16.198  0.00  0.00    +0.000 OA
BRANCH  26  28
ATOM     28  C   UNL     1       6.682   4.464  14.320  0.00  0.00    +0.000 A 
ATOM     29  C   UNL     1       7.607   5.330  13.714  0.00  0.00    +0.000 A 
ATOM     30  C   UNL     1       7.877   5.249  12.343  0.00  0.00    +0.000 A 
ATOM     31  C   UNL     1       7.221   4.304  11.559  0.00  0.00    +0.000 A 
ATOM     32  C   UNL     1       6.290   3.448  12.141  0.00  0.00    +0.000 A 
ATOM     33  C   UNL     1       6.020   3.531  13.510  0.00  0.00    +0.000 A 
ENDBRANCH  26  28
ENDBRANCH  20  23
ENDBRANCH   5  19
TORSDOF 6
ENDMDL
MODEL 9
REMARK VINA RESULT:      -7.7      1.871      8.806
REMARK  Name = 
REMARK  7 active torsions:
REMARK  status: ('A' for Active; 'I' for Inactive)
REMARK    1  A    between atoms: C_1  and  O_2
REMARK    2  A    between atoms: O_2  and  C_3
REMARK    3  A    between atoms: C_6  and  N_7
REMARK    4  A    between atoms: C_8  and  C_10
REMARK    5  A    between atoms: C_14  and  N_15
REMARK    6  A    between atoms: C_16  and  C_18
REMARK    7  A    between atoms: C_21  and  C_22
REMARK                            x       y       z     vdW  Elec       q    Type
REMARK                         _______ _______ _______ _____ _____    ______ ____
ROOT
ATOM      1  C   UNL     1       2.491   3.038  19.496  0.00  0.00    +0.000 A 
ATOM      2  N   UNL     1       2.482   1.915  20.250  0.00  0.00    +0.000 NA
ATOM      3  N   UNL     1       1.909   2.304  21.399  0.00  0.00    +0.000 N 
ATOM      4  C   UNL     1       1.535   3.609  21.410  0.00  0.00    +0.000 A 
ATOM      5  C   UNL     1       1.883   4.135  20.189  0.00  0.00    +0.000 A 
ATOM      6  H   UNL     1       1.801   1.622  22.143  0.00  0.00    +0.000 HD
ENDROOT
BRANCH   1   8
ATOM      7  N   UNL     1       4.282   3.690  18.062  0.00  0.00    +0.000 N 
ATOM      8  C   UNL     1       3.072   3.023  18.144  0.00  0.00    +0.000 C 
ATOM      9  O   UNL     1       2.523   2.469  17.195  0.00  0.00    +0.000 OA
ATOM     10  H   UNL     1       4.655   4.004  18.956  0.00  0.00    +0.000 HD
BRANCH   7  14
ATOM     11  C   UNL     1       6.612   4.971  14.611  0.00  0.00    +0.000 C 
ATOM     12  C   UNL     1       5.160   4.495  14.450  0.00  0.00    +0.000 C 
ATOM     13  C   UNL     1       4.352   4.506  15.743  0.00  0.00    +0.000 C 
ATOM     14  C   UNL     1       5.081   3.749  16.854  0.00  0.00    +0.000 C 
ATOM     15  C   UNL     1       6.434   4.411  17.115  0.00  0.00    +0.000 C 
ATOM     16  C   UNL     1       7.298   4.401  15.860  0.00  0.00    +0.000 C 
BRANCH  11  18
ATOM     17  C   UNL     1       6.703   3.853  12.482  0.00  0.00    +0.000 C 
ATOM     18  O   UNL     1       7.412   4.542  13.499  0.00  0.00    +0.000 OA
ENDBRANCH  11  18
ENDBRANCH   7  14
ENDBRANCH   1   8
BRANCH   5  19
ATOM     19  N   UNL     1       1.684   5.438  19.749  0.00  0.00    +0.000 N 
ATOM     20  C   UNL     1       2.697   6.348  19.482  0.00  0.00    +0.000 C 
ATOM     21  O   UNL     1       3.898   6.108  19.608  0.00  0.00    +0.000 OA
ATOM     22  H   UNL     1       0.721   5.752  19.635  0.00  0.00    +0.000 HD
BRANCH  20  23
ATOM     23  C   UNL     1       2.248   7.652  19.031  0.00  0.00    +0.000 A 
ATOM     24  C   UNL     1       2.484   8.309  17.838  0.00  0.00    +0.000 A 
ATOM     25  C   UNL     1       1.790   9.538  17.902  0.00  0.00    +0.000 A 
ATOM     26  C   UNL     1       1.156   9.572  19.129  0.00  0.00    +0.000 A 
ATOM     27  O   UNL     1       1.451   8.429  19.827  0.00  0.00    +0.000 OA
BRANCH  26  28
ATOM     28  C   UNL     1       0.250  10.517  19.778  0.00  0.00    +0.000 A 
ATOM     29  C   UNL     1       0.570  11.075  21.027  0.00  0.00    +0.000 A 
ATOM     30  C   UNL     1      -0.267  12.023  21.625  0.00  0.00    +0.000 A 
ATOM     31  C   UNL     1      -1.438  12.422  20.986  0.00  0.00    +0.000 A 
ATOM     32  C   UNL     1      -1.778  11.867  19.755  0.00  0.00    +0.000 A 
ATOM     33  C   UNL     1      -0.942  10.918  19.158  0.00  0.00    +0.000 A 
ENDBRANCH  26  28
ENDBRANCH  20  23
ENDBRANCH   5  19
TORSDOF 6
ENDMDL
