MODEL 1
REMARK VINA RESULT:      -8.6      0.000      0.000
REMARK  Name = 
REMARK  3 active torsions:
REMARK  status: ('A' for Active; 'I' for Inactive)
REMARK    1  A    between atoms: C_2  and  C_3
REMARK    2  A    between atoms: C_18  and  C_20
REMARK    3  A    between atoms: C_20  and  C_21
REMARK                            x       y       z     vdW  Elec       q    Type
REMARK                         _______ _______ _______ _____ _____    ______ ____
ROOT
ATOM      1  O   UNL     1       5.380   3.595  16.354  0.00  0.00    +0.000 OA
ATOM      2  C   UNL     1       5.341   4.082  17.490  0.00  0.00    +0.000 C 
ATOM      3  N   UNL     1       4.356   3.717  18.428  0.00  0.00    +0.000 N 
ATOM      4  C   UNL     1       4.127   4.396  19.710  0.00  0.00    +0.000 C 
ATOM      5  C   UNL     1       2.684   4.907  19.941  0.00  0.00    +0.000 C 
ATOM      6  C   UNL     1       1.729   3.801  20.399  0.00  0.00    +0.000 C 
ATOM      7  C   UNL     1       1.162   2.992  19.234  0.00  0.00    +0.000 C 
ATOM      8  C   UNL     1       1.938   3.229  17.932  0.00  0.00    +0.000 C 
ATOM      9  C   UNL     1       3.382   2.696  18.040  0.00  0.00    +0.000 C 
ATOM     10  C   UNL     1       1.878   4.726  17.585  0.00  0.00    +0.000 C 
ATOM     11  N   UNL     1       2.139   5.584  18.750  0.00  0.00    +0.000 N 
ATOM     12  C   UNL     1       1.899   6.944  18.618  0.00  0.00    +0.000 C 
ATOM     13  O   UNL     1       1.465   7.422  17.563  0.00  0.00    +0.000 OA
ENDROOT
BRANCH   2  14
ATOM     14  C   UNL     1       6.371   5.124  17.827  0.00  0.00    +0.000 A 
ATOM     15  C   UNL     1       6.391   6.298  17.082  0.00  0.00    +0.000 A 
ATOM     16  C   UNL     1       7.281   7.301  17.456  0.00  0.00    +0.000 A 
ATOM     17  C   UNL     1       8.108   7.103  18.555  0.00  0.00    +0.000 A 
ATOM     18  C   UNL     1       8.047   5.889  19.218  0.00  0.00    +0.000 A 
ATOM     19  N   UNL     1       7.212   4.887  18.868  0.00  0.00    +0.000 NA
ENDBRANCH   2  14
BRANCH  12  20
ATOM     20  C   UNL     1       2.146   7.862  19.806  0.00  0.00    +0.000 C 
BRANCH  20  21
ATOM     21  C   UNL     1       1.270   9.090  19.803  0.00  0.00    +0.000 A 
ATOM     22  C   UNL     1       1.433  10.085  18.829  0.00  0.00    +0.000 A 
ATOM     23  C   UNL     1       0.626  11.228  18.836  0.00  0.00    +0.000 A 
ATOM     24  C   UNL     1      -0.353  11.388  19.815  0.00  0.00    +0.000 A 
ATOM     25  C   UNL     1      -0.523  10.409  20.790  0.00  0.00    +0.000 A 
ATOM     26  C   UNL     1       0.289   9.278  20.782  0.00  0.00    +0.000 A 
ATOM     27  F   UNL     1       0.110   8.355  21.738  0.00  0.00    +0.000 F 
ENDBRANCH  20  21
ENDBRANCH  12  20
TORSDOF 3
ENDMDL
MODEL 2
REMARK VINA RESULT:      -8.5      0.904      1.329
REMARK  Name = 
REMARK  3 active torsions:
REMARK  status: ('A' for Active; 'I' for Inactive)
REMARK    1  A    between atoms: C_2  and  C_3
REMARK    2  A    between atoms: C_18  and  C_20
REMARK    3  A    between atoms: C_20  and  C_21
REMARK                            x       y       z     vdW  Elec       q    Type
REMARK                         _______ _______ _______ _____ _____    ______ ____
ROOT
ATOM      1  O   UNL     1       5.182   3.645  16.344  0.00  0.00    +0.000 OA
ATOM      2  C   UNL     1       5.211   4.094  17.495  0.00  0.00    +0.000 C 
ATOM      3  N   UNL     1       4.245   3.745  18.459  0.00  0.00    +0.000 N 
ATOM      4  C   UNL     1       4.100   4.391  19.771  0.00  0.00    +0.000 C 
ATOM      5  C   UNL     1       2.694   4.963  20.076  0.00  0.00    +0.000 C 
ATOM      6  C   UNL     1       1.704   3.890  20.535  0.00  0.00    +0.000 C 
ATOM      7  C   UNL     1       1.052   3.150  19.369  0.00  0.00    +0.000 C 
ATOM      8  C   UNL     1       1.789   3.394  18.045  0.00  0.00    +0.000 C 
ATOM      9  C   UNL     1       3.207   2.788  18.078  0.00  0.00    +0.000 C 
ATOM     10  C   UNL     1       1.790   4.903  17.749  0.00  0.00    +0.000 C 
ATOM     11  N   UNL     1       2.138   5.706  18.930  0.00  0.00    +0.000 N 
ATOM     12  C   UNL     1       1.961   7.080  18.851  0.00  0.00    +0.000 C 
ATOM     13  O   UNL     1       1.512   7.614  17.831  0.00  0.00    +0.000 OA
ENDROOT
BRANCH   2  14
ATOM     14  C   UNL     1       6.303   5.073  17.824  0.00  0.00    +0.000 A 
ATOM     15  C   UNL     1       6.388   6.243  17.078  0.00  0.00    +0.000 A 
ATOM     16  C   UNL     1       7.339   7.192  17.445  0.00  0.00    +0.000 A 
ATOM     17  C   UNL     1       8.161   6.945  18.539  0.00  0.00    +0.000 A 
ATOM     18  C   UNL     1       8.032   5.736  19.202  0.00  0.00    +0.000 A 
ATOM     19  N   UNL     1       7.136   4.786  18.860  0.00  0.00    +0.000 NA
ENDBRANCH   2  14
BRANCH  12  20
ATOM     20  C   UNL     1       2.300   7.944  20.058  0.00  0.00    +0.000 C 
BRANCH  20  21
ATOM     21  C   UNL     1       1.194   8.898  20.438  0.00  0.00    +0.000 A 
ATOM     22  C   UNL     1       0.344   8.616  21.517  0.00  0.00    +0.000 A 
ATOM     23  C   UNL     1      -0.686   9.497  21.860  0.00  0.00    +0.000 A 
ATOM     24  C   UNL     1      -0.879  10.669  21.130  0.00  0.00    +0.000 A 
ATOM     25  C   UNL     1      -0.043  10.959  20.055  0.00  0.00    +0.000 A 
ATOM     26  C   UNL     1       0.976  10.074  19.714  0.00  0.00    +0.000 A 
ATOM     27  F   UNL     1       1.759  10.373  18.668  0.00  0.00    +0.000 F 
ENDBRANCH  20  21
ENDBRANCH  12  20
TORSDOF 3
ENDMDL
MODEL 3
REMARK VINA RESULT:      -7.8      3.241      6.853
REMARK  Name = 
REMARK  3 active torsions:
REMARK  status: ('A' for Active; 'I' for Inactive)
REMARK    1  A    between atoms: C_2  and  C_3
REMARK    2  A    between atoms: C_18  and  C_20
REMARK    3  A    between atoms: C_20  and  C_21
REMARK                            x       y       z     vdW  Elec       q    Type
REMARK                         _______ _______ _______ _____ _____    ______ ____
ROOT
ATOM      1  O   UNL     1       2.562   5.506  21.438  0.00  0.00    +0.000 OA
ATOM      2  C   UNL     1       2.259   5.673  20.251  0.00  0.00    +0.000 C 
ATOM      3  N   UNL     1       2.180   4.602  19.340  0.00  0.00    +0.000 N 
ATOM      4  C   UNL     1       2.028   4.748  17.886  0.00  0.00    +0.000 C 
ATOM      5  C   UNL     1       3.108   4.039  17.032  0.00  0.00    +0.000 C 
ATOM      6  C   UNL     1       2.847   2.540  16.872  0.00  0.00    +0.000 C 
ATOM      7  C   UNL     1       3.368   1.720  18.051  0.00  0.00    +0.000 C 
ATOM      8  C   UNL     1       3.700   2.599  19.264  0.00  0.00    +0.000 C 
ATOM      9  C   UNL     1       2.428   3.251  19.844  0.00  0.00    +0.000 C 
ATOM     10  C   UNL     1       4.766   3.629  18.854  0.00  0.00    +0.000 C 
ATOM     11  N   UNL     1       4.467   4.262  17.561  0.00  0.00    +0.000 N 
ATOM     12  C   UNL     1       5.455   5.042  16.980  0.00  0.00    +0.000 C 
ATOM     13  O   UNL     1       6.558   5.191  17.518  0.00  0.00    +0.000 OA
ENDROOT
BRANCH   2  14
ATOM     14  C   UNL     1       2.016   7.085  19.796  0.00  0.00    +0.000 A 
ATOM     15  C   UNL     1       2.493   7.468  18.548  0.00  0.00    +0.000 A 
ATOM     16  C   UNL     1       2.184   8.746  18.088  0.00  0.00    +0.000 A 
ATOM     17  C   UNL     1       1.411   9.587  18.880  0.00  0.00    +0.000 A 
ATOM     18  C   UNL     1       1.008   9.136  20.125  0.00  0.00    +0.000 A 
ATOM     19  N   UNL     1       1.308   7.912  20.611  0.00  0.00    +0.000 NA
ENDBRANCH   2  14
BRANCH  12  20
ATOM     20  C   UNL     1       5.186   5.705  15.637  0.00  0.00    +0.000 C 
BRANCH  20  21
ATOM     21  C   UNL     1       5.693   4.904  14.463  0.00  0.00    +0.000 A 
ATOM     22  C   UNL     1       4.832   4.061  13.745  0.00  0.00    +0.000 A 
ATOM     23  C   UNL     1       5.307   3.312  12.665  0.00  0.00    +0.000 A 
ATOM     24  C   UNL     1       6.647   3.396  12.288  0.00  0.00    +0.000 A 
ATOM     25  C   UNL     1       7.513   4.226  12.995  0.00  0.00    +0.000 A 
ATOM     26  C   UNL     1       7.035   4.964  14.074  0.00  0.00    +0.000 A 
ATOM     27  F   UNL     1       7.892   5.748  14.744  0.00  0.00    +0.000 F 
ENDBRANCH  20  21
ENDBRANCH  12  20
TORSDOF 3
ENDMDL
MODEL 4
REMARK VINA RESULT:      -7.8      1.145      1.643
REMARK  Name = 
REMARK  3 active torsions:
REMARK  status: ('A' for Active; 'I' for Inactive)
REMARK    1  A    between atoms: C_2  and  C_3
REMARK    2  A    between atoms: C_18  and  C_20
REMARK    3  A    between atoms: C_20  and  C_21
REMARK                            x       y       z     vdW  Elec       q    Type
REMARK                         _______ _______ _______ _____ _____    ______ ____
ROOT
ATOM      1  O   UNL     1       5.357   4.026  16.315  0.00  0.00    +0.000 OA
ATOM      2  C   UNL     1       5.317   4.522  17.446  0.00  0.00    +0.000 C 
ATOM      3  N   UNL     1       4.371   4.117  18.408  0.00  0.00    +0.000 N 
ATOM      4  C   UNL     1       4.135   4.797  19.689  0.00  0.00    +0.000 C 
ATOM      5  C   UNL     1       2.672   5.236  19.946  0.00  0.00    +0.000 C 
ATOM      6  C   UNL     1       1.785   4.088  20.434  0.00  0.00    +0.000 C 
ATOM      7  C   UNL     1       1.236   3.239  19.289  0.00  0.00    +0.000 C 
ATOM      8  C   UNL     1       1.972   3.502  17.968  0.00  0.00    +0.000 C 
ATOM      9  C   UNL     1       3.443   3.044  18.051  0.00  0.00    +0.000 C 
ATOM     10  C   UNL     1       1.828   4.990  17.609  0.00  0.00    +0.000 C 
ATOM     11  N   UNL     1       2.069   5.872  18.760  0.00  0.00    +0.000 N 
ATOM     12  C   UNL     1       1.757   7.216  18.620  0.00  0.00    +0.000 C 
ATOM     13  O   UNL     1       1.277   7.661  17.571  0.00  0.00    +0.000 OA
ENDROOT
BRANCH   2  14
ATOM     14  C   UNL     1       6.298   5.619  17.752  0.00  0.00    +0.000 A 
ATOM     15  C   UNL     1       7.226   5.411  18.766  0.00  0.00    +0.000 A 
ATOM     16  C   UNL     1       8.195   6.388  18.984  0.00  0.00    +0.000 A 
ATOM     17  C   UNL     1       8.208   7.525  18.184  0.00  0.00    +0.000 A 
ATOM     18  C   UNL     1       7.224   7.666  17.220  0.00  0.00    +0.000 A 
ATOM     19  N   UNL     1       6.258   6.749  16.998  0.00  0.00    +0.000 NA
ENDBRANCH   2  14
BRANCH  12  20
ATOM     20  C   UNL     1       1.981   8.158  19.794  0.00  0.00    +0.000 C 
BRANCH  20  21
ATOM     21  C   UNL     1       1.083   9.371  19.767  0.00  0.00    +0.000 A 
ATOM     22  C   UNL     1      -0.022   9.463  20.625  0.00  0.00    +0.000 A 
ATOM     23  C   UNL     1      -0.859  10.582  20.591  0.00  0.00    +0.000 A 
ATOM     24  C   UNL     1      -0.601  11.623  19.699  0.00  0.00    +0.000 A 
ATOM     25  C   UNL     1       0.491  11.542  18.839  0.00  0.00    +0.000 A 
ATOM     26  C   UNL     1       1.316  10.421  18.874  0.00  0.00    +0.000 A 
ATOM     27  F   UNL     1       2.355  10.365  18.028  0.00  0.00    +0.000 F 
ENDBRANCH  20  21
ENDBRANCH  12  20
TORSDOF 3
ENDMDL
MODEL 5
REMARK VINA RESULT:      -7.7      3.120      6.786
REMARK  Name = 
REMARK  3 active torsions:
REMARK  status: ('A' for Active; 'I' for Inactive)
REMARK    1  A    between atoms: C_2  and  C_3
REMARK    2  A    between atoms: C_18  and  C_20
REMARK    3  A    between atoms: C_20  and  C_21
REMARK                            x       y       z     vdW  Elec       q    Type
REMARK                         _______ _______ _______ _____ _____    ______ ____
ROOT
ATOM      1  O   UNL     1       2.467   4.993  21.768  0.00  0.00    +0.000 OA
ATOM      2  C   UNL     1       2.156   5.213  20.592  0.00  0.00    +0.000 C 
ATOM      3  N   UNL     1       2.134   4.193  19.620  0.00  0.00    +0.000 N 
ATOM      4  C   UNL     1       1.975   4.415  18.176  0.00  0.00    +0.000 C 
ATOM      5  C   UNL     1       3.091   3.813  17.287  0.00  0.00    +0.000 C 
ATOM      6  C   UNL     1       2.909   2.314  17.039  0.00  0.00    +0.000 C 
ATOM      7  C   UNL     1       3.471   1.456  18.172  0.00  0.00    +0.000 C 
ATOM      8  C   UNL     1       3.756   2.279  19.435  0.00  0.00    +0.000 C 
ATOM      9  C   UNL     1       2.451   2.830  20.046  0.00  0.00    +0.000 C 
ATOM     10  C   UNL     1       4.767   3.385  19.088  0.00  0.00    +0.000 C 
ATOM     11  N   UNL     1       4.436   4.075  17.833  0.00  0.00    +0.000 N 
ATOM     12  C   UNL     1       5.383   4.938  17.301  0.00  0.00    +0.000 C 
ATOM     13  O   UNL     1       6.476   5.113  17.851  0.00  0.00    +0.000 OA
ENDROOT
BRANCH   2  14
ATOM     14  C   UNL     1       1.840   6.634  20.218  0.00  0.00    +0.000 A 
ATOM     15  C   UNL     1       1.096   7.401  21.108  0.00  0.00    +0.000 A 
ATOM     16  C   UNL     1       0.885   8.743  20.804  0.00  0.00    +0.000 A 
ATOM     17  C   UNL     1       1.425   9.272  19.638  0.00  0.00    +0.000 A 
ATOM     18  C   UNL     1       2.123   8.426  18.791  0.00  0.00    +0.000 A 
ATOM     19  N   UNL     1       2.327   7.116  19.043  0.00  0.00    +0.000 NA
ENDBRANCH   2  14
BRANCH  12  20
ATOM     20  C   UNL     1       5.080   5.663  15.997  0.00  0.00    +0.000 C 
BRANCH  20  21
ATOM     21  C   UNL     1       5.649   4.970  14.783  0.00  0.00    +0.000 A 
ATOM     22  C   UNL     1       4.845   4.138  13.991  0.00  0.00    +0.000 A 
ATOM     23  C   UNL     1       5.377   3.489  12.873  0.00  0.00    +0.000 A 
ATOM     24  C   UNL     1       6.718   3.663  12.533  0.00  0.00    +0.000 A 
ATOM     25  C   UNL     1       7.528   4.483  13.314  0.00  0.00    +0.000 A 
ATOM     26  C   UNL     1       6.993   5.121  14.430  0.00  0.00    +0.000 A 
ATOM     27  F   UNL     1       7.798   5.897  15.170  0.00  0.00    +0.000 F 
ENDBRANCH  20  21
ENDBRANCH  12  20
TORSDOF 3
ENDMDL
MODEL 6
REMARK VINA RESULT:      -7.4      3.089      6.766
REMARK  Name = 
REMARK  3 active torsions:
REMARK  status: ('A' for Active; 'I' for Inactive)
REMARK    1  A    between atoms: C_2  and  C_3
REMARK    2  A    between atoms: C_18  and  C_20
REMARK    3  A    between atoms: C_20  and  C_21
REMARK                            x       y       z     vdW  Elec       q    Type
REMARK                         _______ _______ _______ _____ _____    ______ ____
ROOT
ATOM      1  O   UNL     1       2.571   5.327  21.563  0.00  0.00    +0.000 OA
ATOM      2  C   UNL     1       2.265   5.515  20.380  0.00  0.00    +0.000 C 
ATOM      3  N   UNL     1       2.201   4.462  19.447  0.00  0.00    +0.000 N 
ATOM      4  C   UNL     1       2.045   4.636  17.996  0.00  0.00    +0.000 C 
ATOM      5  C   UNL     1       3.134   3.961  17.127  0.00  0.00    +0.000 C 
ATOM      6  C   UNL     1       2.896   2.462  16.935  0.00  0.00    +0.000 C 
ATOM      7  C   UNL     1       3.430   1.626  18.097  0.00  0.00    +0.000 C 
ATOM      8  C   UNL     1       3.751   2.484  19.328  0.00  0.00    +0.000 C 
ATOM      9  C   UNL     1       2.470   3.104  19.922  0.00  0.00    +0.000 C 
ATOM     10  C   UNL     1       4.801   3.538  18.938  0.00  0.00    +0.000 C 
ATOM     11  N   UNL     1       4.490   4.193  17.659  0.00  0.00    +0.000 N 
ATOM     12  C   UNL     1       5.465   5.001  17.093  0.00  0.00    +0.000 C 
ATOM     13  O   UNL     1       6.567   5.155  17.633  0.00  0.00    +0.000 OA
ENDROOT
BRANCH   2  14
ATOM     14  C   UNL     1       1.999   6.932  19.955  0.00  0.00    +0.000 A 
ATOM     15  C   UNL     1       2.430   7.336  18.697  0.00  0.00    +0.000 A 
ATOM     16  C   UNL     1       2.100   8.619  18.267  0.00  0.00    +0.000 A 
ATOM     17  C   UNL     1       1.352   9.444  19.097  0.00  0.00    +0.000 A 
ATOM     18  C   UNL     1       0.995   8.973  20.350  0.00  0.00    +0.000 A 
ATOM     19  N   UNL     1       1.317   7.744  20.806  0.00  0.00    +0.000 NA
ENDBRANCH   2  14
BRANCH  12  20
ATOM     20  C   UNL     1       5.185   5.687  15.764  0.00  0.00    +0.000 C 
BRANCH  20  21
ATOM     21  C   UNL     1       5.953   5.092  14.610  0.00  0.00    +0.000 A 
ATOM     22  C   UNL     1       7.229   5.569  14.277  0.00  0.00    +0.000 A 
ATOM     23  C   UNL     1       7.934   5.022  13.200  0.00  0.00    +0.000 A 
ATOM     24  C   UNL     1       7.374   3.992  12.446  0.00  0.00    +0.000 A 
ATOM     25  C   UNL     1       6.107   3.512  12.765  0.00  0.00    +0.000 A 
ATOM     26  C   UNL     1       5.407   4.066  13.833  0.00  0.00    +0.000 A 
ATOM     27  F   UNL     1       4.185   3.591  14.113  0.00  0.00    +0.000 F 
ENDBRANCH  20  21
ENDBRANCH  12  20
TORSDOF 3
ENDMDL
MODEL 7
REMARK VINA RESULT:      -7.2      2.543      6.023
REMARK  Name = 
REMARK  3 active torsions:
REMARK  status: ('A' for Active; 'I' for Inactive)
REMARK    1  A    between atoms: C_2  and  C_3
REMARK    2  A    between atoms: C_18  and  C_20
REMARK    3  A    between atoms: C_20  and  C_21
REMARK                            x       y       z     vdW  Elec       q    Type
REMARK                         _______ _______ _______ _____ _____    ______ ____
ROOT
ATOM      1  O   UNL     1       3.086   8.046  16.670  0.00  0.00    +0.000 OA
ATOM      2  C   UNL     1       3.560   7.402  17.613  0.00  0.00    +0.000 C 
ATOM      3  N   UNL     1       4.814   6.767  17.531  0.00  0.00    +0.000 N 
ATOM      4  C   UNL     1       5.343   5.825  18.526  0.00  0.00    +0.000 C 
ATOM      5  C   UNL     1       5.765   4.441  17.972  0.00  0.00    +0.000 C 
ATOM      6  C   UNL     1       7.145   4.462  17.312  0.00  0.00    +0.000 C 
ATOM      7  C   UNL     1       7.098   4.932  15.859  0.00  0.00    +0.000 C 
ATOM      8  C   UNL     1       5.764   5.605  15.511  0.00  0.00    +0.000 C 
ATOM      9  C   UNL     1       5.584   6.921  16.296  0.00  0.00    +0.000 C 
ATOM     10  C   UNL     1       4.624   4.602  15.756  0.00  0.00    +0.000 C 
ATOM     11  N   UNL     1       4.765   3.893  17.036  0.00  0.00    +0.000 N 
ATOM     12  C   UNL     1       3.928   2.813  17.271  0.00  0.00    +0.000 C 
ATOM     13  O   UNL     1       3.099   2.444  16.431  0.00  0.00    +0.000 OA
ENDROOT
BRANCH   2  14
ATOM     14  C   UNL     1       2.720   7.281  18.854  0.00  0.00    +0.000 A 
ATOM     15  C   UNL     1       2.705   6.064  19.526  0.00  0.00    +0.000 A 
ATOM     16  C   UNL     1       2.004   5.982  20.726  0.00  0.00    +0.000 A 
ATOM     17  C   UNL     1       1.354   7.110  21.214  0.00  0.00    +0.000 A 
ATOM     18  C   UNL     1       1.391   8.272  20.461  0.00  0.00    +0.000 A 
ATOM     19  N   UNL     1       2.043   8.379  19.284  0.00  0.00    +0.000 NA
ENDBRANCH   2  14
BRANCH  12  20
ATOM     20  C   UNL     1       4.052   2.046  18.580  0.00  0.00    +0.000 C 
BRANCH  20  21
ATOM     21  C   UNL     1       2.936   2.340  19.552  0.00  0.00    +0.000 A 
ATOM     22  C   UNL     1       1.644   2.631  19.093  0.00  0.00    +0.000 A 
ATOM     23  C   UNL     1       0.614   2.913  19.995  0.00  0.00    +0.000 A 
ATOM     24  C   UNL     1       0.863   2.908  21.367  0.00  0.00    +0.000 A 
ATOM     25  C   UNL     1       2.142   2.623  21.836  0.00  0.00    +0.000 A 
ATOM     26  C   UNL     1       3.164   2.350  20.932  0.00  0.00    +0.000 A 
ATOM     27  F   UNL     1       4.390   2.089  21.410  0.00  0.00    +0.000 F 
ENDBRANCH  20  21
ENDBRANCH  12  20
TORSDOF 3
ENDMDL
MODEL 8
REMARK VINA RESULT:      -7.1      8.062     10.964
REMARK  Name = 
REMARK  3 active torsions:
REMARK  status: ('A' for Active; 'I' for Inactive)
REMARK    1  A    between atoms: C_2  and  C_3
REMARK    2  A    between atoms: C_18  and  C_20
REMARK    3  A    between atoms: C_20  and  C_21
REMARK                            x       y       z     vdW  Elec       q    Type
REMARK                         _______ _______ _______ _____ _____    ______ ____
ROOT
ATOM      1  O   UNL     1      -4.084  12.159  24.301  0.00  0.00    +0.000 OA
ATOM      2  C   UNL     1      -3.824  12.827  23.295  0.00  0.00    +0.000 C 
ATOM      3  N   UNL     1      -4.783  13.651  22.674  0.00  0.00    +0.000 N 
ATOM      4  C   UNL     1      -4.606  14.308  21.371  0.00  0.00    +0.000 C 
ATOM      5  C   UNL     1      -5.703  14.002  20.321  0.00  0.00    +0.000 C 
ATOM      6  C   UNL     1      -6.970  14.834  20.527  0.00  0.00    +0.000 C 
ATOM      7  C   UNL     1      -7.915  14.224  21.561  0.00  0.00    +0.000 C 
ATOM      8  C   UNL     1      -7.230  13.137  22.400  0.00  0.00    +0.000 C 
ATOM      9  C   UNL     1      -6.112  13.735  23.279  0.00  0.00    +0.000 C 
ATOM     10  C   UNL     1      -6.725  12.030  21.461  0.00  0.00    +0.000 C 
ATOM     11  N   UNL     1      -6.042  12.567  20.276  0.00  0.00    +0.000 N 
ATOM     12  C   UNL     1      -5.735  11.684  19.251  0.00  0.00    +0.000 C 
ATOM     13  O   UNL     1      -6.039  10.488  19.319  0.00  0.00    +0.000 OA
ENDROOT
BRANCH   2  14
ATOM     14  C   UNL     1      -2.440  12.697  22.722  0.00  0.00    +0.000 A 
ATOM     15  C   UNL     1      -1.838  11.444  22.727  0.00  0.00    +0.000 A 
ATOM     16  C   UNL     1      -0.597  11.306  22.111  0.00  0.00    +0.000 A 
ATOM     17  C   UNL     1      -0.007  12.412  21.510  0.00  0.00    +0.000 A 
ATOM     18  C   UNL     1      -0.662  13.631  21.584  0.00  0.00    +0.000 A 
ATOM     19  N   UNL     1      -1.854  13.804  22.192  0.00  0.00    +0.000 NA
ENDBRANCH   2  14
BRANCH  12  20
ATOM     20  C   UNL     1      -5.037  12.206  18.003  0.00  0.00    +0.000 C 
BRANCH  20  21
ATOM     21  C   UNL     1      -3.799  11.423  17.640  0.00  0.00    +0.000 A 
ATOM     22  C   UNL     1      -3.796  10.556  16.539  0.00  0.00    +0.000 A 
ATOM     23  C   UNL     1      -2.651   9.824  16.211  0.00  0.00    +0.000 A 
ATOM     24  C   UNL     1      -1.495   9.951  16.980  0.00  0.00    +0.000 A 
ATOM     25  C   UNL     1      -1.485  10.806  18.079  0.00  0.00    +0.000 A 
ATOM     26  C   UNL     1      -2.631  11.526  18.403  0.00  0.00    +0.000 A 
ATOM     27  F   UNL     1      -2.598  12.335  19.472  0.00  0.00    +0.000 F 
ENDBRANCH  20  21
ENDBRANCH  12  20
TORSDOF 3
ENDMDL
MODEL 9
REMARK VINA RESULT:      -7.0      7.900     10.989
REMARK  Name = 
REMARK  3 active torsions:
REMARK  status: ('A' for Active; 'I' for Inactive)
REMARK    1  A    between atoms: C_2  and  C_3
REMARK    2  A    between atoms: C_18  and  C_20
REMARK    3  A    between atoms: C_20  and  C_21
REMARK                            x       y       z     vdW  Elec       q    Type
REMARK                         _______ _______ _______ _____ _____    ______ ____
ROOT
ATOM      1  O   UNL     1      -4.299  12.141  24.094  0.00  0.00    +0.000 OA
ATOM      2  C   UNL     1      -3.973  12.746  23.067  0.00  0.00    +0.000 C 
ATOM      3  N   UNL     1      -4.853  13.622  22.403  0.00  0.00    +0.000 N 
ATOM      4  C   UNL     1      -4.608  14.212  21.079  0.00  0.00    +0.000 C 
ATOM      5  C   UNL     1      -5.715  13.959  20.026  0.00  0.00    +0.000 C 
ATOM      6  C   UNL     1      -6.910  14.901  20.183  0.00  0.00    +0.000 C 
ATOM      7  C   UNL     1      -7.914  14.412  21.226  0.00  0.00    +0.000 C 
ATOM      8  C   UNL     1      -7.332  13.304  22.115  0.00  0.00    +0.000 C 
ATOM      9  C   UNL     1      -6.177  13.840  22.986  0.00  0.00    +0.000 C 
ATOM     10  C   UNL     1      -6.911  12.123  21.224  0.00  0.00    +0.000 C 
ATOM     11  N   UNL     1      -6.172  12.556  20.030  0.00  0.00    +0.000 N 
ATOM     12  C   UNL     1      -5.930  11.613  19.043  0.00  0.00    +0.000 C 
ATOM     13  O   UNL     1      -6.333  10.449  19.151  0.00  0.00    +0.000 OA
ENDROOT
BRANCH   2  14
ATOM     14  C   UNL     1      -2.599  12.480  22.519  0.00  0.00    +0.000 A 
ATOM     15  C   UNL     1      -2.043  13.410  21.648  0.00  0.00    +0.000 A 
ATOM     16  C   UNL     1      -0.734  13.210  21.217  0.00  0.00    +0.000 A 
ATOM     17  C   UNL     1      -0.029  12.102  21.671  0.00  0.00    +0.000 A 
ATOM     18  C   UNL     1      -0.673  11.207  22.509  0.00  0.00    +0.000 A 
ATOM     19  N   UNL     1      -1.947  11.359  22.929  0.00  0.00    +0.000 NA
ENDBRANCH   2  14
BRANCH  12  20
ATOM     20  C   UNL     1      -5.177  12.026  17.786  0.00  0.00    +0.000 C 
BRANCH  20  21
ATOM     21  C   UNL     1      -3.831  11.359  17.650  0.00  0.00    +0.000 A 
ATOM     22  C   UNL     1      -2.841  11.536  18.627  0.00  0.00    +0.000 A 
ATOM     23  C   UNL     1      -1.591  10.925  18.493  0.00  0.00    +0.000 A 
ATOM     24  C   UNL     1      -1.315  10.129  17.382  0.00  0.00    +0.000 A 
ATOM     25  C   UNL     1      -2.288   9.948  16.403  0.00  0.00    +0.000 A 
ATOM     26  C   UNL     1      -3.528  10.565  16.539  0.00  0.00    +0.000 A 
ATOM     27  F   UNL     1      -4.443  10.382  15.576  0.00  0.00    +0.000 F 
ENDBRANCH  20  21
ENDBRANCH  12  20
TORSDOF 3
ENDMDL
