MODEL 1
REMARK VINA RESULT:      -7.0      0.000      0.000
REMARK  Name = 
REMARK  10 active torsions:
REMARK  status: ('A' for Active; 'I' for Inactive)
REMARK    1  A    between atoms: CB_1  and  CA_2
REMARK    2  A    between atoms: CA_2  and  N_3
REMARK    3  A    between atoms: CA_2  and  C_17
REMARK    4  A    between atoms: C_4  and  C_6
REMARK    5  A    between atoms: C_6  and  C_7
REMARK    6  A    between atoms: C_6  and  C_9
REMARK    7  A    between atoms: C_7  and  S_8
REMARK    8  A    between atoms: C_9  and  C_10
REMARK    9  A    between atoms: CA_23  and  C_24
REMARK   10  A    between atoms: C_24  and  OXT_26
REMARK                            x       y       z     vdW  Elec       q    Type
REMARK                         _______ _______ _______ _____ _____    ______ ____
ROOT
ATOM      1  N   ALA A   1       4.387   6.814  17.970  0.00  0.00    +0.000 N 
ATOM      2  C   UNK A   0       5.527   6.148  18.377  0.00  0.00    +0.000 C 
ATOM      3  O   UNK A   0       5.578   5.478  19.403  0.00  0.00    +0.000 OA
ATOM      4  H   ALA A   1       4.443   7.540  17.264  0.00  0.00    +0.000 HD
ENDROOT
BRANCH   1   6
ATOM      5  CB  ALA A   1       2.109   7.677  18.203  0.00  0.00    +0.000 C 
ATOM      6  CA  ALA A   1       3.103   6.607  18.642  0.00  0.00    +0.000 C 
BRANCH   6   7
ATOM      7  C   ALA A   1       2.548   5.172  18.428  0.00  0.00    +0.000 C 
ATOM      8  O   ALA A   1       2.259   4.728  17.311  0.00  0.00    +0.000 OA
ATOM      9  N   PRO A   2       2.280   4.396  19.544  0.00  0.00    +0.000 N 
ATOM     10  CD  PRO A   2       2.118   4.859  20.911  0.00  0.00    +0.000 C 
ATOM     11  CG  PRO A   2       2.205   3.572  21.708  0.00  0.00    +0.000 C 
ATOM     12  CB  PRO A   2       1.411   2.597  20.846  0.00  0.00    +0.000 C 
ATOM     13  CA  PRO A   2       1.671   3.069  19.399  0.00  0.00    +0.000 C 
BRANCH  13  14
ATOM     14  C   PRO A   2       2.549   2.064  18.643  0.00  0.00    +0.000 C 
ATOM     15  O   PRO A   2       3.623   1.634  19.037  0.00  0.00    +0.000 OA
BRANCH  14  16
ATOM     16  OXT PRO A   2       2.026   1.708  17.442  0.00  0.00    +0.000 OA
ATOM     17  HXT PRO A   2       1.953   0.729  17.358  0.00  0.00    +0.000 HD
ENDBRANCH  14  16
ENDBRANCH  13  14
ENDBRANCH   6   7
ENDBRANCH   1   6
BRANCH   2  18
ATOM     18  C   UNK A   0       6.702   6.305  17.416  0.00  0.00    +0.000 C 
BRANCH  18  19
ATOM     19  C   UNK A   0       7.881   7.012  18.094  0.00  0.00    +0.000 C 
BRANCH  19  20
ATOM     20  S   UNK A   0       7.959   8.806  17.775  0.00  0.00    +0.000 S 
ATOM     21  H   UNK A   0       8.344   9.182  19.003  0.00  0.00    +0.000 HD
ENDBRANCH  19  20
ENDBRANCH  18  19
BRANCH  18  22
ATOM     22  C   UNK A   0       7.162   4.919  16.904  0.00  0.00    +0.000 C 
BRANCH  22  23
ATOM     23  C   UNK A   0       6.903   4.640  15.432  0.00  0.00    +0.000 A 
ATOM     24  C   UNK A   0       7.778   5.206  14.483  0.00  0.00    +0.000 A 
ATOM     25  C   UNK A   0       7.604   4.983  13.115  0.00  0.00    +0.000 A 
ATOM     26  C   UNK A   0       6.555   4.186  12.667  0.00  0.00    +0.000 A 
ATOM     27  C   UNK A   0       5.671   3.630  13.589  0.00  0.00    +0.000 A 
ATOM     28  C   UNK A   0       5.833   3.866  14.960  0.00  0.00    +0.000 A 
ATOM     29 CL   UNK A   0       4.657   3.179  16.022  0.00  0.00    +0.000 Cl
ENDBRANCH  22  23
ENDBRANCH  18  22
ENDBRANCH   2  18
TORSDOF 9
ENDMDL
MODEL 2
REMARK VINA RESULT:      -6.8      4.101      7.108
REMARK  Name = 
REMARK  10 active torsions:
REMARK  status: ('A' for Active; 'I' for Inactive)
REMARK    1  A    between atoms: CB_1  and  CA_2
REMARK    2  A    between atoms: CA_2  and  N_3
REMARK    3  A    between atoms: CA_2  and  C_17
REMARK    4  A    between atoms: C_4  and  C_6
REMARK    5  A    between atoms: C_6  and  C_7
REMARK    6  A    between atoms: C_6  and  C_9
REMARK    7  A    between atoms: C_7  and  S_8
REMARK    8  A    between atoms: C_9  and  C_10
REMARK    9  A    between atoms: CA_23  and  C_24
REMARK   10  A    between atoms: C_24  and  OXT_26
REMARK                            x       y       z     vdW  Elec       q    Type
REMARK                         _______ _______ _______ _____ _____    ______ ____
ROOT
ATOM      1  N   ALA A   1       2.870   7.009  18.711  0.00  0.00    +0.000 N 
ATOM      2  C   UNK A   0       2.163   8.137  18.343  0.00  0.00    +0.000 C 
ATOM      3  O   UNK A   0       2.299   8.684  17.253  0.00  0.00    +0.000 OA
ATOM      4  H   ALA A   1       2.914   6.730  19.685  0.00  0.00    +0.000 HD
ENDROOT
BRANCH   1   6
ATOM      5  CB  ALA A   1       4.959   7.072  17.439  0.00  0.00    +0.000 C 
ATOM      6  CA  ALA A   1       3.694   6.278  17.748  0.00  0.00    +0.000 C 
BRANCH   6   7
ATOM      7  C   ALA A   1       4.013   4.832  18.220  0.00  0.00    +0.000 C 
ATOM      8  O   ALA A   1       5.168   4.420  18.374  0.00  0.00    +0.000 OA
ATOM      9  N   PRO A   2       2.961   3.945  18.384  0.00  0.00    +0.000 N 
ATOM     10  CD  PRO A   2       1.619   4.073  17.843  0.00  0.00    +0.000 C 
ATOM     11  CG  PRO A   2       0.846   3.033  18.629  0.00  0.00    +0.000 C 
ATOM     12  CB  PRO A   2       1.829   1.869  18.692  0.00  0.00    +0.000 C 
ATOM     13  CA  PRO A   2       3.217   2.545  18.740  0.00  0.00    +0.000 C 
BRANCH  13  14
ATOM     14  C   PRO A   2       3.867   2.366  20.118  0.00  0.00    +0.000 C 
ATOM     15  O   PRO A   2       3.319   2.587  21.187  0.00  0.00    +0.000 OA
BRANCH  14  16
ATOM     16  OXT PRO A   2       5.159   1.959  20.039  0.00  0.00    +0.000 OA
ATOM     17  HXT PRO A   2       5.241   1.115  19.536  0.00  0.00    +0.000 HD
ENDBRANCH  14  16
ENDBRANCH  13  14
ENDBRANCH   6   7
ENDBRANCH   1   6
BRANCH   2  18
ATOM     18  C   UNK A   0       1.180   8.618  19.407  0.00  0.00    +0.000 C 
BRANCH  18  19
ATOM     19  C   UNK A   0       1.665   8.249  20.814  0.00  0.00    +0.000 C 
BRANCH  19  20
ATOM     20  S   UNK A   0       0.889   9.220  22.149  0.00  0.00    +0.000 S 
ATOM     21  H   UNK A   0       0.663  10.336  21.440  0.00  0.00    +0.000 HD
ENDBRANCH  19  20
ENDBRANCH  18  19
BRANCH  18  22
ATOM     22  C   UNK A   0       1.000  10.152  19.313  0.00  0.00    +0.000 C 
BRANCH  22  23
ATOM     23  C   UNK A   0      -0.385  10.629  18.905  0.00  0.00    +0.000 A 
ATOM     24  C   UNK A   0      -1.001  10.014  17.796  0.00  0.00    +0.000 A 
ATOM     25  C   UNK A   0      -2.276  10.397  17.373  0.00  0.00    +0.000 A 
ATOM     26  C   UNK A   0      -2.964  11.400  18.050  0.00  0.00    +0.000 A 
ATOM     27  C   UNK A   0      -2.364  12.029  19.139  0.00  0.00    +0.000 A 
ATOM     28  C   UNK A   0      -1.080  11.659  19.556  0.00  0.00    +0.000 A 
ATOM     29 CL   UNK A   0      -0.399  12.532  20.881  0.00  0.00    +0.000 Cl
ENDBRANCH  22  23
ENDBRANCH  18  22
ENDBRANCH   2  18
TORSDOF 9
ENDMDL
MODEL 3
REMARK VINA RESULT:      -6.4      4.551      7.820
REMARK  Name = 
REMARK  10 active torsions:
REMARK  status: ('A' for Active; 'I' for Inactive)
REMARK    1  A    between atoms: CB_1  and  CA_2
REMARK    2  A    between atoms: CA_2  and  N_3
REMARK    3  A    between atoms: CA_2  and  C_17
REMARK    4  A    between atoms: C_4  and  C_6
REMARK    5  A    between atoms: C_6  and  C_7
REMARK    6  A    between atoms: C_6  and  C_9
REMARK    7  A    between atoms: C_7  and  S_8
REMARK    8  A    between atoms: C_9  and  C_10
REMARK    9  A    between atoms: CA_23  and  C_24
REMARK   10  A    between atoms: C_24  and  OXT_26
REMARK                            x       y       z     vdW  Elec       q    Type
REMARK                         _______ _______ _______ _____ _____    ______ ____
ROOT
ATOM      1  N   ALA A   1       2.281   7.970  19.067  0.00  0.00    +0.000 N 
ATOM      2  C   UNK A   0       1.901   9.066  18.315  0.00  0.00    +0.000 C 
ATOM      3  O   UNK A   0       1.964   9.088  17.091  0.00  0.00    +0.000 OA
ATOM      4  H   ALA A   1       2.444   8.067  20.063  0.00  0.00    +0.000 HD
ENDROOT
BRANCH   1   6
ATOM      5  CB  ALA A   1       3.930   6.801  17.689  0.00  0.00    +0.000 C 
ATOM      6  CA  ALA A   1       2.606   6.690  18.438  0.00  0.00    +0.000 C 
BRANCH   6   7
ATOM      7  C   ALA A   1       2.608   5.515  19.453  0.00  0.00    +0.000 C 
ATOM      8  O   ALA A   1       2.713   5.686  20.673  0.00  0.00    +0.000 OA
ATOM      9  N   PRO A   2       2.583   4.219  18.962  0.00  0.00    +0.000 N 
ATOM     10  CD  PRO A   2       2.906   3.791  17.613  0.00  0.00    +0.000 C 
ATOM     11  CG  PRO A   2       2.366   2.375  17.577  0.00  0.00    +0.000 C 
ATOM     12  CB  PRO A   2       2.753   1.840  18.952  0.00  0.00    +0.000 C 
ATOM     13  CA  PRO A   2       2.674   3.075  19.876  0.00  0.00    +0.000 C 
BRANCH  13  14
ATOM     14  C   PRO A   2       1.489   2.960  20.845  0.00  0.00    +0.000 C 
ATOM     15  O   PRO A   2       1.581   2.732  22.041  0.00  0.00    +0.000 OA
BRANCH  14  16
ATOM     16  OXT PRO A   2       0.290   3.106  20.227  0.00  0.00    +0.000 OA
ATOM     17  HXT PRO A   2      -0.212   2.258  20.212  0.00  0.00    +0.000 HD
ENDBRANCH  14  16
ENDBRANCH  13  14
ENDBRANCH   6   7
ENDBRANCH   1   6
BRANCH   2  18
ATOM     18  C   UNK A   0       1.373  10.228  19.152  0.00  0.00    +0.000 C 
BRANCH  18  19
ATOM     19  C   UNK A   0       1.653  11.572  18.470  0.00  0.00    +0.000 C 
BRANCH  19  20
ATOM     20  S   UNK A   0       1.998  12.938  19.628  0.00  0.00    +0.000 S 
ATOM     21  H   UNK A   0       0.824  13.573  19.499  0.00  0.00    +0.000 HD
ENDBRANCH  19  20
ENDBRANCH  18  19
BRANCH  18  22
ATOM     22  C   UNK A   0      -0.150  10.074  19.376  0.00  0.00    +0.000 C 
BRANCH  22  23
ATOM     23  C   UNK A   0      -0.673  10.573  20.715  0.00  0.00    +0.000 A 
ATOM     24  C   UNK A   0      -0.375   9.819  21.868  0.00  0.00    +0.000 A 
ATOM     25  C   UNK A   0      -0.816  10.224  23.130  0.00  0.00    +0.000 A 
ATOM     26  C   UNK A   0      -1.560  11.392  23.267  0.00  0.00    +0.000 A 
ATOM     27  C   UNK A   0      -1.877  12.142  22.137  0.00  0.00    +0.000 A 
ATOM     28  C   UNK A   0      -1.451  11.730  20.868  0.00  0.00    +0.000 A 
ATOM     29 CL   UNK A   0      -1.936  12.695  19.521  0.00  0.00    +0.000 Cl
ENDBRANCH  22  23
ENDBRANCH  18  22
ENDBRANCH   2  18
TORSDOF 9
ENDMDL
MODEL 4
REMARK VINA RESULT:      -6.4      1.126      1.126
REMARK  Name = 
REMARK  10 active torsions:
REMARK  status: ('A' for Active; 'I' for Inactive)
REMARK    1  A    between atoms: CB_1  and  CA_2
REMARK    2  A    between atoms: CA_2  and  N_3
REMARK    3  A    between atoms: CA_2  and  C_17
REMARK    4  A    between atoms: C_4  and  C_6
REMARK    5  A    between atoms: C_6  and  C_7
REMARK    6  A    between atoms: C_6  and  C_9
REMARK    7  A    between atoms: C_7  and  S_8
REMARK    8  A    between atoms: C_9  and  C_10
REMARK    9  A    between atoms: CA_23  and  C_24
REMARK   10  A    between atoms: C_24  and  OXT_26
REMARK                            x       y       z     vdW  Elec       q    Type
REMARK                         _______ _______ _______ _____ _____    ______ ____
ROOT
ATOM      1  N   ALA A   1       4.960   6.286  18.205  0.00  0.00    +0.000 N 
ATOM      2  C   UNK A   0       5.355   6.623  16.924  0.00  0.00    +0.000 C 
ATOM      3  O   UNK A   0       4.558   6.873  16.026  0.00  0.00    +0.000 OA
ATOM      4  H   ALA A   1       5.619   5.857  18.846  0.00  0.00    +0.000 HD
ENDROOT
BRANCH   1   6
ATOM      5  CB  ALA A   1       2.894   7.563  17.913  0.00  0.00    +0.000 C 
ATOM      6  CA  ALA A   1       3.562   6.391  18.624  0.00  0.00    +0.000 C 
BRANCH   6   7
ATOM      7  C   ALA A   1       2.781   5.064  18.421  0.00  0.00    +0.000 C 
ATOM      8  O   ALA A   1       2.419   4.666  17.309  0.00  0.00    +0.000 OA
ATOM      9  N   PRO A   2       2.398   4.347  19.543  0.00  0.00    +0.000 N 
ATOM     10  CD  PRO A   2       2.320   4.837  20.908  0.00  0.00    +0.000 C 
ATOM     11  CG  PRO A   2       2.202   3.557  21.713  0.00  0.00    +0.000 C 
ATOM     12  CB  PRO A   2       1.257   2.718  20.860  0.00  0.00    +0.000 C 
ATOM     13  CA  PRO A   2       1.582   3.135  19.409  0.00  0.00    +0.000 C 
BRANCH  13  14
ATOM     14  C   PRO A   2       2.283   1.997  18.656  0.00  0.00    +0.000 C 
ATOM     15  O   PRO A   2       3.259   1.383  19.060  0.00  0.00    +0.000 OA
BRANCH  14  16
ATOM     16  OXT PRO A   2       1.724   1.747  17.444  0.00  0.00    +0.000 OA
ATOM     17  HXT PRO A   2       0.783   2.038  17.416  0.00  0.00    +0.000 HD
ENDBRANCH  14  16
ENDBRANCH  13  14
ENDBRANCH   6   7
ENDBRANCH   1   6
BRANCH   2  18
ATOM     18  C   UNK A   0       6.869   6.679  16.746  0.00  0.00    +0.000 C 
BRANCH  18  19
ATOM     19  C   UNK A   0       7.561   7.145  18.033  0.00  0.00    +0.000 C 
BRANCH  19  20
ATOM     20  S   UNK A   0       7.997   5.794  19.177  0.00  0.00    +0.000 S 
ATOM     21  H   UNK A   0       8.782   6.509  19.996  0.00  0.00    +0.000 HD
ENDBRANCH  19  20
ENDBRANCH  18  19
BRANCH  18  22
ATOM     22  C   UNK A   0       7.412   5.286  16.349  0.00  0.00    +0.000 C 
BRANCH  22  23
ATOM     23  C   UNK A   0       7.087   4.830  14.935  0.00  0.00    +0.000 A 
ATOM     24  C   UNK A   0       7.837   5.372  13.872  0.00  0.00    +0.000 A 
ATOM     25  C   UNK A   0       7.598   4.990  12.549  0.00  0.00    +0.000 A 
ATOM     26  C   UNK A   0       6.606   4.057  12.262  0.00  0.00    +0.000 A 
ATOM     27  C   UNK A   0       5.844   3.522  13.298  0.00  0.00    +0.000 A 
ATOM     28  C   UNK A   0       6.071   3.915  14.623  0.00  0.00    +0.000 A 
ATOM     29 CL   UNK A   0       5.042   3.238  15.833  0.00  0.00    +0.000 Cl
ENDBRANCH  22  23
ENDBRANCH  18  22
ENDBRANCH   2  18
TORSDOF 9
ENDMDL
MODEL 5
REMARK VINA RESULT:      -6.3      4.197      7.059
REMARK  Name = 
REMARK  10 active torsions:
REMARK  status: ('A' for Active; 'I' for Inactive)
REMARK    1  A    between atoms: CB_1  and  CA_2
REMARK    2  A    between atoms: CA_2  and  N_3
REMARK    3  A    between atoms: CA_2  and  C_17
REMARK    4  A    between atoms: C_4  and  C_6
REMARK    5  A    between atoms: C_6  and  C_7
REMARK    6  A    between atoms: C_6  and  C_9
REMARK    7  A    between atoms: C_7  and  S_8
REMARK    8  A    between atoms: C_9  and  C_10
REMARK    9  A    between atoms: CA_23  and  C_24
REMARK   10  A    between atoms: C_24  and  OXT_26
REMARK                            x       y       z     vdW  Elec       q    Type
REMARK                         _______ _______ _______ _____ _____    ______ ____
ROOT
ATOM      1  N   ALA A   1       2.475   7.125  18.596  0.00  0.00    +0.000 N 
ATOM      2  C   UNK A   0       1.944   8.328  18.171  0.00  0.00    +0.000 C 
ATOM      3  O   UNK A   0       2.299   8.885  17.137  0.00  0.00    +0.000 OA
ATOM      4  H   ALA A   1       2.341   6.819  19.553  0.00  0.00    +0.000 HD
ENDROOT
BRANCH   1   6
ATOM      5  CB  ALA A   1       4.805   6.803  17.924  0.00  0.00    +0.000 C 
ATOM      6  CA  ALA A   1       3.364   6.339  17.740  0.00  0.00    +0.000 C 
BRANCH   6   7
ATOM      7  C   ALA A   1       3.209   4.811  17.971  0.00  0.00    +0.000 C 
ATOM      8  O   ALA A   1       3.374   3.980  17.071  0.00  0.00    +0.000 OA
ATOM      9  N   PRO A   2       2.777   4.372  19.212  0.00  0.00    +0.000 N 
ATOM     10  CD  PRO A   2       2.113   5.161  20.235  0.00  0.00    +0.000 C 
ATOM     11  CG  PRO A   2       2.214   4.271  21.458  0.00  0.00    +0.000 C 
ATOM     12  CB  PRO A   2       1.940   2.886  20.879  0.00  0.00    +0.000 C 
ATOM     13  CA  PRO A   2       2.529   2.947  19.453  0.00  0.00    +0.000 C 
BRANCH  13  14
ATOM     14  C   PRO A   2       3.783   2.071  19.339  0.00  0.00    +0.000 C 
ATOM     15  O   PRO A   2       4.754   2.136  20.078  0.00  0.00    +0.000 OA
BRANCH  14  16
ATOM     16  OXT PRO A   2       3.732   1.213  18.289  0.00  0.00    +0.000 OA
ATOM     17  HXT PRO A   2       4.202   0.370  18.490  0.00  0.00    +0.000 HD
ENDBRANCH  14  16
ENDBRANCH  13  14
ENDBRANCH   6   7
ENDBRANCH   1   6
BRANCH   2  18
ATOM     18  C   UNK A   0       0.860   8.878  19.093  0.00  0.00    +0.000 C 
BRANCH  18  19
ATOM     19  C   UNK A   0       1.326   8.882  20.554  0.00  0.00    +0.000 C 
BRANCH  19  20
ATOM     20  S   UNK A   0      -0.033   8.889  21.770  0.00  0.00    +0.000 S 
ATOM     21  H   UNK A   0      -0.119  10.219  21.923  0.00  0.00    +0.000 HD
ENDBRANCH  19  20
ENDBRANCH  18  19
BRANCH  18  22
ATOM     22  C   UNK A   0       0.482  10.318  18.672  0.00  0.00    +0.000 C 
BRANCH  22  23
ATOM     23  C   UNK A   0      -0.972  10.530  18.278  0.00  0.00    +0.000 A 
ATOM     24  C   UNK A   0      -1.462   9.844  17.149  0.00  0.00    +0.000 A 
ATOM     25  C   UNK A   0      -2.790   9.985  16.738  0.00  0.00    +0.000 A 
ATOM     26  C   UNK A   0      -3.656  10.812  17.447  0.00  0.00    +0.000 A 
ATOM     27  C   UNK A   0      -3.184  11.510  18.557  0.00  0.00    +0.000 A 
ATOM     28  C   UNK A   0      -1.850  11.383  18.962  0.00  0.00    +0.000 A 
ATOM     29 CL   UNK A   0      -1.344  12.328  20.317  0.00  0.00    +0.000 Cl
ENDBRANCH  22  23
ENDBRANCH  18  22
ENDBRANCH   2  18
TORSDOF 9
ENDMDL
MODEL 6
REMARK VINA RESULT:      -6.3      4.699      7.615
REMARK  Name = 
REMARK  10 active torsions:
REMARK  status: ('A' for Active; 'I' for Inactive)
REMARK    1  A    between atoms: CB_1  and  CA_2
REMARK    2  A    between atoms: CA_2  and  N_3
REMARK    3  A    between atoms: CA_2  and  C_17
REMARK    4  A    between atoms: C_4  and  C_6
REMARK    5  A    between atoms: C_6  and  C_7
REMARK    6  A    between atoms: C_6  and  C_9
REMARK    7  A    between atoms: C_7  and  S_8
REMARK    8  A    between atoms: C_9  and  C_10
REMARK    9  A    between atoms: CA_23  and  C_24
REMARK   10  A    between atoms: C_24  and  OXT_26
REMARK                            x       y       z     vdW  Elec       q    Type
REMARK                         _______ _______ _______ _____ _____    ______ ____
ROOT
ATOM      1  N   ALA A   1       1.856   7.822  19.375  0.00  0.00    +0.000 N 
ATOM      2  C   UNK A   0       1.303   8.849  18.634  0.00  0.00    +0.000 C 
ATOM      3  O   UNK A   0       1.517   8.996  17.436  0.00  0.00    +0.000 OA
ATOM      4  H   ALA A   1       1.856   7.866  20.388  0.00  0.00    +0.000 HD
ENDROOT
BRANCH   1   6
ATOM      5  CB  ALA A   1       3.968   7.207  18.305  0.00  0.00    +0.000 C 
ATOM      6  CA  ALA A   1       2.586   6.727  18.734  0.00  0.00    +0.000 C 
BRANCH   6   7
ATOM      7  C   ALA A   1       2.660   5.461  19.631  0.00  0.00    +0.000 C 
ATOM      8  O   ALA A   1       2.799   5.518  20.857  0.00  0.00    +0.000 OA
ATOM      9  N   PRO A   2       2.663   4.218  19.017  0.00  0.00    +0.000 N 
ATOM     10  CD  PRO A   2       2.955   3.934  17.623  0.00  0.00    +0.000 C 
ATOM     11  CG  PRO A   2       2.462   2.509  17.465  0.00  0.00    +0.000 C 
ATOM     12  CB  PRO A   2       2.911   1.859  18.770  0.00  0.00    +0.000 C 
ATOM     13  CA  PRO A   2       2.821   2.995  19.812  0.00  0.00    +0.000 C 
BRANCH  13  14
ATOM     14  C   PRO A   2       1.673   2.745  20.799  0.00  0.00    +0.000 C 
ATOM     15  O   PRO A   2       1.812   2.443  21.975  0.00  0.00    +0.000 OA
BRANCH  14  16
ATOM     16  OXT PRO A   2       0.450   2.860  20.222  0.00  0.00    +0.000 OA
ATOM     17  HXT PRO A   2      -0.062   2.021  20.296  0.00  0.00    +0.000 HD
ENDBRANCH  14  16
ENDBRANCH  13  14
ENDBRANCH   6   7
ENDBRANCH   1   6
BRANCH   2  18
ATOM     18  C   UNK A   0       0.383   9.759  19.443  0.00  0.00    +0.000 C 
BRANCH  18  19
ATOM     19  C   UNK A   0       1.088  10.282  20.700  0.00  0.00    +0.000 C 
BRANCH  19  20
ATOM     20  S   UNK A   0       0.131  10.065  22.237  0.00  0.00    +0.000 S 
ATOM     21  H   UNK A   0      -0.226  11.347  22.399  0.00  0.00    +0.000 HD
ENDBRANCH  19  20
ENDBRANCH  18  19
BRANCH  18  22
ATOM     22  C   UNK A   0      -0.077  10.957  18.578  0.00  0.00    +0.000 C 
BRANCH  22  23
ATOM     23  C   UNK A   0      -1.535  10.937  18.147  0.00  0.00    +0.000 A 
ATOM     24  C   UNK A   0      -1.895  10.125  17.052  0.00  0.00    +0.000 A 
ATOM     25  C   UNK A   0      -3.217  10.053  16.609  0.00  0.00    +0.000 A 
ATOM     26  C   UNK A   0      -4.209  10.786  17.253  0.00  0.00    +0.000 A 
ATOM     27  C   UNK A   0      -3.870  11.606  18.327  0.00  0.00    +0.000 A 
ATOM     28  C   UNK A   0      -2.542  11.693  18.763  0.00  0.00    +0.000 A 
ATOM     29 CL   UNK A   0      -2.211  12.775  20.068  0.00  0.00    +0.000 Cl
ENDBRANCH  22  23
ENDBRANCH  18  22
ENDBRANCH   2  18
TORSDOF 9
ENDMDL
MODEL 7
REMARK VINA RESULT:      -6.2      4.166      7.440
REMARK  Name = 
REMARK  10 active torsions:
REMARK  status: ('A' for Active; 'I' for Inactive)
REMARK    1  A    between atoms: CB_1  and  CA_2
REMARK    2  A    between atoms: CA_2  and  N_3
REMARK    3  A    between atoms: CA_2  and  C_17
REMARK    4  A    between atoms: C_4  and  C_6
REMARK    5  A    between atoms: C_6  and  C_7
REMARK    6  A    between atoms: C_6  and  C_9
REMARK    7  A    between atoms: C_7  and  S_8
REMARK    8  A    between atoms: C_9  and  C_10
REMARK    9  A    between atoms: CA_23  and  C_24
REMARK   10  A    between atoms: C_24  and  OXT_26
REMARK                            x       y       z     vdW  Elec       q    Type
REMARK                         _______ _______ _______ _____ _____    ______ ____
ROOT
ATOM      1  N   ALA A   1       3.149   7.942  18.108  0.00  0.00    +0.000 N 
ATOM      2  C   UNK A   0       1.878   8.475  18.007  0.00  0.00    +0.000 C 
ATOM      3  O   UNK A   0       0.969   7.920  17.398  0.00  0.00    +0.000 OA
ATOM      4  H   ALA A   1       3.924   8.525  18.403  0.00  0.00    +0.000 HD
ENDROOT
BRANCH   1   6
ATOM      5  CB  ALA A   1       4.716   6.582  16.811  0.00  0.00    +0.000 C 
ATOM      6  CA  ALA A   1       3.444   6.583  17.653  0.00  0.00    +0.000 C 
BRANCH   6   7
ATOM      7  C   ALA A   1       3.522   5.570  18.828  0.00  0.00    +0.000 C 
ATOM      8  O   ALA A   1       4.379   5.642  19.717  0.00  0.00    +0.000 OA
ATOM      9  N   PRO A   2       2.652   4.491  18.827  0.00  0.00    +0.000 N 
ATOM     10  CD  PRO A   2       1.901   3.977  17.695  0.00  0.00    +0.000 C 
ATOM     11  CG  PRO A   2       0.890   3.062  18.358  0.00  0.00    +0.000 C 
ATOM     12  CB  PRO A   2       1.721   2.384  19.441  0.00  0.00    +0.000 C 
ATOM     13  CA  PRO A   2       2.745   3.459  19.865  0.00  0.00    +0.000 C 
BRANCH  13  14
ATOM     14  C   PRO A   2       2.447   3.974  21.279  0.00  0.00    +0.000 C 
ATOM     15  O   PRO A   2       2.420   3.283  22.287  0.00  0.00    +0.000 OA
BRANCH  14  16
ATOM     16  OXT PRO A   2       2.172   5.303  21.307  0.00  0.00    +0.000 OA
ATOM     17  HXT PRO A   2       2.605   5.774  20.558  0.00  0.00    +0.000 HD
ENDBRANCH  14  16
ENDBRANCH  13  14
ENDBRANCH   6   7
ENDBRANCH   1   6
BRANCH   2  18
ATOM     18  C   UNK A   0       1.709   9.799  18.745  0.00  0.00    +0.000 C 
BRANCH  18  19
ATOM     19  C   UNK A   0       2.312  10.960  17.945  0.00  0.00    +0.000 C 
BRANCH  19  20
ATOM     20  S   UNK A   0       2.034  12.602  18.688  0.00  0.00    +0.000 S 
ATOM     21  H   UNK A   0       0.871  12.322  19.293  0.00  0.00    +0.000 HD
ENDBRANCH  19  20
ENDBRANCH  18  19
BRANCH  18  22
ATOM     22  C   UNK A   0       0.209  10.079  19.003  0.00  0.00    +0.000 C 
BRANCH  22  23
ATOM     23  C   UNK A   0      -0.195  10.218  20.462  0.00  0.00    +0.000 A 
ATOM     24  C   UNK A   0       0.161   9.185  21.352  0.00  0.00    +0.000 A 
ATOM     25  C   UNK A   0      -0.170   9.252  22.708  0.00  0.00    +0.000 A 
ATOM     26  C   UNK A   0      -0.860  10.354  23.203  0.00  0.00    +0.000 A 
ATOM     27  C   UNK A   0      -1.232  11.379  22.336  0.00  0.00    +0.000 A 
ATOM     28  C   UNK A   0      -0.916  11.306  20.973  0.00  0.00    +0.000 A 
ATOM     29 CL   UNK A   0      -1.466  12.598  19.967  0.00  0.00    +0.000 Cl
ENDBRANCH  22  23
ENDBRANCH  18  22
ENDBRANCH   2  18
TORSDOF 9
ENDMDL
MODEL 8
REMARK VINA RESULT:      -6.2      4.461      7.378
REMARK  Name = 
REMARK  10 active torsions:
REMARK  status: ('A' for Active; 'I' for Inactive)
REMARK    1  A    between atoms: CB_1  and  CA_2
REMARK    2  A    between atoms: CA_2  and  N_3
REMARK    3  A    between atoms: CA_2  and  C_17
REMARK    4  A    between atoms: C_4  and  C_6
REMARK    5  A    between atoms: C_6  and  C_7
REMARK    6  A    between atoms: C_6  and  C_9
REMARK    7  A    between atoms: C_7  and  S_8
REMARK    8  A    between atoms: C_9  and  C_10
REMARK    9  A    between atoms: CA_23  and  C_24
REMARK   10  A    between atoms: C_24  and  OXT_26
REMARK                            x       y       z     vdW  Elec       q    Type
REMARK                         _______ _______ _______ _____ _____    ______ ____
ROOT
ATOM      1  N   ALA A   1       2.003   8.140  19.123  0.00  0.00    +0.000 N 
ATOM      2  C   UNK A   0       1.672   9.302  18.451  0.00  0.00    +0.000 C 
ATOM      3  O   UNK A   0       1.898   9.470  17.258  0.00  0.00    +0.000 OA
ATOM      4  H   ALA A   1       2.024   8.125  20.136  0.00  0.00    +0.000 HD
ENDROOT
BRANCH   1   6
ATOM      5  CB  ALA A   1       3.935   7.139  18.006  0.00  0.00    +0.000 C 
ATOM      6  CA  ALA A   1       2.476   6.955  18.407  0.00  0.00    +0.000 C 
BRANCH   6   7
ATOM      7  C   ALA A   1       2.252   5.647  19.215  0.00  0.00    +0.000 C 
ATOM      8  O   ALA A   1       1.892   5.646  20.397  0.00  0.00    +0.000 OA
ATOM      9  N   PRO A   2       2.559   4.438  18.610  0.00  0.00    +0.000 N 
ATOM     10  CD  PRO A   2       3.392   4.235  17.438  0.00  0.00    +0.000 C 
ATOM     11  CG  PRO A   2       3.072   2.805  17.049  0.00  0.00    +0.000 C 
ATOM     12  CB  PRO A   2       3.001   2.104  18.401  0.00  0.00    +0.000 C 
ATOM     13  CA  PRO A   2       2.451   3.182  19.360  0.00  0.00    +0.000 C 
BRANCH  13  14
ATOM     14  C   PRO A   2       1.021   2.846  19.802  0.00  0.00    +0.000 C 
ATOM     15  O   PRO A   2       0.115   2.510  19.053  0.00  0.00    +0.000 OA
BRANCH  14  16
ATOM     16  OXT PRO A   2       0.836   2.992  21.138  0.00  0.00    +0.000 OA
ATOM     17  HXT PRO A   2       0.306   3.797  21.342  0.00  0.00    +0.000 HD
ENDBRANCH  14  16
ENDBRANCH  13  14
ENDBRANCH   6   7
ENDBRANCH   1   6
BRANCH   2  18
ATOM     18  C   UNK A   0       0.976  10.338  19.329  0.00  0.00    +0.000 C 
BRANCH  18  19
ATOM     19  C   UNK A   0       0.978  11.719  18.663  0.00  0.00    +0.000 C 
BRANCH  19  20
ATOM     20  S   UNK A   0       2.124  12.914  19.426  0.00  0.00    +0.000 S 
ATOM     21  H   UNK A   0       3.263  12.266  19.140  0.00  0.00    +0.000 HD
ENDBRANCH  19  20
ENDBRANCH  18  19
BRANCH  18  22
ATOM     22  C   UNK A   0      -0.484   9.907  19.609  0.00  0.00    +0.000 C 
BRANCH  22  23
ATOM     23  C   UNK A   0      -1.512  10.351  18.580  0.00  0.00    +0.000 A 
ATOM     24  C   UNK A   0      -1.533   9.693  17.334  0.00  0.00    +0.000 A 
ATOM     25  C   UNK A   0      -2.457  10.045  16.347  0.00  0.00    +0.000 A 
ATOM     26  C   UNK A   0      -3.381  11.058  16.585  0.00  0.00    +0.000 A 
ATOM     27  C   UNK A   0      -3.365  11.729  17.806  0.00  0.00    +0.000 A 
ATOM     28  C   UNK A   0      -2.429  11.391  18.791  0.00  0.00    +0.000 A 
ATOM     29 CL   UNK A   0      -2.452  12.313  20.251  0.00  0.00    +0.000 Cl
ENDBRANCH  22  23
ENDBRANCH  18  22
ENDBRANCH   2  18
TORSDOF 9
ENDMDL
MODEL 9
REMARK VINA RESULT:      -6.2      4.089      7.319
REMARK  Name = 
REMARK  10 active torsions:
REMARK  status: ('A' for Active; 'I' for Inactive)
REMARK    1  A    between atoms: CB_1  and  CA_2
REMARK    2  A    between atoms: CA_2  and  N_3
REMARK    3  A    between atoms: CA_2  and  C_17
REMARK    4  A    between atoms: C_4  and  C_6
REMARK    5  A    between atoms: C_6  and  C_7
REMARK    6  A    between atoms: C_6  and  C_9
REMARK    7  A    between atoms: C_7  and  S_8
REMARK    8  A    between atoms: C_9  and  C_10
REMARK    9  A    between atoms: CA_23  and  C_24
REMARK   10  A    between atoms: C_24  and  OXT_26
REMARK                            x       y       z     vdW  Elec       q    Type
REMARK                         _______ _______ _______ _____ _____    ______ ____
ROOT
ATOM      1  N   ALA A   1       2.603   7.135  18.862  0.00  0.00    +0.000 N 
ATOM      2  C   UNK A   0       1.996   8.321  18.492  0.00  0.00    +0.000 C 
ATOM      3  O   UNK A   0       2.153   8.834  17.389  0.00  0.00    +0.000 OA
ATOM      4  H   ALA A   1       2.648   6.868  19.838  0.00  0.00    +0.000 HD
ENDROOT
BRANCH   1   6
ATOM      5  CB  ALA A   1       4.540   7.072  17.369  0.00  0.00    +0.000 C 
ATOM      6  CA  ALA A   1       3.324   6.313  17.890  0.00  0.00    +0.000 C 
BRANCH   6   7
ATOM      7  C   ALA A   1       3.706   4.920  18.461  0.00  0.00    +0.000 C 
ATOM      8  O   ALA A   1       4.871   4.605  18.729  0.00  0.00    +0.000 OA
ATOM      9  N   PRO A   2       2.711   3.964  18.585  0.00  0.00    +0.000 N 
ATOM     10  CD  PRO A   2       1.414   3.963  17.932  0.00  0.00    +0.000 C 
ATOM     11  CG  PRO A   2       0.653   2.904  18.706  0.00  0.00    +0.000 C 
ATOM     12  CB  PRO A   2       1.710   1.823  18.909  0.00  0.00    +0.000 C 
ATOM     13  CA  PRO A   2       3.035   2.605  19.034  0.00  0.00    +0.000 C 
BRANCH  13  14
ATOM     14  C   PRO A   2       3.578   2.540  20.468  0.00  0.00    +0.000 C 
ATOM     15  O   PRO A   2       2.939   2.811  21.474  0.00  0.00    +0.000 OA
BRANCH  14  16
ATOM     16  OXT PRO A   2       4.884   2.175  20.519  0.00  0.00    +0.000 OA
ATOM     17  HXT PRO A   2       5.246   2.260  21.432  0.00  0.00    +0.000 HD
ENDBRANCH  14  16
ENDBRANCH  13  14
ENDBRANCH   6   7
ENDBRANCH   1   6
BRANCH   2  18
ATOM     18  C   UNK A   0       1.096   8.911  19.574  0.00  0.00    +0.000 C 
BRANCH  18  19
ATOM     19  C   UNK A   0       1.574   8.505  20.973  0.00  0.00    +0.000 C 
BRANCH  19  20
ATOM     20  S   UNK A   0       0.521   9.120  22.329  0.00  0.00    +0.000 S 
ATOM     21  H   UNK A   0       0.073  10.223  21.711  0.00  0.00    +0.000 HD
ENDBRANCH  19  20
ENDBRANCH  18  19
BRANCH  18  22
ATOM     22  C   UNK A   0       1.075  10.454  19.467  0.00  0.00    +0.000 C 
BRANCH  22  23
ATOM     23  C   UNK A   0      -0.299  11.102  19.545  0.00  0.00    +0.000 A 
ATOM     24  C   UNK A   0      -0.559  11.986  20.611  0.00  0.00    +0.000 A 
ATOM     25  C   UNK A   0      -1.796  12.623  20.737  0.00  0.00    +0.000 A 
ATOM     26  C   UNK A   0      -2.798  12.392  19.799  0.00  0.00    +0.000 A 
ATOM     27  C   UNK A   0      -2.564  11.510  18.747  0.00  0.00    +0.000 A 
ATOM     28  C   UNK A   0      -1.330  10.857  18.627  0.00  0.00    +0.000 A 
ATOM     29 CL   UNK A   0      -1.152   9.742  17.320  0.00  0.00    +0.000 Cl
ENDBRANCH  22  23
ENDBRANCH  18  22
ENDBRANCH   2  18
TORSDOF 9
ENDMDL
