MODEL 1
REMARK VINA RESULT:      -8.3      0.000      0.000
REMARK  Name = 
REMARK  2 active torsions:
REMARK  status: ('A' for Active; 'I' for Inactive)
REMARK    1  A    between atoms: C_1  and  C_2
REMARK    2  A    between atoms: N_14  and  C_15
REMARK                            x       y       z     vdW  Elec       q    Type
REMARK                         _______ _______ _______ _____ _____    ______ ____
ROOT
ATOM      1  C   UNL     1       1.104   8.399  21.418  0.00  0.00    +0.000 C 
ATOM      2  C   UNL     1       1.565   7.251  20.572  0.00  0.00    +0.000 A 
ATOM      3  C   UNL     1       2.386   7.452  19.463  0.00  0.00    +0.000 A 
ATOM      4  C   UNL     1       2.851   6.360  18.721  0.00  0.00    +0.000 A 
ATOM      5  C   UNL     1       2.531   5.043  19.075  0.00  0.00    +0.000 A 
ATOM      6  C   UNL     1       1.617   4.849  20.132  0.00  0.00    +0.000 A 
ATOM      7  C   UNL     1       1.153   5.951  20.875  0.00  0.00    +0.000 A 
ATOM      8  C   UNL     1       1.068   3.487  20.486  0.00  0.00    +0.000 C 
ATOM      9  C   UNL     1       1.896   2.354  19.911  0.00  0.00    +0.000 C 
ATOM     10  C   UNL     1       2.268   2.680  18.479  0.00  0.00    +0.000 C 
ATOM     11  N   UNL     1       3.082   3.899  18.406  0.00  0.00    +0.000 N 
ATOM     12  C   UNL     1       4.286   3.796  17.703  0.00  0.00    +0.000 C 
ATOM     13  O   UNL     1       4.618   2.758  17.130  0.00  0.00    +0.000 OA
ATOM     14  N   UNL     1       5.115   4.891  17.719  0.00  0.00    +0.000 N 
ATOM     15  H   UNL     1       5.096   5.359  18.614  0.00  0.00    +0.000 HD
ENDROOT
BRANCH  14  16
ATOM     16  C   UNL     1       6.418   4.902  17.044  0.00  0.00    +0.000 C 
ATOM     17  C   UNL     1       6.723   6.212  16.296  0.00  0.00    +0.000 C 
ATOM     18  C   UNL     1       6.870   7.390  17.255  0.00  0.00    +0.000 C 
ATOM     19  C   UNL     1       8.004   7.138  18.238  0.00  0.00    +0.000 C 
ATOM     20  C   UNL     1       7.828   5.819  18.987  0.00  0.00    +0.000 C 
ATOM     21  C   UNL     1       7.550   4.634  18.055  0.00  0.00    +0.000 C 
ENDBRANCH  14  16
TORSDOF 1
ENDMDL
MODEL 2
REMARK VINA RESULT:      -7.0      1.698      5.787
REMARK  Name = 
REMARK  2 active torsions:
REMARK  status: ('A' for Active; 'I' for Inactive)
REMARK    1  A    between atoms: C_1  and  C_2
REMARK    2  A    between atoms: N_14  and  C_15
REMARK                            x       y       z     vdW  Elec       q    Type
REMARK                         _______ _______ _______ _____ _____    ______ ____
ROOT
ATOM      1  C   UNL     1       8.485   7.494  18.914  0.00  0.00    +0.000 C 
ATOM      2  C   UNL     1       7.495   6.506  18.373  0.00  0.00    +0.000 A 
ATOM      3  C   UNL     1       6.588   5.858  19.210  0.00  0.00    +0.000 A 
ATOM      4  C   UNL     1       5.636   4.982  18.676  0.00  0.00    +0.000 A 
ATOM      5  C   UNL     1       5.545   4.749  17.297  0.00  0.00    +0.000 A 
ATOM      6  C   UNL     1       6.529   5.325  16.466  0.00  0.00    +0.000 A 
ATOM      7  C   UNL     1       7.484   6.205  17.010  0.00  0.00    +0.000 A 
ATOM      8  C   UNL     1       6.632   5.003  14.995  0.00  0.00    +0.000 C 
ATOM      9  C   UNL     1       5.366   4.378  14.441  0.00  0.00    +0.000 C 
ATOM     10  C   UNL     1       4.849   3.341  15.416  0.00  0.00    +0.000 C 
ATOM     11  N   UNL     1       4.509   3.949  16.707  0.00  0.00    +0.000 N 
ATOM     12  C   UNL     1       3.228   3.680  17.199  0.00  0.00    +0.000 C 
ATOM     13  O   UNL     1       2.450   2.930  16.609  0.00  0.00    +0.000 OA
ATOM     14  N   UNL     1       2.851   4.329  18.349  0.00  0.00    +0.000 N 
ATOM     15  H   UNL     1       3.210   5.273  18.378  0.00  0.00    +0.000 HD
ENDROOT
BRANCH  14  16
ATOM     16  C   UNL     1       1.524   4.156  18.951  0.00  0.00    +0.000 C 
ATOM     17  C   UNL     1       1.160   2.689  19.246  0.00  0.00    +0.000 C 
ATOM     18  C   UNL     1       2.060   2.087  20.320  0.00  0.00    +0.000 C 
ATOM     19  C   UNL     1       1.934   2.870  21.619  0.00  0.00    +0.000 C 
ATOM     20  C   UNL     1       2.213   4.358  21.419  0.00  0.00    +0.000 C 
ATOM     21  C   UNL     1       1.415   4.964  20.258  0.00  0.00    +0.000 C 
ENDBRANCH  14  16
TORSDOF 1
ENDMDL
MODEL 3
REMARK VINA RESULT:      -6.9      0.922      1.284
REMARK  Name = 
REMARK  2 active torsions:
REMARK  status: ('A' for Active; 'I' for Inactive)
REMARK    1  A    between atoms: C_1  and  C_2
REMARK    2  A    between atoms: N_14  and  C_15
REMARK                            x       y       z     vdW  Elec       q    Type
REMARK                         _______ _______ _______ _____ _____    ______ ____
ROOT
ATOM      1  C   UNL     1       0.904   8.861  20.707  0.00  0.00    +0.000 C 
ATOM      2  C   UNL     1       1.546   7.564  20.315  0.00  0.00    +0.000 A 
ATOM      3  C   UNL     1       2.548   7.516  19.346  0.00  0.00    +0.000 A 
ATOM      4  C   UNL     1       3.173   6.303  19.036  0.00  0.00    +0.000 A 
ATOM      5  C   UNL     1       2.837   5.114  19.698  0.00  0.00    +0.000 A 
ATOM      6  C   UNL     1       1.754   5.148  20.601  0.00  0.00    +0.000 A 
ATOM      7  C   UNL     1       1.128   6.371  20.908  0.00  0.00    +0.000 A 
ATOM      8  C   UNL     1       1.194   3.898  21.237  0.00  0.00    +0.000 C 
ATOM      9  C   UNL     1       2.147   2.721  21.157  0.00  0.00    +0.000 C 
ATOM     10  C   UNL     1       2.761   2.665  19.773  0.00  0.00    +0.000 C 
ATOM     11  N   UNL     1       3.536   3.879  19.487  0.00  0.00    +0.000 N 
ATOM     12  C   UNL     1       4.850   3.683  19.051  0.00  0.00    +0.000 C 
ATOM     13  O   UNL     1       5.313   2.558  18.864  0.00  0.00    +0.000 OA
ATOM     14  N   UNL     1       5.627   4.804  18.886  0.00  0.00    +0.000 N 
ATOM     15  H   UNL     1       5.432   5.500  19.592  0.00  0.00    +0.000 HD
ENDROOT
BRANCH  14  16
ATOM     16  C   UNL     1       7.029   4.734  18.461  0.00  0.00    +0.000 C 
ATOM     17  C   UNL     1       7.214   4.584  16.939  0.00  0.00    +0.000 C 
ATOM     18  C   UNL     1       6.732   5.820  16.187  0.00  0.00    +0.000 C 
ATOM     19  C   UNL     1       7.509   7.051  16.633  0.00  0.00    +0.000 C 
ATOM     20  C   UNL     1       7.443   7.250  18.145  0.00  0.00    +0.000 C 
ATOM     21  C   UNL     1       7.799   5.983  18.932  0.00  0.00    +0.000 C 
ENDBRANCH  14  16
TORSDOF 1
ENDMDL
MODEL 4
REMARK VINA RESULT:      -6.9      3.130      5.514
REMARK  Name = 
REMARK  2 active torsions:
REMARK  status: ('A' for Active; 'I' for Inactive)
REMARK    1  A    between atoms: C_1  and  C_2
REMARK    2  A    between atoms: N_14  and  C_15
REMARK                            x       y       z     vdW  Elec       q    Type
REMARK                         _______ _______ _______ _____ _____    ______ ____
ROOT
ATOM      1  C   UNL     1      -1.128  10.361  23.381  0.00  0.00    +0.000 C 
ATOM      2  C   UNL     1      -0.249   9.868  22.271  0.00  0.00    +0.000 A 
ATOM      3  C   UNL     1       0.789   8.969  22.514  0.00  0.00    +0.000 A 
ATOM      4  C   UNL     1       1.561   8.479  21.455  0.00  0.00    +0.000 A 
ATOM      5  C   UNL     1       1.306   8.849  20.128  0.00  0.00    +0.000 A 
ATOM      6  C   UNL     1       0.324   9.836  19.897  0.00  0.00    +0.000 A 
ATOM      7  C   UNL     1      -0.449  10.326  20.967  0.00  0.00    +0.000 A 
ATOM      8  C   UNL     1       0.087  10.435  18.532  0.00  0.00    +0.000 C 
ATOM      9  C   UNL     1       0.671   9.594  17.413  0.00  0.00    +0.000 C 
ATOM     10  C   UNL     1       2.054   9.119  17.809  0.00  0.00    +0.000 C 
ATOM     11  N   UNL     1       2.002   8.277  19.010  0.00  0.00    +0.000 N 
ATOM     12  C   UNL     1       2.628   7.031  18.918  0.00  0.00    +0.000 C 
ATOM     13  O   UNL     1       3.237   6.682  17.906  0.00  0.00    +0.000 OA
ATOM     14  N   UNL     1       2.494   6.183  19.990  0.00  0.00    +0.000 N 
ATOM     15  H   UNL     1       1.577   6.252  20.407  0.00  0.00    +0.000 HD
ENDROOT
BRANCH  14  16
ATOM     16  C   UNL     1       3.079   4.837  20.007  0.00  0.00    +0.000 C 
ATOM     17  C   UNL     1       2.524   3.929  21.119  0.00  0.00    +0.000 C 
ATOM     18  C   UNL     1       1.046   3.614  20.908  0.00  0.00    +0.000 C 
ATOM     19  C   UNL     1       0.839   2.903  19.578  0.00  0.00    +0.000 C 
ATOM     20  C   UNL     1       1.419   3.698  18.410  0.00  0.00    +0.000 C 
ATOM     21  C   UNL     1       2.867   4.141  18.648  0.00  0.00    +0.000 C 
ENDBRANCH  14  16
TORSDOF 1
ENDMDL
MODEL 5
REMARK VINA RESULT:      -6.6      1.727      5.736
REMARK  Name = 
REMARK  2 active torsions:
REMARK  status: ('A' for Active; 'I' for Inactive)
REMARK    1  A    between atoms: C_1  and  C_2
REMARK    2  A    between atoms: N_14  and  C_15
REMARK                            x       y       z     vdW  Elec       q    Type
REMARK                         _______ _______ _______ _____ _____    ______ ____
ROOT
ATOM      1  C   UNL     1       8.437   8.180  18.628  0.00  0.00    +0.000 C 
ATOM      2  C   UNL     1       7.684   6.951  18.216  0.00  0.00    +0.000 A 
ATOM      3  C   UNL     1       7.346   5.965  19.142  0.00  0.00    +0.000 A 
ATOM      4  C   UNL     1       6.593   4.853  18.746  0.00  0.00    +0.000 A 
ATOM      5  C   UNL     1       6.138   4.706  17.429  0.00  0.00    +0.000 A 
ATOM      6  C   UNL     1       6.570   5.652  16.475  0.00  0.00    +0.000 A 
ATOM      7  C   UNL     1       7.327   6.768  16.879  0.00  0.00    +0.000 A 
ATOM      8  C   UNL     1       6.286   5.497  14.999  0.00  0.00    +0.000 C 
ATOM      9  C   UNL     1       5.169   4.511  14.717  0.00  0.00    +0.000 C 
ATOM     10  C   UNL     1       5.344   3.288  15.594  0.00  0.00    +0.000 C 
ATOM     11  N   UNL     1       5.270   3.640  17.017  0.00  0.00    +0.000 N 
ATOM     12  C   UNL     1       4.368   2.902  17.789  0.00  0.00    +0.000 C 
ATOM     13  O   UNL     1       3.714   1.973  17.315  0.00  0.00    +0.000 OA
ATOM     14  N   UNL     1       4.202   3.290  19.096  0.00  0.00    +0.000 N 
ATOM     15  H   UNL     1       4.239   4.295  19.194  0.00  0.00    +0.000 HD
ENDROOT
BRANCH  14  16
ATOM     16  C   UNL     1       3.265   2.617  20.003  0.00  0.00    +0.000 C 
ATOM     17  C   UNL     1       2.966   3.406  21.291  0.00  0.00    +0.000 C 
ATOM     18  C   UNL     1       2.224   4.705  20.999  0.00  0.00    +0.000 C 
ATOM     19  C   UNL     1       0.897   4.417  20.311  0.00  0.00    +0.000 C 
ATOM     20  C   UNL     1       1.080   3.576  19.049  0.00  0.00    +0.000 C 
ATOM     21  C   UNL     1       1.934   2.325  19.283  0.00  0.00    +0.000 C 
ENDBRANCH  14  16
TORSDOF 1
ENDMDL
MODEL 6
REMARK VINA RESULT:      -6.5      1.212      1.588
REMARK  Name = 
REMARK  2 active torsions:
REMARK  status: ('A' for Active; 'I' for Inactive)
REMARK    1  A    between atoms: C_1  and  C_2
REMARK    2  A    between atoms: N_14  and  C_15
REMARK                            x       y       z     vdW  Elec       q    Type
REMARK                         _______ _______ _______ _____ _____    ______ ____
ROOT
ATOM      1  C   UNL     1       0.936  10.378  19.484  0.00  0.00    +0.000 C 
ATOM      2  C   UNL     1       1.493   9.001  19.281  0.00  0.00    +0.000 A 
ATOM      3  C   UNL     1       2.309   8.704  18.189  0.00  0.00    +0.000 A 
ATOM      4  C   UNL     1       2.864   7.427  18.049  0.00  0.00    +0.000 A 
ATOM      5  C   UNL     1       2.644   6.423  19.001  0.00  0.00    +0.000 A 
ATOM      6  C   UNL     1       1.737   6.695  20.047  0.00  0.00    +0.000 A 
ATOM      7  C   UNL     1       1.181   7.982  20.182  0.00  0.00    +0.000 A 
ATOM      8  C   UNL     1       1.292   5.635  21.026  0.00  0.00    +0.000 C 
ATOM      9  C   UNL     1       2.211   4.429  21.043  0.00  0.00    +0.000 C 
ATOM     10  C   UNL     1       2.572   4.052  19.621  0.00  0.00    +0.000 C 
ATOM     11  N   UNL     1       3.289   5.142  18.949  0.00  0.00    +0.000 N 
ATOM     12  C   UNL     1       4.506   4.802  18.348  0.00  0.00    +0.000 C 
ATOM     13  O   UNL     1       4.923   3.644  18.334  0.00  0.00    +0.000 OA
ATOM     14  N   UNL     1       5.246   5.828  17.812  0.00  0.00    +0.000 N 
ATOM     15  H   UNL     1       5.182   6.666  18.373  0.00  0.00    +0.000 HD
ENDROOT
BRANCH  14  16
ATOM     16  C   UNL     1       6.552   5.608  17.180  0.00  0.00    +0.000 C 
ATOM     17  C   UNL     1       7.131   6.858  16.492  0.00  0.00    +0.000 C 
ATOM     18  C   UNL     1       7.463   7.955  17.498  0.00  0.00    +0.000 C 
ATOM     19  C   UNL     1       8.490   7.459  18.506  0.00  0.00    +0.000 C 
ATOM     20  C   UNL     1       8.037   6.176  19.199  0.00  0.00    +0.000 C 
ATOM     21  C   UNL     1       7.572   5.096  18.215  0.00  0.00    +0.000 C 
ENDBRANCH  14  16
TORSDOF 1
ENDMDL
MODEL 7
REMARK VINA RESULT:      -6.4      1.485      2.383
REMARK  Name = 
REMARK  2 active torsions:
REMARK  status: ('A' for Active; 'I' for Inactive)
REMARK    1  A    between atoms: C_1  and  C_2
REMARK    2  A    between atoms: N_14  and  C_15
REMARK                            x       y       z     vdW  Elec       q    Type
REMARK                         _______ _______ _______ _____ _____    ______ ____
ROOT
ATOM      1  C   UNL     1       1.993  10.252  18.294  0.00  0.00    +0.000 C 
ATOM      2  C   UNL     1       2.184   8.771  18.418  0.00  0.00    +0.000 A 
ATOM      3  C   UNL     1       2.757   8.025  17.388  0.00  0.00    +0.000 A 
ATOM      4  C   UNL     1       2.978   6.652  17.548  0.00  0.00    +0.000 A 
ATOM      5  C   UNL     1       2.659   5.992  18.742  0.00  0.00    +0.000 A 
ATOM      6  C   UNL     1       1.986   6.727  19.741  0.00  0.00    +0.000 A 
ATOM      7  C   UNL     1       1.766   8.108  19.574  0.00  0.00    +0.000 A 
ATOM      8  C   UNL     1       1.441   6.079  20.991  0.00  0.00    +0.000 C 
ATOM      9  C   UNL     1       2.049   4.716  21.258  0.00  0.00    +0.000 C 
ATOM     10  C   UNL     1       2.121   3.935  19.961  0.00  0.00    +0.000 C 
ATOM     11  N   UNL     1       2.977   4.613  18.981  0.00  0.00    +0.000 N 
ATOM     12  C   UNL     1       3.990   3.840  18.406  0.00  0.00    +0.000 C 
ATOM     13  O   UNL     1       4.123   2.644  18.666  0.00  0.00    +0.000 OA
ATOM     14  N   UNL     1       4.871   4.484  17.571  0.00  0.00    +0.000 N 
ATOM     15  H   UNL     1       5.077   5.418  17.897  0.00  0.00    +0.000 HD
ENDROOT
BRANCH  14  16
ATOM     16  C   UNL     1       5.994   3.793  16.929  0.00  0.00    +0.000 C 
ATOM     17  C   UNL     1       5.759   3.467  15.442  0.00  0.00    +0.000 C 
ATOM     18  C   UNL     1       5.657   4.731  14.595  0.00  0.00    +0.000 C 
ATOM     19  C   UNL     1       6.940   5.544  14.698  0.00  0.00    +0.000 C 
ATOM     20  C   UNL     1       7.299   5.864  16.147  0.00  0.00    +0.000 C 
ATOM     21  C   UNL     1       7.283   4.627  17.054  0.00  0.00    +0.000 C 
ENDBRANCH  14  16
TORSDOF 1
ENDMDL
MODEL 8
REMARK VINA RESULT:      -6.1      5.411      8.488
REMARK  Name = 
REMARK  2 active torsions:
REMARK  status: ('A' for Active; 'I' for Inactive)
REMARK    1  A    between atoms: C_1  and  C_2
REMARK    2  A    between atoms: N_14  and  C_15
REMARK                            x       y       z     vdW  Elec       q    Type
REMARK                         _______ _______ _______ _____ _____    ______ ____
ROOT
ATOM      1  C   UNL     1       3.143   6.386  18.028  0.00  0.00    +0.000 C 
ATOM      2  C   UNL     1       2.364   7.516  18.631  0.00  0.00    +0.000 A 
ATOM      3  C   UNL     1       1.885   8.565  17.848  0.00  0.00    +0.000 A 
ATOM      4  C   UNL     1       1.112   9.580  18.423  0.00  0.00    +0.000 A 
ATOM      5  C   UNL     1       0.775   9.565  19.783  0.00  0.00    +0.000 A 
ATOM      6  C   UNL     1       1.347   8.559  20.591  0.00  0.00    +0.000 A 
ATOM      7  C   UNL     1       2.124   7.541  20.007  0.00  0.00    +0.000 A 
ATOM      8  C   UNL     1       1.195   8.547  22.093  0.00  0.00    +0.000 C 
ATOM      9  C   UNL     1       0.055   9.425  22.574  0.00  0.00    +0.000 C 
ATOM     10  C   UNL     1       0.078  10.738  21.819  0.00  0.00    +0.000 C 
ATOM     11  N   UNL     1      -0.110  10.525  20.379  0.00  0.00    +0.000 N 
ATOM     12  C   UNL     1      -1.121  11.275  19.771  0.00  0.00    +0.000 C 
ATOM     13  O   UNL     1      -1.778  12.108  20.395  0.00  0.00    +0.000 OA
ATOM     14  N   UNL     1      -1.387  11.009  18.450  0.00  0.00    +0.000 N 
ATOM     15  H   UNL     1      -1.302  10.024  18.244  0.00  0.00    +0.000 HD
ENDROOT
BRANCH  14  16
ATOM     16  C   UNL     1      -2.442  11.706  17.705  0.00  0.00    +0.000 C 
ATOM     17  C   UNL     1      -2.321  11.568  16.175  0.00  0.00    +0.000 C 
ATOM     18  C   UNL     1      -2.530  10.128  15.720  0.00  0.00    +0.000 C 
ATOM     19  C   UNL     1      -3.913   9.636  16.125  0.00  0.00    +0.000 C 
ATOM     20  C   UNL     1      -4.157   9.794  17.624  0.00  0.00    +0.000 C 
ATOM     21  C   UNL     1      -3.831  11.202  18.139  0.00  0.00    +0.000 C 
ENDBRANCH  14  16
TORSDOF 1
ENDMDL
MODEL 9
REMARK VINA RESULT:      -6.1      2.240      6.561
REMARK  Name = 
REMARK  2 active torsions:
REMARK  status: ('A' for Active; 'I' for Inactive)
REMARK    1  A    between atoms: C_1  and  C_2
REMARK    2  A    between atoms: N_14  and  C_15
REMARK                            x       y       z     vdW  Elec       q    Type
REMARK                         _______ _______ _______ _____ _____    ______ ____
ROOT
ATOM      1  C   UNL     1       6.451   3.486  12.548  0.00  0.00    +0.000 C 
ATOM      2  C   UNL     1       6.135   4.066  13.894  0.00  0.00    +0.000 A 
ATOM      3  C   UNL     1       4.996   3.679  14.599  0.00  0.00    +0.000 A 
ATOM      4  C   UNL     1       4.750   4.191  15.878  0.00  0.00    +0.000 A 
ATOM      5  C   UNL     1       5.641   5.077  16.498  0.00  0.00    +0.000 A 
ATOM      6  C   UNL     1       6.736   5.545  15.741  0.00  0.00    +0.000 A 
ATOM      7  C   UNL     1       6.978   5.028  14.455  0.00  0.00    +0.000 A 
ATOM      8  C   UNL     1       7.659   6.631  16.242  0.00  0.00    +0.000 C 
ATOM      9  C   UNL     1       7.559   6.839  17.741  0.00  0.00    +0.000 C 
ATOM     10  C   UNL     1       6.103   6.823  18.156  0.00  0.00    +0.000 C 
ATOM     11  N   UNL     1       5.478   5.530  17.850  0.00  0.00    +0.000 N 
ATOM     12  C   UNL     1       4.810   4.902  18.906  0.00  0.00    +0.000 C 
ATOM     13  O   UNL     1       4.704   5.428  20.013  0.00  0.00    +0.000 OA
ATOM     14  N   UNL     1       4.317   3.641  18.671  0.00  0.00    +0.000 N 
ATOM     15  H   UNL     1       4.934   3.104  18.079  0.00  0.00    +0.000 HD
ENDROOT
BRANCH  14  16
ATOM     16  C   UNL     1       3.622   2.864  19.703  0.00  0.00    +0.000 C 
ATOM     17  C   UNL     1       2.495   3.637  20.414  0.00  0.00    +0.000 C 
ATOM     18  C   UNL     1       1.350   3.968  19.462  0.00  0.00    +0.000 C 
ATOM     19  C   UNL     1       0.750   2.693  18.887  0.00  0.00    +0.000 C 
ATOM     20  C   UNL     1       1.806   1.819  18.215  0.00  0.00    +0.000 C 
ATOM     21  C   UNL     1       3.033   1.574  19.101  0.00  0.00    +0.000 C 
ENDBRANCH  14  16
TORSDOF 1
ENDMDL
