MODEL 1
REMARK VINA RESULT:      -7.0      0.000      0.000
REMARK  Name = 
REMARK  4 active torsions:
REMARK  status: ('A' for Active; 'I' for Inactive)
REMARK    1  A    between atoms: C_2  and  C_3
REMARK    2  A    between atoms: C_3  and  S_4
REMARK    3  A    between atoms: S_4  and  C_5
REMARK    4  A    between atoms: C_8  and  C_9
REMARK                            x       y       z     vdW  Elec       q    Type
REMARK                         _______ _______ _______ _____ _____    ______ ____
ROOT
ATOM      1  C   UNL     1       4.513   4.322  17.099  0.00  0.00    +0.000 A 
ATOM      2  S   UNL     1       4.034   2.766  17.624  0.00  0.00    +0.000 S 
ATOM      3  C   UNL     1       2.922   3.395  18.768  0.00  0.00    +0.000 A 
ATOM      4  C   UNL     1       2.104   2.648  19.637  0.00  0.00    +0.000 A 
ATOM      5  C   UNL     1       1.234   3.323  20.495  0.00  0.00    +0.000 A 
ATOM      6  C   UNL     1       1.178   4.708  20.491  0.00  0.00    +0.000 A 
ATOM      7  C   UNL     1       2.000   5.445  19.633  0.00  0.00    +0.000 A 
ATOM      8  C   UNL     1       2.899   4.792  18.748  0.00  0.00    +0.000 A 
ATOM      9  C   UNL     1       3.835   5.312  17.784  0.00  0.00    +0.000 A 
ATOM     10 CL   UNL     1       4.036   7.007  17.542  0.00  0.00    +0.000 Cl
ENDROOT
BRANCH   1  14
ATOM     11  C   UNL     1       6.549   4.365  14.219  0.00  0.00    +0.000 A 
ATOM     12  N   UNL     1       7.238   5.189  14.979  0.00  0.00    +0.000 NA
ATOM     13  N   UNL     1       6.557   5.273  16.174  0.00  0.00    +0.000 NA
ATOM     14  C   UNL     1       5.500   4.477  16.081  0.00  0.00    +0.000 A 
ATOM     15  O   UNL     1       5.464   3.848  14.860  0.00  0.00    +0.000 OA
BRANCH  11  16
ATOM     16  S   UNL     1       6.873   4.051  12.556  0.00  0.00    +0.000 S 
BRANCH  16  17
ATOM     17  C   UNL     1       5.395   3.086  12.086  0.00  0.00    +0.000 C 
BRANCH  17  19
ATOM     18  N   UNL     1       6.276   0.744  10.871  0.00  0.00    +0.000 NA
ATOM     19  C   UNL     1       5.877   1.806  11.422  0.00  0.00    +0.000 C 
ENDBRANCH  17  19
ENDBRANCH  16  17
ENDBRANCH  11  16
ENDBRANCH   1  14
TORSDOF 4
ENDMDL
MODEL 2
REMARK VINA RESULT:      -6.7      1.582      2.035
REMARK  Name = 
REMARK  4 active torsions:
REMARK  status: ('A' for Active; 'I' for Inactive)
REMARK    1  A    between atoms: C_2  and  C_3
REMARK    2  A    between atoms: C_3  and  S_4
REMARK    3  A    between atoms: S_4  and  C_5
REMARK    4  A    between atoms: C_8  and  C_9
REMARK                            x       y       z     vdW  Elec       q    Type
REMARK                         _______ _______ _______ _____ _____    ______ ____
ROOT
ATOM      1  C   UNL     1       4.870   5.281  16.870  0.00  0.00    +0.000 A 
ATOM      2  S   UNL     1       4.444   6.832  17.450  0.00  0.00    +0.000 S 
ATOM      3  C   UNL     1       3.331   6.200  18.591  0.00  0.00    +0.000 A 
ATOM      4  C   UNL     1       2.540   6.942  19.489  0.00  0.00    +0.000 A 
ATOM      5  C   UNL     1       1.698   6.263  20.369  0.00  0.00    +0.000 A 
ATOM      6  C   UNL     1       1.639   4.878  20.358  0.00  0.00    +0.000 A 
ATOM      7  C   UNL     1       2.418   4.146  19.457  0.00  0.00    +0.000 A 
ATOM      8  C   UNL     1       3.285   4.804  18.545  0.00  0.00    +0.000 A 
ATOM      9  C   UNL     1       4.175   4.289  17.536  0.00  0.00    +0.000 A 
ATOM     10 CL   UNL     1       4.326   2.597  17.240  0.00  0.00    +0.000 Cl
ENDROOT
BRANCH   1  14
ATOM     11  C   UNL     1       6.757   4.630  13.961  0.00  0.00    +0.000 A 
ATOM     12  N   UNL     1       7.633   5.353  14.626  0.00  0.00    +0.000 NA
ATOM     13  N   UNL     1       7.032   5.688  15.820  0.00  0.00    +0.000 NA
ATOM     14  C   UNL     1       5.827   5.130  15.824  0.00  0.00    +0.000 A 
ATOM     15  O   UNL     1       5.612   4.416  14.670  0.00  0.00    +0.000 OA
BRANCH  11  16
ATOM     16  S   UNL     1       6.942   4.107  12.330  0.00  0.00    +0.000 S 
BRANCH  16  17
ATOM     17  C   UNL     1       5.463   3.056  12.127  0.00  0.00    +0.000 C 
BRANCH  17  19
ATOM     18  N   UNL     1       6.263   0.723  10.840  0.00  0.00    +0.000 NA
ATOM     19  C   UNL     1       5.900   1.781  11.424  0.00  0.00    +0.000 C 
ENDBRANCH  17  19
ENDBRANCH  16  17
ENDBRANCH  11  16
ENDBRANCH   1  14
TORSDOF 4
ENDMDL
MODEL 3
REMARK VINA RESULT:      -6.7      1.837      2.248
REMARK  Name = 
REMARK  4 active torsions:
REMARK  status: ('A' for Active; 'I' for Inactive)
REMARK    1  A    between atoms: C_2  and  C_3
REMARK    2  A    between atoms: C_3  and  S_4
REMARK    3  A    between atoms: S_4  and  C_5
REMARK    4  A    between atoms: C_8  and  C_9
REMARK                            x       y       z     vdW  Elec       q    Type
REMARK                         _______ _______ _______ _____ _____    ______ ____
ROOT
ATOM      1  C   UNL     1       4.787   5.217  16.911  0.00  0.00    +0.000 A 
ATOM      2  S   UNL     1       4.365   6.771  17.486  0.00  0.00    +0.000 S 
ATOM      3  C   UNL     1       3.267   6.144  18.644  0.00  0.00    +0.000 A 
ATOM      4  C   UNL     1       2.486   6.890  19.547  0.00  0.00    +0.000 A 
ATOM      5  C   UNL     1       1.655   6.216  20.442  0.00  0.00    +0.000 A 
ATOM      6  C   UNL     1       1.599   4.830  20.440  0.00  0.00    +0.000 A 
ATOM      7  C   UNL     1       2.368   4.094  19.534  0.00  0.00    +0.000 A 
ATOM      8  C   UNL     1       3.223   4.748  18.607  0.00  0.00    +0.000 A 
ATOM      9  C   UNL     1       4.101   4.228  17.590  0.00  0.00    +0.000 A 
ATOM     10 CL   UNL     1       4.251   2.535  17.303  0.00  0.00    +0.000 Cl
ENDROOT
BRANCH   1  14
ATOM     11  C   UNL     1       6.624   4.611  13.961  0.00  0.00    +0.000 A 
ATOM     12  N   UNL     1       7.550   5.225  14.666  0.00  0.00    +0.000 NA
ATOM     13  N   UNL     1       6.974   5.528  15.880  0.00  0.00    +0.000 NA
ATOM     14  C   UNL     1       5.732   5.062  15.854  0.00  0.00    +0.000 A 
ATOM     15  O   UNL     1       5.466   4.439  14.658  0.00  0.00    +0.000 OA
BRANCH  11  16
ATOM     16  S   UNL     1       6.772   4.178  12.300  0.00  0.00    +0.000 S 
BRANCH  16  17
ATOM     17  C   UNL     1       5.656   2.735  12.211  0.00  0.00    +0.000 C 
BRANCH  17  19
ATOM     18  N   UNL     1       3.466   3.463  10.659  0.00  0.00    +0.000 NA
ATOM     19  C   UNL     1       4.460   3.133  11.363  0.00  0.00    +0.000 C 
ENDBRANCH  17  19
ENDBRANCH  16  17
ENDBRANCH  11  16
ENDBRANCH   1  14
TORSDOF 4
ENDMDL
MODEL 4
REMARK VINA RESULT:      -6.6      1.375      1.395
REMARK  Name = 
REMARK  4 active torsions:
REMARK  status: ('A' for Active; 'I' for Inactive)
REMARK    1  A    between atoms: C_2  and  C_3
REMARK    2  A    between atoms: C_3  and  S_4
REMARK    3  A    between atoms: S_4  and  C_5
REMARK    4  A    between atoms: C_8  and  C_9
REMARK                            x       y       z     vdW  Elec       q    Type
REMARK                         _______ _______ _______ _____ _____    ______ ____
ROOT
ATOM      1  C   UNL     1       4.498   4.046  17.306  0.00  0.00    +0.000 A 
ATOM      2  S   UNL     1       3.074   3.179  16.925  0.00  0.00    +0.000 S 
ATOM      3  C   UNL     1       2.417   3.389  18.495  0.00  0.00    +0.000 A 
ATOM      4  C   UNL     1       1.178   2.905  18.956  0.00  0.00    +0.000 A 
ATOM      5  C   UNL     1       0.785   3.186  20.264  0.00  0.00    +0.000 A 
ATOM      6  C   UNL     1       1.605   3.930  21.099  0.00  0.00    +0.000 A 
ATOM      7  C   UNL     1       2.839   4.399  20.641  0.00  0.00    +0.000 A 
ATOM      8  C   UNL     1       3.272   4.130  19.315  0.00  0.00    +0.000 A 
ATOM      9  C   UNL     1       4.477   4.493  18.614  0.00  0.00    +0.000 A 
ATOM     10 CL   UNL     1       5.728   5.404  19.375  0.00  0.00    +0.000 Cl
ENDROOT
BRANCH   1  14
ATOM     11  C   UNL     1       6.570   4.387  14.472  0.00  0.00    +0.000 A 
ATOM     12  N   UNL     1       7.423   4.755  15.405  0.00  0.00    +0.000 NA
ATOM     13  N   UNL     1       6.748   4.665  16.603  0.00  0.00    +0.000 NA
ATOM     14  C   UNL     1       5.525   4.227  16.333  0.00  0.00    +0.000 A 
ATOM     15  O   UNL     1       5.368   4.004  14.986  0.00  0.00    +0.000 OA
BRANCH  11  16
ATOM     16  S   UNL     1       6.857   4.490  12.776  0.00  0.00    +0.000 S 
BRANCH  16  17
ATOM     17  C   UNL     1       6.232   2.868  12.215  0.00  0.00    +0.000 C 
BRANCH  17  19
ATOM     18  N   UNL     1       3.751   3.291  11.030  0.00  0.00    +0.000 NA
ATOM     19  C   UNL     1       4.876   3.099  11.568  0.00  0.00    +0.000 C 
ENDBRANCH  17  19
ENDBRANCH  16  17
ENDBRANCH  11  16
ENDBRANCH   1  14
TORSDOF 4
ENDMDL
MODEL 5
REMARK VINA RESULT:      -6.3      3.382      4.958
REMARK  Name = 
REMARK  4 active torsions:
REMARK  status: ('A' for Active; 'I' for Inactive)
REMARK    1  A    between atoms: C_2  and  C_3
REMARK    2  A    between atoms: C_3  and  S_4
REMARK    3  A    between atoms: S_4  and  C_5
REMARK    4  A    between atoms: C_8  and  C_9
REMARK                            x       y       z     vdW  Elec       q    Type
REMARK                         _______ _______ _______ _____ _____    ______ ____
ROOT
ATOM      1  C   UNL     1       2.730   6.467  18.569  0.00  0.00    +0.000 A 
ATOM      2  S   UNL     1       2.495   7.974  17.795  0.00  0.00    +0.000 S 
ATOM      3  C   UNL     1       1.730   8.662  19.168  0.00  0.00    +0.000 A 
ATOM      4  C   UNL     1       1.224   9.971  19.275  0.00  0.00    +0.000 A 
ATOM      5  C   UNL     1       0.648  10.378  20.479  0.00  0.00    +0.000 A 
ATOM      6  C   UNL     1       0.575   9.504  21.553  0.00  0.00    +0.000 A 
ATOM      7  C   UNL     1       1.071   8.201  21.438  0.00  0.00    +0.000 A 
ATOM      8  C   UNL     1       1.660   7.753  20.226  0.00  0.00    +0.000 A 
ATOM      9  C   UNL     1       2.234   6.483  19.859  0.00  0.00    +0.000 A 
ATOM     10 CL   UNL     1       2.282   5.159  20.961  0.00  0.00    +0.000 Cl
ENDROOT
BRANCH   1  14
ATOM     11  C   UNL     1       4.626   4.255  16.580  0.00  0.00    +0.000 A 
ATOM     12  N   UNL     1       4.020   3.380  17.352  0.00  0.00    +0.000 NA
ATOM     13  N   UNL     1       3.215   4.107  18.203  0.00  0.00    +0.000 NA
ATOM     14  C   UNL     1       3.362   5.387  17.886  0.00  0.00    +0.000 A 
ATOM     15  O   UNL     1       4.233   5.535  16.832  0.00  0.00    +0.000 OA
BRANCH  11  16
ATOM     16  S   UNL     1       5.879   3.881  15.458  0.00  0.00    +0.000 S 
BRANCH  16  17
ATOM     17  C   UNL     1       7.167   5.076  15.957  0.00  0.00    +0.000 C 
BRANCH  17  19
ATOM     18  N   UNL     1       7.758   4.603  18.633  0.00  0.00    +0.000 NA
ATOM     19  C   UNL     1       7.490   4.817  17.419  0.00  0.00    +0.000 C 
ENDBRANCH  17  19
ENDBRANCH  16  17
ENDBRANCH  11  16
ENDBRANCH   1  14
TORSDOF 4
ENDMDL
MODEL 6
REMARK VINA RESULT:      -6.2      3.633      5.382
REMARK  Name = 
REMARK  4 active torsions:
REMARK  status: ('A' for Active; 'I' for Inactive)
REMARK    1  A    between atoms: C_2  and  C_3
REMARK    2  A    between atoms: C_3  and  S_4
REMARK    3  A    between atoms: S_4  and  C_5
REMARK    4  A    between atoms: C_8  and  C_9
REMARK                            x       y       z     vdW  Elec       q    Type
REMARK                         _______ _______ _______ _____ _____    ______ ____
ROOT
ATOM      1  C   UNL     1       2.510   6.935  18.632  0.00  0.00    +0.000 A 
ATOM      2  S   UNL     1       2.210   8.460  17.920  0.00  0.00    +0.000 S 
ATOM      3  C   UNL     1       1.459   9.074  19.335  0.00  0.00    +0.000 A 
ATOM      4  C   UNL     1       0.916  10.362  19.502  0.00  0.00    +0.000 A 
ATOM      5  C   UNL     1       0.358  10.707  20.733  0.00  0.00    +0.000 A 
ATOM      6  C   UNL     1       0.338   9.793  21.776  0.00  0.00    +0.000 A 
ATOM      7  C   UNL     1       0.869   8.511  21.601  0.00  0.00    +0.000 A 
ATOM      8  C   UNL     1       1.443   8.126  20.360  0.00  0.00    +0.000 A 
ATOM      9  C   UNL     1       2.045   6.889  19.933  0.00  0.00    +0.000 A 
ATOM     10 CL   UNL     1       2.160   5.527  20.984  0.00  0.00    +0.000 Cl
ENDROOT
BRANCH   1  14
ATOM     11  C   UNL     1       4.611   4.778  16.794  0.00  0.00    +0.000 A 
ATOM     12  N   UNL     1       3.604   3.959  17.012  0.00  0.00    +0.000 NA
ATOM     13  N   UNL     1       2.672   4.675  17.732  0.00  0.00    +0.000 NA
ATOM     14  C   UNL     1       3.157   5.900  17.895  0.00  0.00    +0.000 A 
ATOM     15  O   UNL     1       4.383   6.028  17.287  0.00  0.00    +0.000 OA
BRANCH  11  16
ATOM     16  S   UNL     1       6.116   4.326  16.088  0.00  0.00    +0.000 S 
BRANCH  16  17
ATOM     17  C   UNL     1       7.287   4.863  17.382  0.00  0.00    +0.000 C 
BRANCH  17  19
ATOM     18  N   UNL     1       7.563   7.623  17.170  0.00  0.00    +0.000 NA
ATOM     19  C   UNL     1       7.438   6.371  17.266  0.00  0.00    +0.000 C 
ENDBRANCH  17  19
ENDBRANCH  16  17
ENDBRANCH  11  16
ENDBRANCH   1  14
TORSDOF 4
ENDMDL
MODEL 7
REMARK VINA RESULT:      -6.2      4.096      5.862
REMARK  Name = 
REMARK  4 active torsions:
REMARK  status: ('A' for Active; 'I' for Inactive)
REMARK    1  A    between atoms: C_2  and  C_3
REMARK    2  A    between atoms: C_3  and  S_4
REMARK    3  A    between atoms: S_4  and  C_5
REMARK    4  A    between atoms: C_8  and  C_9
REMARK                            x       y       z     vdW  Elec       q    Type
REMARK                         _______ _______ _______ _____ _____    ______ ____
ROOT
ATOM      1  C   UNL     1       2.461   7.623  18.721  0.00  0.00    +0.000 A 
ATOM      2  S   UNL     1       2.044   9.146  18.067  0.00  0.00    +0.000 S 
ATOM      3  C   UNL     1       1.096   9.574  19.430  0.00  0.00    +0.000 A 
ATOM      4  C   UNL     1       0.386  10.776  19.612  0.00  0.00    +0.000 A 
ATOM      5  C   UNL     1      -0.322  10.971  20.798  0.00  0.00    +0.000 A 
ATOM      6  C   UNL     1      -0.327   9.995  21.782  0.00  0.00    +0.000 A 
ATOM      7  C   UNL     1       0.371   8.798  21.593  0.00  0.00    +0.000 A 
ATOM      8  C   UNL     1       1.100   8.564  20.396  0.00  0.00    +0.000 A 
ATOM      9  C   UNL     1       1.887   7.437  19.965  0.00  0.00    +0.000 A 
ATOM     10 CL   UNL     1       2.069   6.032  20.947  0.00  0.00    +0.000 Cl
ENDROOT
BRANCH   1  14
ATOM     11  C   UNL     1       4.964   5.863  16.965  0.00  0.00    +0.000 A 
ATOM     12  N   UNL     1       4.073   4.902  17.085  0.00  0.00    +0.000 NA
ATOM     13  N   UNL     1       3.003   5.449  17.761  0.00  0.00    +0.000 NA
ATOM     14  C   UNL     1       3.297   6.721  17.998  0.00  0.00    +0.000 A 
ATOM     15  O   UNL     1       4.529   7.046  17.482  0.00  0.00    +0.000 OA
BRANCH  11  16
ATOM     16  S   UNL     1       6.561   5.656  16.353  0.00  0.00    +0.000 S 
BRANCH  16  17
ATOM     17  C   UNL     1       7.517   6.707  17.501  0.00  0.00    +0.000 C 
BRANCH  17  19
ATOM     18  N   UNL     1       7.601   5.404  19.957  0.00  0.00    +0.000 NA
ATOM     19  C   UNL     1       7.563   5.995  18.843  0.00  0.00    +0.000 C 
ENDBRANCH  17  19
ENDBRANCH  16  17
ENDBRANCH  11  16
ENDBRANCH   1  14
TORSDOF 4
ENDMDL
MODEL 8
REMARK VINA RESULT:      -6.1      3.451      4.540
REMARK  Name = 
REMARK  4 active torsions:
REMARK  status: ('A' for Active; 'I' for Inactive)
REMARK    1  A    between atoms: C_2  and  C_3
REMARK    2  A    between atoms: C_3  and  S_4
REMARK    3  A    between atoms: S_4  and  C_5
REMARK    4  A    between atoms: C_8  and  C_9
REMARK                            x       y       z     vdW  Elec       q    Type
REMARK                         _______ _______ _______ _____ _____    ______ ____
ROOT
ATOM      1  C   UNL     1       2.742   6.910  18.622  0.00  0.00    +0.000 A 
ATOM      2  S   UNL     1       2.440   8.442  17.928  0.00  0.00    +0.000 S 
ATOM      3  C   UNL     1       1.527   8.976  19.278  0.00  0.00    +0.000 A 
ATOM      4  C   UNL     1       0.909  10.231  19.427  0.00  0.00    +0.000 A 
ATOM      5  C   UNL     1       0.219  10.511  20.607  0.00  0.00    +0.000 A 
ATOM      6  C   UNL     1       0.142   9.563  21.616  0.00  0.00    +0.000 A 
ATOM      7  C   UNL     1       0.748   8.313  21.459  0.00  0.00    +0.000 A 
ATOM      8  C   UNL     1       1.457   7.994  20.270  0.00  0.00    +0.000 A 
ATOM      9  C   UNL     1       2.156   6.800  19.869  0.00  0.00    +0.000 A 
ATOM     10 CL   UNL     1       2.233   5.411  20.888  0.00  0.00    +0.000 Cl
ENDROOT
BRANCH   1  14
ATOM     11  C   UNL     1       5.137   4.857  17.042  0.00  0.00    +0.000 A 
ATOM     12  N   UNL     1       4.080   4.080  16.925  0.00  0.00    +0.000 NA
ATOM     13  N   UNL     1       3.032   4.764  17.503  0.00  0.00    +0.000 NA
ATOM     14  C   UNL     1       3.507   5.929  17.924  0.00  0.00    +0.000 A 
ATOM     15  O   UNL     1       4.843   6.052  17.626  0.00  0.00    +0.000 OA
BRANCH  11  16
ATOM     16  S   UNL     1       6.748   4.398  16.639  0.00  0.00    +0.000 S 
BRANCH  16  17
ATOM     17  C   UNL     1       6.950   5.214  15.017  0.00  0.00    +0.000 C 
BRANCH  17  19
ATOM     18  N   UNL     1       5.964   3.480  13.078  0.00  0.00    +0.000 NA
ATOM     19  C   UNL     1       6.412   4.267  13.958  0.00  0.00    +0.000 C 
ENDBRANCH  17  19
ENDBRANCH  16  17
ENDBRANCH  11  16
ENDBRANCH   1  14
TORSDOF 4
ENDMDL
MODEL 9
REMARK VINA RESULT:      -5.9      3.100      7.156
REMARK  Name = 
REMARK  4 active torsions:
REMARK  status: ('A' for Active; 'I' for Inactive)
REMARK    1  A    between atoms: C_2  and  C_3
REMARK    2  A    between atoms: C_3  and  S_4
REMARK    3  A    between atoms: S_4  and  C_5
REMARK    4  A    between atoms: C_8  and  C_9
REMARK                            x       y       z     vdW  Elec       q    Type
REMARK                         _______ _______ _______ _____ _____    ______ ____
ROOT
ATOM      1  C   UNL     1       5.455   4.731  16.656  0.00  0.00    +0.000 A 
ATOM      2  S   UNL     1       4.829   3.609  15.529  0.00  0.00    +0.000 S 
ATOM      3  C   UNL     1       5.937   4.078  14.308  0.00  0.00    +0.000 A 
ATOM      4  C   UNL     1       6.021   3.550  13.005  0.00  0.00    +0.000 A 
ATOM      5  C   UNL     1       7.003   4.034  12.140  0.00  0.00    +0.000 A 
ATOM      6  C   UNL     1       7.882   5.022  12.558  0.00  0.00    +0.000 A 
ATOM      7  C   UNL     1       7.788   5.551  13.849  0.00  0.00    +0.000 A 
ATOM      8  C   UNL     1       6.799   5.083  14.755  0.00  0.00    +0.000 A 
ATOM      9  C   UNL     1       6.498   5.457  16.113  0.00  0.00    +0.000 A 
ATOM     10 CL   UNL     1       7.391   6.684  16.933  0.00  0.00    +0.000 Cl
ENDROOT
BRANCH   1  14
ATOM     11  C   UNL     1       3.572   5.236  19.596  0.00  0.00    +0.000 A 
ATOM     12  N   UNL     1       4.592   4.581  20.107  0.00  0.00    +0.000 NA
ATOM     13  N   UNL     1       5.443   4.311  19.057  0.00  0.00    +0.000 NA
ATOM     14  C   UNL     1       4.901   4.837  17.966  0.00  0.00    +0.000 A 
ATOM     15  O   UNL     1       3.716   5.467  18.261  0.00  0.00    +0.000 OA
BRANCH  11  16
ATOM     16  S   UNL     1       2.138   5.655  20.454  0.00  0.00    +0.000 S 
BRANCH  16  17
ATOM     17  C   UNL     1       1.109   4.173  20.164  0.00  0.00    +0.000 C 
BRANCH  17  19
ATOM     18  N   UNL     1       1.715   2.329  22.157  0.00  0.00    +0.000 NA
ATOM     19  C   UNL     1       1.440   3.166  21.253  0.00  0.00    +0.000 C 
ENDBRANCH  17  19
ENDBRANCH  16  17
ENDBRANCH  11  16
ENDBRANCH   1  14
TORSDOF 4
ENDMDL
