MODEL 1
REMARK VINA RESULT:      -8.7      0.000      0.000
REMARK  Name = 
REMARK  4 active torsions:
REMARK  status: ('A' for Active; 'I' for Inactive)
REMARK    1  A    between atoms: C_1  and  C_2
REMARK    2  A    between atoms: C_7  and  N_8
REMARK    3  A    between atoms: C_12  and  C_13
REMARK    4  A    between atoms: C_13  and  C_15
REMARK                            x       y       z     vdW  Elec       q    Type
REMARK                         _______ _______ _______ _____ _____    ______ ____
ROOT
ATOM      1  N   UNL     1      -0.409  11.338  20.309  0.00  0.00    +0.000 NA
ATOM      2  C   UNL     1      -1.512  11.158  19.373  0.00  0.00    +0.000 C 
ATOM      3  C   UNL     1      -1.344   9.928  18.482  0.00  0.00    +0.000 C 
ATOM      4  C   UNL     1      -0.004   9.953  17.763  0.00  0.00    +0.000 C 
ATOM      5  C   UNL     1       1.151  10.087  18.758  0.00  0.00    +0.000 C 
ATOM      6  C   UNL     1       0.914  11.291  19.677  0.00  0.00    +0.000 C 
ENDROOT
BRANCH   1  13
ATOM      7  C   UNL     1      -5.331  13.671  22.959  0.00  0.00    +0.000 C 
ATOM      8  C   UNL     1      -4.293  12.701  23.459  0.00  0.00    +0.000 C 
ATOM      9  O   UNL     1      -4.493  12.072  24.499  0.00  0.00    +0.000 OA
ATOM     10  N   UNL     1      -3.132  12.563  22.709  0.00  0.00    +0.000 N 
ATOM     11  C   UNL     1      -2.175  11.541  23.128  0.00  0.00    +0.000 C 
ATOM     12  C   UNL     1      -0.729  11.916  22.798  0.00  0.00    +0.000 C 
ATOM     13  C   UNL     1      -0.528  12.393  21.344  0.00  0.00    +0.000 C 
ATOM     14  C   UNL     1      -1.556  13.517  21.082  0.00  0.00    +0.000 C 
ATOM     15  C   UNL     1      -2.983  13.058  21.340  0.00  0.00    +0.000 C 
ENDBRANCH   1  13
BRANCH   5  16
ATOM     16  C   UNL     1       1.453   8.819  19.567  0.00  0.00    +0.000 C 
ATOM     17  O   UNL     1       1.132   8.689  20.746  0.00  0.00    +0.000 OA
BRANCH  16  18
ATOM     18  C   UNL     1       2.275   7.751  18.935  0.00  0.00    +0.000 A 
ATOM     19  C   UNL     1       3.047   8.073  17.790  0.00  0.00    +0.000 A 
ATOM     20  C   UNL     1       3.846   7.124  17.141  0.00  0.00    +0.000 A 
ATOM     21  C   UNL     1       3.856   5.856  17.694  0.00  0.00    +0.000 A 
ATOM     22  C   UNL     1       3.119   5.553  18.820  0.00  0.00    +0.000 A 
ATOM     23  C   UNL     1       3.303   4.234  19.196  0.00  0.00    +0.000 A 
ATOM     24  C   UNL     1       2.667   3.702  20.309  0.00  0.00    +0.000 A 
ATOM     25  C   UNL     1       1.824   4.571  21.017  0.00  0.00    +0.000 A 
ATOM     26  C   UNL     1       1.642   5.912  20.620  0.00  0.00    +0.000 A 
ATOM     27  C   UNL     1       2.315   6.439  19.487  0.00  0.00    +0.000 A 
ATOM     28  C   UNL     1       4.248   3.556  18.266  0.00  0.00    +0.000 C 
ATOM     29  C   UNL     1       4.612   4.661  17.226  0.00  0.00    +0.000 C 
ENDBRANCH  16  18
ENDBRANCH   5  16
TORSDOF 3
ENDMDL
MODEL 2
REMARK VINA RESULT:      -8.7      3.902      9.195
REMARK  Name = 
REMARK  4 active torsions:
REMARK  status: ('A' for Active; 'I' for Inactive)
REMARK    1  A    between atoms: C_1  and  C_2
REMARK    2  A    between atoms: C_7  and  N_8
REMARK    3  A    between atoms: C_12  and  C_13
REMARK    4  A    between atoms: C_13  and  C_15
REMARK                            x       y       z     vdW  Elec       q    Type
REMARK                         _______ _______ _______ _____ _____    ______ ____
ROOT
ATOM      1  N   UNL     1       3.439   4.262  19.200  0.00  0.00    +0.000 NA
ATOM      2  C   UNL     1       2.355   3.488  19.790  0.00  0.00    +0.000 C 
ATOM      3  C   UNL     1       1.087   4.310  20.013  0.00  0.00    +0.000 C 
ATOM      4  C   UNL     1       1.381   5.561  20.825  0.00  0.00    +0.000 C 
ATOM      5  C   UNL     1       2.483   6.396  20.169  0.00  0.00    +0.000 C 
ATOM      6  C   UNL     1       3.714   5.522  19.900  0.00  0.00    +0.000 C 
ENDROOT
BRANCH   1  13
ATOM      7  C   UNL     1       6.358   4.325  13.892  0.00  0.00    +0.000 C 
ATOM      8  C   UNL     1       6.677   4.971  15.215  0.00  0.00    +0.000 C 
ATOM      9  O   UNL     1       7.555   5.832  15.280  0.00  0.00    +0.000 OA
ATOM     10  N   UNL     1       5.952   4.551  16.323  0.00  0.00    +0.000 N 
ATOM     11  C   UNL     1       6.180   5.255  17.584  0.00  0.00    +0.000 C 
ATOM     12  C   UNL     1       5.982   4.355  18.805  0.00  0.00    +0.000 C 
ATOM     13  C   UNL     1       4.667   3.547  18.776  0.00  0.00    +0.000 C 
ATOM     14  C   UNL     1       4.613   2.807  17.420  0.00  0.00    +0.000 C 
ATOM     15  C   UNL     1       4.723   3.762  16.242  0.00  0.00    +0.000 C 
ENDBRANCH   1  13
BRANCH   5  16
ATOM     16  C   UNL     1       2.050   7.152  18.905  0.00  0.00    +0.000 C 
ATOM     17  O   UNL     1       2.033   6.633  17.792  0.00  0.00    +0.000 OA
BRANCH  16  18
ATOM     18  C   UNL     1       1.755   8.607  19.014  0.00  0.00    +0.000 A 
ATOM     19  C   UNL     1       2.182   9.468  17.972  0.00  0.00    +0.000 A 
ATOM     20  C   UNL     1       1.940  10.847  18.003  0.00  0.00    +0.000 A 
ATOM     21  C   UNL     1       1.241  11.320  19.098  0.00  0.00    +0.000 A 
ATOM     22  C   UNL     1       0.810  10.474  20.100  0.00  0.00    +0.000 A 
ATOM     23  C   UNL     1       0.119  11.169  21.076  0.00  0.00    +0.000 A 
ATOM     24  C   UNL     1      -0.418  10.525  22.182  0.00  0.00    +0.000 A 
ATOM     25  C   UNL     1      -0.210   9.140  22.255  0.00  0.00    +0.000 A 
ATOM     26  C   UNL     1       0.501   8.444  21.255  0.00  0.00    +0.000 A 
ATOM     27  C   UNL     1       1.027   9.121  20.125  0.00  0.00    +0.000 A 
ATOM     28  C   UNL     1       0.053  12.617  20.734  0.00  0.00    +0.000 C 
ATOM     29  C   UNL     1       0.837  12.723  19.389  0.00  0.00    +0.000 C 
ENDBRANCH  16  18
ENDBRANCH   5  16
TORSDOF 3
ENDMDL
MODEL 3
REMARK VINA RESULT:      -8.6      2.423      4.164
REMARK  Name = 
REMARK  4 active torsions:
REMARK  status: ('A' for Active; 'I' for Inactive)
REMARK    1  A    between atoms: C_1  and  C_2
REMARK    2  A    between atoms: C_7  and  N_8
REMARK    3  A    between atoms: C_12  and  C_13
REMARK    4  A    between atoms: C_13  and  C_15
REMARK                            x       y       z     vdW  Elec       q    Type
REMARK                         _______ _______ _______ _____ _____    ______ ____
ROOT
ATOM      1  N   UNL     1      -0.112  11.129  20.944  0.00  0.00    +0.000 NA
ATOM      2  C   UNL     1      -0.754  11.099  22.251  0.00  0.00    +0.000 C 
ATOM      3  C   UNL     1      -0.443   9.828  23.040  0.00  0.00    +0.000 C 
ATOM      4  C   UNL     1      -0.778   8.586  22.230  0.00  0.00    +0.000 C 
ATOM      5  C   UNL     1      -0.056   8.599  20.880  0.00  0.00    +0.000 C 
ATOM      6  C   UNL     1      -0.338   9.916  20.148  0.00  0.00    +0.000 C 
ENDROOT
BRANCH   1  13
ATOM      7  C   UNL     1       4.015  15.476  20.068  0.00  0.00    +0.000 C 
ATOM      8  C   UNL     1       3.527  14.367  19.172  0.00  0.00    +0.000 C 
ATOM      9  O   UNL     1       4.143  14.097  18.141  0.00  0.00    +0.000 OA
ATOM     10  N   UNL     1       2.377  13.690  19.560  0.00  0.00    +0.000 N 
ATOM     11  C   UNL     1       1.965  12.542  18.754  0.00  0.00    +0.000 C 
ATOM     12  C   UNL     1       0.449  12.343  18.743  0.00  0.00    +0.000 C 
ATOM     13  C   UNL     1      -0.193  12.376  20.146  0.00  0.00    +0.000 C 
ATOM     14  C   UNL     1       0.276  13.678  20.836  0.00  0.00    +0.000 C 
ATOM     15  C   UNL     1       1.792  13.778  20.898  0.00  0.00    +0.000 C 
ENDBRANCH   1  13
BRANCH   5  16
ATOM     16  C   UNL     1       1.449   8.313  20.953  0.00  0.00    +0.000 C 
ATOM     17  O   UNL     1       2.186   8.835  21.786  0.00  0.00    +0.000 OA
BRANCH  16  18
ATOM     18  C   UNL     1       2.063   7.463  19.896  0.00  0.00    +0.000 A 
ATOM     19  C   UNL     1       2.613   8.092  18.751  0.00  0.00    +0.000 A 
ATOM     20  C   UNL     1       3.208   7.360  17.716  0.00  0.00    +0.000 A 
ATOM     21  C   UNL     1       3.249   5.988  17.885  0.00  0.00    +0.000 A 
ATOM     22  C   UNL     1       2.732   5.383  19.011  0.00  0.00    +0.000 A 
ATOM     23  C   UNL     1       2.905   4.011  18.965  0.00  0.00    +0.000 A 
ATOM     24  C   UNL     1       2.469   3.190  19.996  0.00  0.00    +0.000 A 
ATOM     25  C   UNL     1       1.838   3.828  21.073  0.00  0.00    +0.000 A 
ATOM     26  C   UNL     1       1.663   5.227  21.105  0.00  0.00    +0.000 A 
ATOM     27  C   UNL     1       2.131   6.049  20.047  0.00  0.00    +0.000 A 
ATOM     28  C   UNL     1       3.605   3.619  17.710  0.00  0.00    +0.000 C 
ATOM     29  C   UNL     1       3.824   4.970  16.962  0.00  0.00    +0.000 C 
ENDBRANCH  16  18
ENDBRANCH   5  16
TORSDOF 3
ENDMDL
MODEL 4
REMARK VINA RESULT:      -8.5      2.587      3.695
REMARK  Name = 
REMARK  4 active torsions:
REMARK  status: ('A' for Active; 'I' for Inactive)
REMARK    1  A    between atoms: C_1  and  C_2
REMARK    2  A    between atoms: C_7  and  N_8
REMARK    3  A    between atoms: C_12  and  C_13
REMARK    4  A    between atoms: C_13  and  C_15
REMARK                            x       y       z     vdW  Elec       q    Type
REMARK                         _______ _______ _______ _____ _____    ______ ____
ROOT
ATOM      1  N   UNL     1       0.537  11.566  19.985  0.00  0.00    +0.000 NA
ATOM      2  C   UNL     1      -0.845  11.450  19.536  0.00  0.00    +0.000 C 
ATOM      3  C   UNL     1      -1.170  10.075  18.957  0.00  0.00    +0.000 C 
ATOM      4  C   UNL     1      -0.195   9.701  17.852  0.00  0.00    +0.000 C 
ATOM      5  C   UNL     1       1.251   9.773  18.348  0.00  0.00    +0.000 C 
ATOM      6  C   UNL     1       1.520  11.143  18.981  0.00  0.00    +0.000 C 
ENDROOT
BRANCH   1  13
ATOM      7  C   UNL     1       2.747  16.813  17.915  0.00  0.00    +0.000 C 
ATOM      8  C   UNL     1       1.382  16.438  18.429  0.00  0.00    +0.000 C 
ATOM      9  O   UNL     1       0.433  17.206  18.264  0.00  0.00    +0.000 OA
ATOM     10  N   UNL     1       1.257  15.219  19.085  0.00  0.00    +0.000 N 
ATOM     11  C   UNL     1      -0.086  14.802  19.484  0.00  0.00    +0.000 C 
ATOM     12  C   UNL     1      -0.084  13.945  20.751  0.00  0.00    +0.000 C 
ATOM     13  C   UNL     1       0.939  12.790  20.720  0.00  0.00    +0.000 C 
ATOM     14  C   UNL     1       2.312  13.402  20.359  0.00  0.00    +0.000 C 
ATOM     15  C   UNL     1       2.271  14.165  19.045  0.00  0.00    +0.000 C 
ENDBRANCH   1  13
BRANCH   5  16
ATOM     16  C   UNL     1       1.665   8.633  19.287  0.00  0.00    +0.000 C 
ATOM     17  O   UNL     1       1.475   8.668  20.501  0.00  0.00    +0.000 OA
BRANCH  16  18
ATOM     18  C   UNL     1       2.438   7.492  18.723  0.00  0.00    +0.000 A 
ATOM     19  C   UNL     1       3.324   7.737  17.644  0.00  0.00    +0.000 A 
ATOM     20  C   UNL     1       4.085   6.716  17.062  0.00  0.00    +0.000 A 
ATOM     21  C   UNL     1       3.940   5.456  17.614  0.00  0.00    +0.000 A 
ATOM     22  C   UNL     1       3.091   5.228  18.678  0.00  0.00    +0.000 A 
ATOM     23  C   UNL     1       3.128   3.901  19.069  0.00  0.00    +0.000 A 
ATOM     24  C   UNL     1       2.361   3.435  20.128  0.00  0.00    +0.000 A 
ATOM     25  C   UNL     1       1.544   4.381  20.765  0.00  0.00    +0.000 A 
ATOM     26  C   UNL     1       1.513   5.729  20.354  0.00  0.00    +0.000 A 
ATOM     27  C   UNL     1       2.318   6.186  19.278  0.00  0.00    +0.000 A 
ATOM     28  C   UNL     1       4.081   3.135  18.217  0.00  0.00    +0.000 C 
ATOM     29  C   UNL     1       4.623   4.196  17.210  0.00  0.00    +0.000 C 
ENDBRANCH  16  18
ENDBRANCH   5  16
TORSDOF 3
ENDMDL
MODEL 5
REMARK VINA RESULT:      -8.5      2.214      3.394
REMARK  Name = 
REMARK  4 active torsions:
REMARK  status: ('A' for Active; 'I' for Inactive)
REMARK    1  A    between atoms: C_1  and  C_2
REMARK    2  A    between atoms: C_7  and  N_8
REMARK    3  A    between atoms: C_12  and  C_13
REMARK    4  A    between atoms: C_13  and  C_15
REMARK                            x       y       z     vdW  Elec       q    Type
REMARK                         _______ _______ _______ _____ _____    ______ ____
ROOT
ATOM      1  N   UNL     1      -0.312  10.897  20.669  0.00  0.00    +0.000 NA
ATOM      2  C   UNL     1      -0.848  11.144  22.002  0.00  0.00    +0.000 C 
ATOM      3  C   UNL     1      -0.413  10.095  23.024  0.00  0.00    +0.000 C 
ATOM      4  C   UNL     1      -0.748   8.692  22.543  0.00  0.00    +0.000 C 
ATOM      5  C   UNL     1      -0.136   8.422  21.167  0.00  0.00    +0.000 C 
ATOM      6  C   UNL     1      -0.539   9.530  20.187  0.00  0.00    +0.000 C 
ENDROOT
BRANCH   1  13
ATOM      7  C   UNL     1      -3.768  10.780  15.696  0.00  0.00    +0.000 C 
ATOM      8  C   UNL     1      -3.947  11.476  17.020  0.00  0.00    +0.000 C 
ATOM      9  O   UNL     1      -5.036  11.973  17.308  0.00  0.00    +0.000 OA
ATOM     10  N   UNL     1      -2.849  11.527  17.869  0.00  0.00    +0.000 N 
ATOM     11  C   UNL     1      -3.050  12.100  19.199  0.00  0.00    +0.000 C 
ATOM     12  C   UNL     1      -1.796  12.786  19.742  0.00  0.00    +0.000 C 
ATOM     13  C   UNL     1      -0.518  11.929  19.624  0.00  0.00    +0.000 C 
ATOM     14  C   UNL     1      -0.409  11.465  18.154  0.00  0.00    +0.000 C 
ATOM     15  C   UNL     1      -1.647  10.711  17.698  0.00  0.00    +0.000 C 
ENDBRANCH   1  13
BRANCH   5  16
ATOM     16  C   UNL     1       1.383   8.207  21.170  0.00  0.00    +0.000 C 
ATOM     17  O   UNL     1       2.131   8.748  21.981  0.00  0.00    +0.000 OA
BRANCH  16  18
ATOM     18  C   UNL     1       1.990   7.406  20.071  0.00  0.00    +0.000 A 
ATOM     19  C   UNL     1       2.467   8.082  18.920  0.00  0.00    +0.000 A 
ATOM     20  C   UNL     1       3.051   7.398  17.846  0.00  0.00    +0.000 A 
ATOM     21  C   UNL     1       3.156   6.026  17.982  0.00  0.00    +0.000 A 
ATOM     22  C   UNL     1       2.709   5.375  19.113  0.00  0.00    +0.000 A 
ATOM     23  C   UNL     1       2.937   4.014  19.028  0.00  0.00    +0.000 A 
ATOM     24  C   UNL     1       2.576   3.152  20.056  0.00  0.00    +0.000 A 
ATOM     25  C   UNL     1       1.962   3.741  21.171  0.00  0.00    +0.000 A 
ATOM     26  C   UNL     1       1.731   5.130  21.242  0.00  0.00    +0.000 A 
ATOM     27  C   UNL     1       2.122   5.993  20.186  0.00  0.00    +0.000 A 
ATOM     28  C   UNL     1       3.602   3.678  17.739  0.00  0.00    +0.000 C 
ATOM     29  C   UNL     1       3.736   5.053  17.014  0.00  0.00    +0.000 C 
ENDBRANCH  16  18
ENDBRANCH   5  16
TORSDOF 3
ENDMDL
MODEL 6
REMARK VINA RESULT:      -8.5      3.810      9.444
REMARK  Name = 
REMARK  4 active torsions:
REMARK  status: ('A' for Active; 'I' for Inactive)
REMARK    1  A    between atoms: C_1  and  C_2
REMARK    2  A    between atoms: C_7  and  N_8
REMARK    3  A    between atoms: C_12  and  C_13
REMARK    4  A    between atoms: C_13  and  C_15
REMARK                            x       y       z     vdW  Elec       q    Type
REMARK                         _______ _______ _______ _____ _____    ______ ____
ROOT
ATOM      1  N   UNL     1       3.825   4.625  18.438  0.00  0.00    +0.000 NA
ATOM      2  C   UNL     1       2.620   3.806  18.423  0.00  0.00    +0.000 C 
ATOM      3  C   UNL     1       1.339   4.627  18.560  0.00  0.00    +0.000 C 
ATOM      4  C   UNL     1       1.389   5.517  19.792  0.00  0.00    +0.000 C 
ATOM      5  C   UNL     1       2.629   6.413  19.773  0.00  0.00    +0.000 C 
ATOM      6  C   UNL     1       3.888   5.561  19.567  0.00  0.00    +0.000 C 
ENDROOT
BRANCH   1  13
ATOM      7  C   UNL     1       6.709   3.870  13.165  0.00  0.00    +0.000 C 
ATOM      8  C   UNL     1       6.957   4.814  14.313  0.00  0.00    +0.000 C 
ATOM      9  O   UNL     1       7.734   5.759  14.172  0.00  0.00    +0.000 OA
ATOM     10  N   UNL     1       6.285   4.565  15.503  0.00  0.00    +0.000 N 
ATOM     11  C   UNL     1       6.436   5.541  16.580  0.00  0.00    +0.000 C 
ATOM     12  C   UNL     1       6.341   4.907  17.969  0.00  0.00    +0.000 C 
ATOM     13  C   UNL     1       5.124   3.973  18.145  0.00  0.00    +0.000 C 
ATOM     14  C   UNL     1       5.150   2.960  16.978  0.00  0.00    +0.000 C 
ATOM     15  C   UNL     1       5.151   3.648  15.622  0.00  0.00    +0.000 C 
ENDBRANCH   1  13
BRANCH   5  16
ATOM     16  C   UNL     1       2.570   7.572  18.769  0.00  0.00    +0.000 C 
ATOM     17  O   UNL     1       3.417   7.738  17.894  0.00  0.00    +0.000 OA
BRANCH  16  18
ATOM     18  C   UNL     1       1.512   8.604  18.938  0.00  0.00    +0.000 A 
ATOM     19  C   UNL     1       0.895   9.143  17.780  0.00  0.00    +0.000 A 
ATOM     20  C   UNL     1      -0.109  10.116  17.858  0.00  0.00    +0.000 A 
ATOM     21  C   UNL     1      -0.481  10.508  19.132  0.00  0.00    +0.000 A 
ATOM     22  C   UNL     1       0.109   9.966  20.255  0.00  0.00    +0.000 A 
ATOM     23  C   UNL     1      -0.438  10.496  21.410  0.00  0.00    +0.000 A 
ATOM     24  C   UNL     1      -0.007  10.095  22.667  0.00  0.00    +0.000 A 
ATOM     25  C   UNL     1       1.015   9.135  22.695  0.00  0.00    +0.000 A 
ATOM     26  C   UNL     1       1.567   8.606  21.510  0.00  0.00    +0.000 A 
ATOM     27  C   UNL     1       1.100   9.020  20.236  0.00  0.00    +0.000 A 
ATOM     28  C   UNL     1      -1.499  11.486  21.075  0.00  0.00    +0.000 C 
ATOM     29  C   UNL     1      -1.516  11.508  19.515  0.00  0.00    +0.000 C 
ENDBRANCH  16  18
ENDBRANCH   5  16
TORSDOF 3
ENDMDL
MODEL 7
REMARK VINA RESULT:      -8.3      3.710      9.401
REMARK  Name = 
REMARK  4 active torsions:
REMARK  status: ('A' for Active; 'I' for Inactive)
REMARK    1  A    between atoms: C_1  and  C_2
REMARK    2  A    between atoms: C_7  and  N_8
REMARK    3  A    between atoms: C_12  and  C_13
REMARK    4  A    between atoms: C_13  and  C_15
REMARK                            x       y       z     vdW  Elec       q    Type
REMARK                         _______ _______ _______ _____ _____    ______ ____
ROOT
ATOM      1  N   UNL     1       3.304   4.161  19.116  0.00  0.00    +0.000 NA
ATOM      2  C   UNL     1       2.089   3.418  18.808  0.00  0.00    +0.000 C 
ATOM      3  C   UNL     1       0.818   4.241  19.012  0.00  0.00    +0.000 C 
ATOM      4  C   UNL     1       0.767   4.831  20.412  0.00  0.00    +0.000 C 
ATOM      5  C   UNL     1       2.022   5.656  20.707  0.00  0.00    +0.000 C 
ATOM      6  C   UNL     1       3.276   4.819  20.427  0.00  0.00    +0.000 C 
ENDROOT
BRANCH   1  13
ATOM      7  C   UNL     1       6.710   4.549  14.122  0.00  0.00    +0.000 C 
ATOM      8  C   UNL     1       6.857   5.179  15.482  0.00  0.00    +0.000 C 
ATOM      9  O   UNL     1       7.666   6.092  15.650  0.00  0.00    +0.000 OA
ATOM     10  N   UNL     1       6.058   4.685  16.506  0.00  0.00    +0.000 N 
ATOM     11  C   UNL     1       6.116   5.368  17.797  0.00  0.00    +0.000 C 
ATOM     12  C   UNL     1       5.861   4.426  18.974  0.00  0.00    +0.000 C 
ATOM     13  C   UNL     1       4.611   3.537  18.800  0.00  0.00    +0.000 C 
ATOM     14  C   UNL     1       4.736   2.831  17.431  0.00  0.00    +0.000 C 
ATOM     15  C   UNL     1       4.897   3.821  16.289  0.00  0.00    +0.000 C 
ENDBRANCH   1  13
BRANCH   5  16
ATOM     16  C   UNL     1       2.085   7.010  19.989  0.00  0.00    +0.000 C 
ATOM     17  O   UNL     1       2.774   7.203  18.990  0.00  0.00    +0.000 OA
BRANCH  16  18
ATOM     18  C   UNL     1       1.378   8.170  20.597  0.00  0.00    +0.000 A 
ATOM     19  C   UNL     1       1.452   8.354  22.001  0.00  0.00    +0.000 A 
ATOM     20  C   UNL     1       0.815   9.421  22.645  0.00  0.00    +0.000 A 
ATOM     21  C   UNL     1       0.125  10.301  21.831  0.00  0.00    +0.000 A 
ATOM     22  C   UNL     1       0.073  10.129  20.463  0.00  0.00    +0.000 A 
ATOM     23  C   UNL     1      -0.655  11.140  19.862  0.00  0.00    +0.000 A 
ATOM     24  C   UNL     1      -0.838  11.182  18.486  0.00  0.00    +0.000 A 
ATOM     25  C   UNL     1      -0.254  10.140  17.751  0.00  0.00    +0.000 A 
ATOM     26  C   UNL     1       0.481   9.114  18.377  0.00  0.00    +0.000 A 
ATOM     27  C   UNL     1       0.669   9.100  19.784  0.00  0.00    +0.000 A 
ATOM     28  C   UNL     1      -1.150  12.103  20.884  0.00  0.00    +0.000 C 
ATOM     29  C   UNL     1      -0.631  11.518  22.235  0.00  0.00    +0.000 C 
ENDBRANCH  16  18
ENDBRANCH   5  16
TORSDOF 3
ENDMDL
MODEL 8
REMARK VINA RESULT:      -8.0      2.545      3.367
REMARK  Name = 
REMARK  4 active torsions:
REMARK  status: ('A' for Active; 'I' for Inactive)
REMARK    1  A    between atoms: C_1  and  C_2
REMARK    2  A    between atoms: C_7  and  N_8
REMARK    3  A    between atoms: C_12  and  C_13
REMARK    4  A    between atoms: C_13  and  C_15
REMARK                            x       y       z     vdW  Elec       q    Type
REMARK                         _______ _______ _______ _____ _____    ______ ____
ROOT
ATOM      1  N   UNL     1       1.283  11.795  20.277  0.00  0.00    +0.000 NA
ATOM      2  C   UNL     1       0.058  11.957  21.049  0.00  0.00    +0.000 C 
ATOM      3  C   UNL     1      -0.577  10.627  21.448  0.00  0.00    +0.000 C 
ATOM      4  C   UNL     1      -0.802   9.742  20.232  0.00  0.00    +0.000 C 
ATOM      5  C   UNL     1       0.501   9.531  19.457  0.00  0.00    +0.000 C 
ATOM      6  C   UNL     1       1.143  10.886  19.133  0.00  0.00    +0.000 C 
ENDROOT
BRANCH   1  13
ATOM      7  C   UNL     1      -0.424  17.179  18.088  0.00  0.00    +0.000 C 
ATOM      8  C   UNL     1      -0.030  16.745  19.475  0.00  0.00    +0.000 C 
ATOM      9  O   UNL     1      -0.240  17.489  20.433  0.00  0.00    +0.000 OA
ATOM     10  N   UNL     1       0.571  15.499  19.609  0.00  0.00    +0.000 N 
ATOM     11  C   UNL     1       0.852  15.027  20.964  0.00  0.00    +0.000 C 
ATOM     12  C   UNL     1       2.083  14.123  21.030  0.00  0.00    +0.000 C 
ATOM     13  C   UNL     1       2.090  13.001  19.971  0.00  0.00    +0.000 C 
ATOM     14  C   UNL     1       1.857  13.667  18.595  0.00  0.00    +0.000 C 
ATOM     15  C   UNL     1       0.572  14.478  18.561  0.00  0.00    +0.000 C 
ENDBRANCH   1  13
BRANCH   5  16
ATOM     16  C   UNL     1       1.505   8.586  20.131  0.00  0.00    +0.000 C 
ATOM     17  O   UNL     1       1.823   8.687  21.313  0.00  0.00    +0.000 OA
BRANCH  16  18
ATOM     18  C   UNL     1       2.212   7.583  19.289  0.00  0.00    +0.000 A 
ATOM     19  C   UNL     1       2.980   8.038  18.187  0.00  0.00    +0.000 A 
ATOM     20  C   UNL     1       3.674   7.155  17.351  0.00  0.00    +0.000 A 
ATOM     21  C   UNL     1       3.586   5.813  17.673  0.00  0.00    +0.000 A 
ATOM     22  C   UNL     1       2.854   5.377  18.758  0.00  0.00    +0.000 A 
ATOM     23  C   UNL     1       2.929   4.003  18.890  0.00  0.00    +0.000 A 
ATOM     24  C   UNL     1       2.277   3.336  19.919  0.00  0.00    +0.000 A 
ATOM     25  C   UNL     1       1.533   4.133  20.801  0.00  0.00    +0.000 A 
ATOM     26  C   UNL     1       1.461   5.533  20.651  0.00  0.00    +0.000 A 
ATOM     27  C   UNL     1       2.149   6.195  19.602  0.00  0.00    +0.000 A 
ATOM     28  C   UNL     1       3.786   3.424  17.818  0.00  0.00    +0.000 C 
ATOM     29  C   UNL     1       4.221   4.662  16.974  0.00  0.00    +0.000 C 
ENDBRANCH  16  18
ENDBRANCH   5  16
TORSDOF 3
ENDMDL
MODEL 9
REMARK VINA RESULT:      -8.0      0.895      2.181
REMARK  Name = 
REMARK  4 active torsions:
REMARK  status: ('A' for Active; 'I' for Inactive)
REMARK    1  A    between atoms: C_1  and  C_2
REMARK    2  A    between atoms: C_7  and  N_8
REMARK    3  A    between atoms: C_12  and  C_13
REMARK    4  A    between atoms: C_13  and  C_15
REMARK                            x       y       z     vdW  Elec       q    Type
REMARK                         _______ _______ _______ _____ _____    ______ ____
ROOT
ATOM      1  N   UNL     1      -0.012  11.083  19.657  0.00  0.00    +0.000 NA
ATOM      2  C   UNL     1      -0.836  10.760  18.500  0.00  0.00    +0.000 C 
ATOM      3  C   UNL     1      -0.585   9.351  17.964  0.00  0.00    +0.000 C 
ATOM      4  C   UNL     1       0.890   9.132  17.671  0.00  0.00    +0.000 C 
ATOM      5  C   UNL     1       1.745   9.421  18.908  0.00  0.00    +0.000 C 
ATOM      6  C   UNL     1       1.417  10.815  19.456  0.00  0.00    +0.000 C 
ENDROOT
BRANCH   1  13
ATOM      7  C   UNL     1      -5.104  13.138  22.213  0.00  0.00    +0.000 C 
ATOM      8  C   UNL     1      -3.849  12.561  22.813  0.00  0.00    +0.000 C 
ATOM      9  O   UNL     1      -3.831  12.234  24.000  0.00  0.00    +0.000 OA
ATOM     10  N   UNL     1      -2.745  12.427  21.980  0.00  0.00    +0.000 N 
ATOM     11  C   UNL     1      -1.562  11.765  22.527  0.00  0.00    +0.000 C 
ATOM     12  C   UNL     1      -0.260  12.287  21.920  0.00  0.00    +0.000 C 
ATOM     13  C   UNL     1      -0.274  12.352  20.378  0.00  0.00    +0.000 C 
ATOM     14  C   UNL     1      -1.536  13.143  19.963  0.00  0.00    +0.000 C 
ATOM     15  C   UNL     1      -2.808  12.525  20.521  0.00  0.00    +0.000 C 
ENDBRANCH   1  13
BRANCH   5  16
ATOM     16  C   UNL     1       1.663   8.356  20.009  0.00  0.00    +0.000 C 
ATOM     17  O   UNL     1       1.448   8.631  21.187  0.00  0.00    +0.000 OA
BRANCH  16  18
ATOM     18  C   UNL     1       1.977   6.944  19.657  0.00  0.00    +0.000 A 
ATOM     19  C   UNL     1       1.292   5.905  20.334  0.00  0.00    +0.000 A 
ATOM     20  C   UNL     1       1.532   4.553  20.056  0.00  0.00    +0.000 A 
ATOM     21  C   UNL     1       2.462   4.289  19.067  0.00  0.00    +0.000 A 
ATOM     22  C   UNL     1       3.111   5.306  18.397  0.00  0.00    +0.000 A 
ATOM     23  C   UNL     1       3.976   4.800  17.443  0.00  0.00    +0.000 A 
ATOM     24  C   UNL     1       4.736   5.637  16.637  0.00  0.00    +0.000 A 
ATOM     25  C   UNL     1       4.582   7.014  16.853  0.00  0.00    +0.000 A 
ATOM     26  C   UNL     1       3.700   7.516  17.832  0.00  0.00    +0.000 A 
ATOM     27  C   UNL     1       2.922   6.641  18.635  0.00  0.00    +0.000 A 
ATOM     28  C   UNL     1       3.930   3.311  17.437  0.00  0.00    +0.000 C 
ATOM     29  C   UNL     1       2.906   2.961  18.561  0.00  0.00    +0.000 C 
ENDBRANCH  16  18
ENDBRANCH   5  16
TORSDOF 3
ENDMDL
