MODEL 1
REMARK VINA RESULT:      -9.0      0.000      0.000
REMARK  Name = 
REMARK  8 active torsions:
REMARK  status: ('A' for Active; 'I' for Inactive)
REMARK    1  A    between atoms: C_2  and  C_3
REMARK    2  A    between atoms: C_3  and  C_4
REMARK    3  A    between atoms: N_10  and  CA_11
REMARK    4  A    between atoms: CA_15  and  C_16
REMARK    5  A    between atoms: C_16  and  OXT_18
REMARK    6  A    between atoms: C_19  and  O_20
REMARK    7  A    between atoms: O_20  and  S_21
REMARK    8  A    between atoms: S_21  and  C_24
REMARK                            x       y       z     vdW  Elec       q    Type
REMARK                         _______ _______ _______ _____ _____    ______ ____
ROOT
ATOM      1  CA  UNL     1       7.109   6.576  16.769  0.00  0.00    +0.000 C 
ATOM      2  C   UNL     1       5.632   6.292  16.335  0.00  0.00    +0.000 C 
ATOM      3  O   UNL     1       4.900   6.840  15.546  0.00  0.00    +0.000 OA
ATOM      4  N   UNL     1       5.484   5.365  17.305  0.00  0.00    +0.000 N 
ATOM      5  CA  UNL     1       4.428   4.903  18.071  0.00  0.00    +0.000 C 
ATOM      6  C   UNL     1       4.696   4.475  19.337  0.00  0.00    +0.000 C 
ATOM      7  N   UNL     1       6.000   4.400  19.794  0.00  0.00    +0.000 N 
ATOM      8  C   UNL     1       6.951   5.398  19.307  0.00  0.00    +0.000 C 
ATOM      9  C   UNL     1       6.883   5.412  17.787  0.00  0.00    +0.000 C 
ATOM     10  H   UNL     1       6.169   4.024  20.732  0.00  0.00    +0.000 HD
ENDROOT
BRANCH   1  13
ATOM     11  O   UNL     1       8.795   7.896  18.832  0.00  0.00    +0.000 OA
ATOM     12  C   UNL     1       8.099   8.575  18.081  0.00  0.00    +0.000 C 
ATOM     13  N   UNL     1       7.302   8.022  17.111  0.00  0.00    +0.000 N 
ATOM     14  H   UNL     1       6.777   8.684  16.542  0.00  0.00    +0.000 HD
BRANCH  12  15
ATOM     15  C   UNL     1       8.214  10.093  18.074  0.00  0.00    +0.000 C 
BRANCH  15  16
ATOM     16  C   UNL     1       9.413  10.790  18.686  0.00  0.00    +0.000 A 
ATOM     17  C   UNL     1       9.571  11.068  20.048  0.00  0.00    +0.000 A 
ATOM     18  C   UNL     1      10.718  11.725  20.514  0.00  0.00    +0.000 A 
ATOM     19  C   UNL     1      11.736  12.085  19.632  0.00  0.00    +0.000 A 
ATOM     20  C   UNL     1      11.614  11.786  18.282  0.00  0.00    +0.000 A 
ATOM     21  C   UNL     1      10.464  11.145  17.815  0.00  0.00    +0.000 A 
ENDBRANCH  15  16
ENDBRANCH  12  15
ENDBRANCH   1  13
BRANCH   5  22
ATOM     22  C   UNL     1       3.024   4.984  17.534  0.00  0.00    +0.000 C 
ATOM     23  O   UNL     1       2.311   5.971  17.596  0.00  0.00    +0.000 OA
BRANCH  22  24
ATOM     24  OXT UNL     1       2.591   3.865  16.904  0.00  0.00    +0.000 OA
ATOM     25  HXT UNL     1       1.725   3.934  16.461  0.00  0.00    +0.000 HD
ENDBRANCH  22  24
ENDBRANCH   5  22
BRANCH   6  26
ATOM     26  O   UNL     1       3.683   4.218  20.244  0.00  0.00    +0.000 OA
BRANCH  26  27
ATOM     27  S   UNL     1       3.017   2.720  20.419  0.00  0.00    +0.000 S 
ATOM     28  O   UNL     1       3.344   1.978  19.216  0.00  0.00    +0.000 OA
ATOM     29  O   UNL     1       3.447   2.203  21.715  0.00  0.00    +0.000 OA
BRANCH  27  30
ATOM     30  C   UNL     1       1.205   3.147  20.459  0.00  0.00    +0.000 C 
ATOM     31  F   UNL     1       0.966   4.489  20.391  0.00  0.00    +0.000 F 
ATOM     32  F   UNL     1       0.522   2.583  19.422  0.00  0.00    +0.000 F 
ATOM     33  F   UNL     1       0.602   2.704  21.601  0.00  0.00    +0.000 F 
ENDBRANCH  27  30
ENDBRANCH  26  27
ENDBRANCH   6  26
TORSDOF 8
ENDMDL
MODEL 2
REMARK VINA RESULT:      -8.8      0.261      1.139
REMARK  Name = 
REMARK  8 active torsions:
REMARK  status: ('A' for Active; 'I' for Inactive)
REMARK    1  A    between atoms: C_2  and  C_3
REMARK    2  A    between atoms: C_3  and  C_4
REMARK    3  A    between atoms: N_10  and  CA_11
REMARK    4  A    between atoms: CA_15  and  C_16
REMARK    5  A    between atoms: C_16  and  OXT_18
REMARK    6  A    between atoms: C_19  and  O_20
REMARK    7  A    between atoms: O_20  and  S_21
REMARK    8  A    between atoms: S_21  and  C_24
REMARK                            x       y       z     vdW  Elec       q    Type
REMARK                         _______ _______ _______ _____ _____    ______ ____
ROOT
ATOM      1  CA  UNL     1       7.251   6.314  16.785  0.00  0.00    +0.000 C 
ATOM      2  C   UNL     1       5.808   5.988  16.273  0.00  0.00    +0.000 C 
ATOM      3  O   UNL     1       5.128   6.477  15.403  0.00  0.00    +0.000 OA
ATOM      4  N   UNL     1       5.601   5.123  17.288  0.00  0.00    +0.000 N 
ATOM      5  CA  UNL     1       4.499   4.700  18.010  0.00  0.00    +0.000 C 
ATOM      6  C   UNL     1       4.683   4.356  19.316  0.00  0.00    +0.000 C 
ATOM      7  N   UNL     1       5.954   4.324  19.863  0.00  0.00    +0.000 N 
ATOM      8  C   UNL     1       6.929   5.299  19.378  0.00  0.00    +0.000 C 
ATOM      9  C   UNL     1       6.964   5.215  17.859  0.00  0.00    +0.000 C 
ATOM     10  H   UNL     1       6.062   4.010  20.832  0.00  0.00    +0.000 HD
ENDROOT
BRANCH   1  13
ATOM     11  O   UNL     1       8.779   7.781  18.873  0.00  0.00    +0.000 OA
ATOM     12  C   UNL     1       8.134   8.404  18.033  0.00  0.00    +0.000 C 
ATOM     13  N   UNL     1       7.412   7.782  17.046  0.00  0.00    +0.000 N 
ATOM     14  H   UNL     1       6.925   8.401  16.400  0.00  0.00    +0.000 HD
BRANCH  12  15
ATOM     15  C   UNL     1       8.241   9.919  17.935  0.00  0.00    +0.000 C 
BRANCH  15  16
ATOM     16  C   UNL     1       9.404  10.663  18.562  0.00  0.00    +0.000 A 
ATOM     17  C   UNL     1      10.520  11.141  17.866  0.00  0.00    +0.000 A 
ATOM     18  C   UNL     1      11.548  11.813  18.541  0.00  0.00    +0.000 A 
ATOM     19  C   UNL     1      11.463  12.043  19.913  0.00  0.00    +0.000 A 
ATOM     20  C   UNL     1      10.348  11.608  20.616  0.00  0.00    +0.000 A 
ATOM     21  C   UNL     1       9.329  10.925  19.946  0.00  0.00    +0.000 A 
ENDBRANCH  15  16
ENDBRANCH  12  15
ENDBRANCH   1  13
BRANCH   5  22
ATOM     22  C   UNL     1       3.134   4.731  17.376  0.00  0.00    +0.000 C 
ATOM     23  O   UNL     1       2.314   5.618  17.536  0.00  0.00    +0.000 OA
BRANCH  22  24
ATOM     24  OXT UNL     1       2.871   3.698  16.541  0.00  0.00    +0.000 OA
ATOM     25  HXT UNL     1       2.140   3.836  15.909  0.00  0.00    +0.000 HD
ENDBRANCH  22  24
ENDBRANCH   5  22
BRANCH   6  26
ATOM     26  O   UNL     1       3.613   4.147  20.168  0.00  0.00    +0.000 OA
BRANCH  26  27
ATOM     27  S   UNL     1       2.994   2.645  20.451  0.00  0.00    +0.000 S 
ATOM     28  O   UNL     1       3.239   1.863  19.254  0.00  0.00    +0.000 OA
ATOM     29  O   UNL     1       3.537   2.186  21.727  0.00  0.00    +0.000 OA
BRANCH  27  30
ATOM     30  C   UNL     1       1.183   3.042  20.622  0.00  0.00    +0.000 C 
ATOM     31  F   UNL     1       0.651   2.628  21.807  0.00  0.00    +0.000 F 
ATOM     32  F   UNL     1       0.942   4.382  20.540  0.00  0.00    +0.000 F 
ATOM     33  F   UNL     1       0.438   2.458  19.638  0.00  0.00    +0.000 F 
ENDBRANCH  27  30
ENDBRANCH  26  27
ENDBRANCH   6  26
TORSDOF 8
ENDMDL
MODEL 3
REMARK VINA RESULT:      -8.6      0.791      1.247
REMARK  Name = 
REMARK  8 active torsions:
REMARK  status: ('A' for Active; 'I' for Inactive)
REMARK    1  A    between atoms: C_2  and  C_3
REMARK    2  A    between atoms: C_3  and  C_4
REMARK    3  A    between atoms: N_10  and  CA_11
REMARK    4  A    between atoms: CA_15  and  C_16
REMARK    5  A    between atoms: C_16  and  OXT_18
REMARK    6  A    between atoms: C_19  and  O_20
REMARK    7  A    between atoms: O_20  and  S_21
REMARK    8  A    between atoms: S_21  and  C_24
REMARK                            x       y       z     vdW  Elec       q    Type
REMARK                         _______ _______ _______ _____ _____    ______ ____
ROOT
ATOM      1  CA  UNL     1       7.304   6.584  16.788  0.00  0.00    +0.000 C 
ATOM      2  C   UNL     1       5.860   6.265  16.275  0.00  0.00    +0.000 C 
ATOM      3  O   UNL     1       5.165   6.786  15.436  0.00  0.00    +0.000 OA
ATOM      4  N   UNL     1       5.674   5.351  17.251  0.00  0.00    +0.000 N 
ATOM      5  CA  UNL     1       4.584   4.882  17.963  0.00  0.00    +0.000 C 
ATOM      6  C   UNL     1       4.786   4.480  19.251  0.00  0.00    +0.000 C 
ATOM      7  N   UNL     1       6.063   4.438  19.783  0.00  0.00    +0.000 N 
ATOM      8  C   UNL     1       7.022   5.445  19.333  0.00  0.00    +0.000 C 
ATOM      9  C   UNL     1       7.041   5.433  17.812  0.00  0.00    +0.000 C 
ATOM     10  H   UNL     1       6.185   4.080  20.734  0.00  0.00    +0.000 HD
ENDROOT
BRANCH   1  13
ATOM     11  O   UNL     1       8.842   7.970  18.923  0.00  0.00    +0.000 OA
ATOM     12  C   UNL     1       8.179   8.623  18.120  0.00  0.00    +0.000 C 
ATOM     13  N   UNL     1       7.452   8.040  17.115  0.00  0.00    +0.000 N 
ATOM     14  H   UNL     1       6.949   8.682  16.505  0.00  0.00    +0.000 HD
BRANCH  12  15
ATOM     15  C   UNL     1       8.268  10.143  18.093  0.00  0.00    +0.000 C 
BRANCH  15  16
ATOM     16  C   UNL     1       9.457  10.868  18.691  0.00  0.00    +0.000 A 
ATOM     17  C   UNL     1       9.622  11.154  20.051  0.00  0.00    +0.000 A 
ATOM     18  C   UNL     1      10.759  11.838  20.503  0.00  0.00    +0.000 A 
ATOM     19  C   UNL     1      11.759  12.219  19.610  0.00  0.00    +0.000 A 
ATOM     20  C   UNL     1      11.631  11.913  18.262  0.00  0.00    +0.000 A 
ATOM     21  C   UNL     1      10.491  11.244  17.808  0.00  0.00    +0.000 A 
ENDBRANCH  15  16
ENDBRANCH  12  15
ENDBRANCH   1  13
BRANCH   5  22
ATOM     22  C   UNL     1       3.212   4.927  17.346  0.00  0.00    +0.000 C 
ATOM     23  O   UNL     1       2.801   4.145  16.506  0.00  0.00    +0.000 OA
BRANCH  22  24
ATOM     24  OXT UNL     1       2.402   5.898  17.832  0.00  0.00    +0.000 OA
ATOM     25  HXT UNL     1       2.334   6.706  17.291  0.00  0.00    +0.000 HD
ENDBRANCH  22  24
ENDBRANCH   5  22
BRANCH   6  26
ATOM     26  O   UNL     1       3.728   4.219  20.102  0.00  0.00    +0.000 OA
BRANCH  26  27
ATOM     27  S   UNL     1       3.389   2.699  20.645  0.00  0.00    +0.000 S 
ATOM     28  O   UNL     1       4.607   1.925  20.499  0.00  0.00    +0.000 OA
ATOM     29  O   UNL     1       2.784   2.836  21.967  0.00  0.00    +0.000 OA
BRANCH  27  30
ATOM     30  C   UNL     1       2.113   2.162  19.400  0.00  0.00    +0.000 C 
ATOM     31  F   UNL     1       1.291   1.176  19.862  0.00  0.00    +0.000 F 
ATOM     32  F   UNL     1       1.301   3.191  19.021  0.00  0.00    +0.000 F 
ATOM     33  F   UNL     1       2.685   1.684  18.256  0.00  0.00    +0.000 F 
ENDBRANCH  27  30
ENDBRANCH  26  27
ENDBRANCH   6  26
TORSDOF 8
ENDMDL
MODEL 4
REMARK VINA RESULT:      -8.3      3.426      6.466
REMARK  Name = 
REMARK  8 active torsions:
REMARK  status: ('A' for Active; 'I' for Inactive)
REMARK    1  A    between atoms: C_2  and  C_3
REMARK    2  A    between atoms: C_3  and  C_4
REMARK    3  A    between atoms: N_10  and  CA_11
REMARK    4  A    between atoms: CA_15  and  C_16
REMARK    5  A    between atoms: C_16  and  OXT_18
REMARK    6  A    between atoms: C_19  and  O_20
REMARK    7  A    between atoms: O_20  and  S_21
REMARK    8  A    between atoms: S_21  and  C_24
REMARK                            x       y       z     vdW  Elec       q    Type
REMARK                         _______ _______ _______ _____ _____    ______ ____
ROOT
ATOM      1  CA  UNL     1       7.298   6.396  16.910  0.00  0.00    +0.000 C 
ATOM      2  C   UNL     1       7.117   5.243  17.953  0.00  0.00    +0.000 C 
ATOM      3  O   UNL     1       7.763   4.248  18.181  0.00  0.00    +0.000 OA
ATOM      4  N   UNL     1       5.904   5.710  18.317  0.00  0.00    +0.000 N 
ATOM      5  CA  UNL     1       4.734   5.143  18.789  0.00  0.00    +0.000 C 
ATOM      6  C   UNL     1       3.554   5.736  18.451  0.00  0.00    +0.000 C 
ATOM      7  N   UNL     1       3.541   6.932  17.754  0.00  0.00    +0.000 N 
ATOM      8  C   UNL     1       4.606   7.164  16.780  0.00  0.00    +0.000 C 
ATOM      9  C   UNL     1       5.939   6.925  17.472  0.00  0.00    +0.000 C 
ATOM     10  H   UNL     1       2.639   7.377  17.563  0.00  0.00    +0.000 HD
ENDROOT
BRANCH   1  13
ATOM     11  O   UNL     1       5.785   4.394  15.314  0.00  0.00    +0.000 OA
ATOM     12  C   UNL     1       6.793   4.918  14.846  0.00  0.00    +0.000 C 
ATOM     13  N   UNL     1       7.530   5.848  15.534  0.00  0.00    +0.000 N 
ATOM     14  H   UNL     1       8.340   6.221  15.041  0.00  0.00    +0.000 HD
BRANCH  12  15
ATOM     15  C   UNL     1       7.186   4.689  13.393  0.00  0.00    +0.000 C 
BRANCH  15  16
ATOM     16  C   UNL     1       6.443   3.689  12.530  0.00  0.00    +0.000 A 
ATOM     17  C   UNL     1       5.070   3.725  12.261  0.00  0.00    +0.000 A 
ATOM     18  C   UNL     1       4.475   2.746  11.453  0.00  0.00    +0.000 A 
ATOM     19  C   UNL     1       5.246   1.737  10.879  0.00  0.00    +0.000 A 
ATOM     20  C   UNL     1       6.615   1.704  11.105  0.00  0.00    +0.000 A 
ATOM     21  C   UNL     1       7.206   2.671  11.922  0.00  0.00    +0.000 A 
ENDBRANCH  15  16
ENDBRANCH  12  15
ENDBRANCH   1  13
BRANCH   5  22
ATOM     22  C   UNL     1       4.787   3.850  19.559  0.00  0.00    +0.000 C 
ATOM     23  O   UNL     1       4.470   3.724  20.729  0.00  0.00    +0.000 OA
BRANCH  22  24
ATOM     24  OXT UNL     1       5.177   2.773  18.835  0.00  0.00    +0.000 OA
ATOM     25  HXT UNL     1       6.139   2.646  18.745  0.00  0.00    +0.000 HD
ENDBRANCH  22  24
ENDBRANCH   5  22
BRANCH   6  26
ATOM     26  O   UNL     1       2.339   5.115  18.680  0.00  0.00    +0.000 OA
BRANCH  26  27
ATOM     27  S   UNL     1       1.771   3.908  17.711  0.00  0.00    +0.000 S 
ATOM     28  O   UNL     1       0.624   4.447  17.004  0.00  0.00    +0.000 OA
ATOM     29  O   UNL     1       2.905   3.396  16.946  0.00  0.00    +0.000 OA
BRANCH  27  30
ATOM     30  C   UNL     1       1.234   2.662  18.986  0.00  0.00    +0.000 C 
ATOM     31  F   UNL     1       1.014   3.210  20.216  0.00  0.00    +0.000 F 
ATOM     32  F   UNL     1       0.076   2.034  18.634  0.00  0.00    +0.000 F 
ATOM     33  F   UNL     1       2.165   1.678  19.162  0.00  0.00    +0.000 F 
ENDBRANCH  27  30
ENDBRANCH  26  27
ENDBRANCH   6  26
TORSDOF 8
ENDMDL
MODEL 5
REMARK VINA RESULT:      -8.3      3.484      6.546
REMARK  Name = 
REMARK  8 active torsions:
REMARK  status: ('A' for Active; 'I' for Inactive)
REMARK    1  A    between atoms: C_2  and  C_3
REMARK    2  A    between atoms: C_3  and  C_4
REMARK    3  A    between atoms: N_10  and  CA_11
REMARK    4  A    between atoms: CA_15  and  C_16
REMARK    5  A    between atoms: C_16  and  OXT_18
REMARK    6  A    between atoms: C_19  and  O_20
REMARK    7  A    between atoms: O_20  and  S_21
REMARK    8  A    between atoms: S_21  and  C_24
REMARK                            x       y       z     vdW  Elec       q    Type
REMARK                         _______ _______ _______ _____ _____    ______ ____
ROOT
ATOM      1  CA  UNL     1       7.337   6.305  16.851  0.00  0.00    +0.000 C 
ATOM      2  C   UNL     1       7.216   5.137  17.886  0.00  0.00    +0.000 C 
ATOM      3  O   UNL     1       7.887   4.151  18.077  0.00  0.00    +0.000 OA
ATOM      4  N   UNL     1       6.010   5.578  18.302  0.00  0.00    +0.000 N 
ATOM      5  CA  UNL     1       4.868   4.985  18.811  0.00  0.00    +0.000 C 
ATOM      6  C   UNL     1       3.666   5.560  18.526  0.00  0.00    +0.000 C 
ATOM      7  N   UNL     1       3.606   6.764  17.844  0.00  0.00    +0.000 N 
ATOM      8  C   UNL     1       4.628   7.026  16.833  0.00  0.00    +0.000 C 
ATOM      9  C   UNL     1       5.991   6.803  17.471  0.00  0.00    +0.000 C 
ATOM     10  H   UNL     1       2.689   7.195  17.694  0.00  0.00    +0.000 HD
ENDROOT
BRANCH   1  13
ATOM     11  O   UNL     1       5.962   4.116  15.380  0.00  0.00    +0.000 OA
ATOM     12  C   UNL     1       6.857   4.757  14.833  0.00  0.00    +0.000 C 
ATOM     13  N   UNL     1       7.525   5.777  15.461  0.00  0.00    +0.000 N 
ATOM     14  H   UNL     1       8.241   6.243  14.905  0.00  0.00    +0.000 HD
BRANCH  12  15
ATOM     15  C   UNL     1       7.159   4.564  13.353  0.00  0.00    +0.000 C 
BRANCH  15  16
ATOM     16  C   UNL     1       6.317   3.639  12.497  0.00  0.00    +0.000 A 
ATOM     17  C   UNL     1       6.760   2.430  11.948  0.00  0.00    +0.000 A 
ATOM     18  C   UNL     1       5.903   1.647  11.163  0.00  0.00    +0.000 A 
ATOM     19  C   UNL     1       4.586   2.045  10.938  0.00  0.00    +0.000 A 
ATOM     20  C   UNL     1       4.118   3.223  11.502  0.00  0.00    +0.000 A 
ATOM     21  C   UNL     1       4.976   4.011  12.274  0.00  0.00    +0.000 A 
ENDBRANCH  15  16
ENDBRANCH  12  15
ENDBRANCH   1  13
BRANCH   5  22
ATOM     22  C   UNL     1       4.973   3.684  19.563  0.00  0.00    +0.000 C 
ATOM     23  O   UNL     1       4.922   3.576  20.776  0.00  0.00    +0.000 OA
BRANCH  22  24
ATOM     24  OXT UNL     1       5.084   2.583  18.781  0.00  0.00    +0.000 OA
ATOM     25  HXT UNL     1       4.682   1.768  19.134  0.00  0.00    +0.000 HD
ENDBRANCH  22  24
ENDBRANCH   5  22
BRANCH   6  26
ATOM     26  O   UNL     1       2.472   4.916  18.794  0.00  0.00    +0.000 OA
BRANCH  26  27
ATOM     27  S   UNL     1       1.813   3.816  17.756  0.00  0.00    +0.000 S 
ATOM     28  O   UNL     1       0.738   4.496  17.058  0.00  0.00    +0.000 OA
ATOM     29  O   UNL     1       2.910   3.237  16.985  0.00  0.00    +0.000 OA
BRANCH  27  30
ATOM     30  C   UNL     1       1.134   2.567  18.958  0.00  0.00    +0.000 C 
ATOM     31  F   UNL     1       2.104   1.853  19.599  0.00  0.00    +0.000 F 
ATOM     32  F   UNL     1       0.380   3.150  19.933  0.00  0.00    +0.000 F 
ATOM     33  F   UNL     1       0.326   1.654  18.343  0.00  0.00    +0.000 F 
ENDBRANCH  27  30
ENDBRANCH  26  27
ENDBRANCH   6  26
TORSDOF 8
ENDMDL
MODEL 6
REMARK VINA RESULT:      -8.3      0.700      1.250
REMARK  Name = 
REMARK  8 active torsions:
REMARK  status: ('A' for Active; 'I' for Inactive)
REMARK    1  A    between atoms: C_2  and  C_3
REMARK    2  A    between atoms: C_3  and  C_4
REMARK    3  A    between atoms: N_10  and  CA_11
REMARK    4  A    between atoms: CA_15  and  C_16
REMARK    5  A    between atoms: C_16  and  OXT_18
REMARK    6  A    between atoms: C_19  and  O_20
REMARK    7  A    between atoms: O_20  and  S_21
REMARK    8  A    between atoms: S_21  and  C_24
REMARK                            x       y       z     vdW  Elec       q    Type
REMARK                         _______ _______ _______ _____ _____    ______ ____
ROOT
ATOM      1  CA  UNL     1       7.097   6.773  16.606  0.00  0.00    +0.000 C 
ATOM      2  C   UNL     1       5.609   6.439  16.253  0.00  0.00    +0.000 C 
ATOM      3  O   UNL     1       4.797   6.999  15.555  0.00  0.00    +0.000 OA
ATOM      4  N   UNL     1       5.576   5.443  17.163  0.00  0.00    +0.000 N 
ATOM      5  CA  UNL     1       4.601   4.876  17.964  0.00  0.00    +0.000 C 
ATOM      6  C   UNL     1       4.977   4.380  19.177  0.00  0.00    +0.000 C 
ATOM      7  N   UNL     1       6.313   4.345  19.539  0.00  0.00    +0.000 N 
ATOM      8  C   UNL     1       7.177   5.422  19.060  0.00  0.00    +0.000 C 
ATOM      9  C   UNL     1       7.001   5.533  17.553  0.00  0.00    +0.000 C 
ATOM     10  H   UNL     1       6.565   3.917  20.434  0.00  0.00    +0.000 HD
ENDROOT
BRANCH   1  13
ATOM     11  O   UNL     1       8.769   8.026  18.722  0.00  0.00    +0.000 OA
ATOM     12  C   UNL     1       8.035   8.723  18.025  0.00  0.00    +0.000 C 
ATOM     13  N   UNL     1       7.243   8.202  17.035  0.00  0.00    +0.000 N 
ATOM     14  H   UNL     1       6.684   8.877  16.516  0.00  0.00    +0.000 HD
BRANCH  12  15
ATOM     15  C   UNL     1       8.094  10.242  18.111  0.00  0.00    +0.000 C 
BRANCH  15  16
ATOM     16  C   UNL     1       9.324  10.948  18.649  0.00  0.00    +0.000 A 
ATOM     17  C   UNL     1      10.299  11.571  17.862  0.00  0.00    +0.000 A 
ATOM     18  C   UNL     1      11.405  12.193  18.457  0.00  0.00    +0.000 A 
ATOM     19  C   UNL     1      11.537  12.227  19.845  0.00  0.00    +0.000 A 
ATOM     20  C   UNL     1      10.562  11.646  20.643  0.00  0.00    +0.000 A 
ATOM     21  C   UNL     1       9.467  11.013  20.050  0.00  0.00    +0.000 A 
ENDBRANCH  15  16
ENDBRANCH  12  15
ENDBRANCH   1  13
BRANCH   5  22
ATOM     22  C   UNL     1       3.159   4.916  17.530  0.00  0.00    +0.000 C 
ATOM     23  O   UNL     1       2.364   5.787  17.839  0.00  0.00    +0.000 OA
BRANCH  22  24
ATOM     24  OXT UNL     1       2.788   3.914  16.698  0.00  0.00    +0.000 OA
ATOM     25  HXT UNL     1       2.125   3.291  17.050  0.00  0.00    +0.000 HD
ENDBRANCH  22  24
ENDBRANCH   5  22
BRANCH   6  26
ATOM     26  O   UNL     1       4.045   4.009  20.130  0.00  0.00    +0.000 OA
BRANCH  26  27
ATOM     27  S   UNL     1       3.645   2.433  20.403  0.00  0.00    +0.000 S 
ATOM     28  O   UNL     1       3.326   1.856  19.111  0.00  0.00    +0.000 OA
ATOM     29  O   UNL     1       4.717   1.846  21.203  0.00  0.00    +0.000 OA
BRANCH  27  30
ATOM     30  C   UNL     1       2.107   2.638  21.432  0.00  0.00    +0.000 C 
ATOM     31  F   UNL     1       0.976   2.794  20.685  0.00  0.00    +0.000 F 
ATOM     32  F   UNL     1       1.886   1.565  22.244  0.00  0.00    +0.000 F 
ATOM     33  F   UNL     1       2.183   3.728  22.252  0.00  0.00    +0.000 F 
ENDBRANCH  27  30
ENDBRANCH  26  27
ENDBRANCH   6  26
TORSDOF 8
ENDMDL
MODEL 7
REMARK VINA RESULT:      -8.0      4.972      7.386
REMARK  Name = 
REMARK  8 active torsions:
REMARK  status: ('A' for Active; 'I' for Inactive)
REMARK    1  A    between atoms: C_2  and  C_3
REMARK    2  A    between atoms: C_3  and  C_4
REMARK    3  A    between atoms: N_10  and  CA_11
REMARK    4  A    between atoms: CA_15  and  C_16
REMARK    5  A    between atoms: C_16  and  OXT_18
REMARK    6  A    between atoms: C_19  and  O_20
REMARK    7  A    between atoms: O_20  and  S_21
REMARK    8  A    between atoms: S_21  and  C_24
REMARK                            x       y       z     vdW  Elec       q    Type
REMARK                         _______ _______ _______ _____ _____    ______ ____
ROOT
ATOM      1  CA  UNL     1       1.254   5.256  20.096  0.00  0.00    +0.000 C 
ATOM      2  C   UNL     1       2.034   3.985  20.572  0.00  0.00    +0.000 C 
ATOM      3  O   UNL     1       2.111   3.438  21.646  0.00  0.00    +0.000 OA
ATOM      4  N   UNL     1       2.691   3.900  19.396  0.00  0.00    +0.000 N 
ATOM      5  CA  UNL     1       3.934   3.445  18.995  0.00  0.00    +0.000 C 
ATOM      6  C   UNL     1       4.531   4.062  17.935  0.00  0.00    +0.000 C 
ATOM      7  N   UNL     1       3.858   5.034  17.217  0.00  0.00    +0.000 N 
ATOM      8  C   UNL     1       2.931   5.900  17.944  0.00  0.00    +0.000 C 
ATOM      9  C   UNL     1       1.977   5.014  18.731  0.00  0.00    +0.000 C 
ATOM     10  H   UNL     1       4.314   5.439  16.394  0.00  0.00    +0.000 HD
ENDROOT
BRANCH   1  13
ATOM     11  O   UNL     1       1.417   8.182  19.587  0.00  0.00    +0.000 OA
ATOM     12  C   UNL     1       1.551   7.749  20.728  0.00  0.00    +0.000 C 
ATOM     13  N   UNL     1       1.485   6.411  21.024  0.00  0.00    +0.000 N 
ATOM     14  H   UNL     1       1.602   6.170  22.007  0.00  0.00    +0.000 HD
BRANCH  12  15
ATOM     15  C   UNL     1       1.629   8.697  21.917  0.00  0.00    +0.000 C 
BRANCH  15  16
ATOM     16  C   UNL     1       0.599   9.792  22.113  0.00  0.00    +0.000 A 
ATOM     17  C   UNL     1      -0.382   9.801  23.111  0.00  0.00    +0.000 A 
ATOM     18  C   UNL     1      -1.296  10.860  23.203  0.00  0.00    +0.000 A 
ATOM     19  C   UNL     1      -1.223  11.937  22.322  0.00  0.00    +0.000 A 
ATOM     20  C   UNL     1      -0.235  11.964  21.347  0.00  0.00    +0.000 A 
ATOM     21  C   UNL     1       0.666  10.902  21.245  0.00  0.00    +0.000 A 
ENDBRANCH  15  16
ENDBRANCH  12  15
ENDBRANCH   1  13
BRANCH   5  22
ATOM     22  C   UNL     1       4.630   2.373  19.791  0.00  0.00    +0.000 C 
ATOM     23  O   UNL     1       5.127   2.536  20.892  0.00  0.00    +0.000 OA
BRANCH  22  24
ATOM     24  OXT UNL     1       4.631   1.147  19.214  0.00  0.00    +0.000 OA
ATOM     25  HXT UNL     1       5.249   1.027  18.469  0.00  0.00    +0.000 HD
ENDBRANCH  22  24
ENDBRANCH   5  22
BRANCH   6  26
ATOM     26  O   UNL     1       5.857   3.831  17.615  0.00  0.00    +0.000 OA
BRANCH  26  27
ATOM     27  S   UNL     1       7.073   4.809  18.147  0.00  0.00    +0.000 S 
ATOM     28  O   UNL     1       6.772   5.133  19.529  0.00  0.00    +0.000 OA
ATOM     29  O   UNL     1       8.334   4.145  17.828  0.00  0.00    +0.000 OA
BRANCH  27  30
ATOM     30  C   UNL     1       6.829   6.295  17.052  0.00  0.00    +0.000 C 
ATOM     31  F   UNL     1       6.415   5.974  15.793  0.00  0.00    +0.000 F 
ATOM     32  F   UNL     1       5.897   7.155  17.555  0.00  0.00    +0.000 F 
ATOM     33  F   UNL     1       7.979   7.018  16.909  0.00  0.00    +0.000 F 
ENDBRANCH  27  30
ENDBRANCH  26  27
ENDBRANCH   6  26
TORSDOF 8
ENDMDL
MODEL 8
REMARK VINA RESULT:      -8.0      4.963      7.373
REMARK  Name = 
REMARK  8 active torsions:
REMARK  status: ('A' for Active; 'I' for Inactive)
REMARK    1  A    between atoms: C_2  and  C_3
REMARK    2  A    between atoms: C_3  and  C_4
REMARK    3  A    between atoms: N_10  and  CA_11
REMARK    4  A    between atoms: CA_15  and  C_16
REMARK    5  A    between atoms: C_16  and  OXT_18
REMARK    6  A    between atoms: C_19  and  O_20
REMARK    7  A    between atoms: O_20  and  S_21
REMARK    8  A    between atoms: S_21  and  C_24
REMARK                            x       y       z     vdW  Elec       q    Type
REMARK                         _______ _______ _______ _____ _____    ______ ____
ROOT
ATOM      1  CA  UNL     1       1.303   5.388  19.904  0.00  0.00    +0.000 C 
ATOM      2  C   UNL     1       1.963   4.060  20.406  0.00  0.00    +0.000 C 
ATOM      3  O   UNL     1       1.904   3.474  21.461  0.00  0.00    +0.000 OA
ATOM      4  N   UNL     1       2.729   3.976  19.298  0.00  0.00    +0.000 N 
ATOM      5  CA  UNL     1       3.980   3.464  19.004  0.00  0.00    +0.000 C 
ATOM      6  C   UNL     1       4.712   4.079  18.032  0.00  0.00    +0.000 C 
ATOM      7  N   UNL     1       4.166   5.111  17.288  0.00  0.00    +0.000 N 
ATOM      8  C   UNL     1       3.219   6.004  17.953  0.00  0.00    +0.000 C 
ATOM      9  C   UNL     1       2.145   5.149  18.609  0.00  0.00    +0.000 C 
ATOM     10  H   UNL     1       4.723   5.515  16.530  0.00  0.00    +0.000 HD
ENDROOT
BRANCH   1  13
ATOM     11  O   UNL     1       1.417   8.338  19.549  0.00  0.00    +0.000 OA
ATOM     12  C   UNL     1       1.546   7.849  20.668  0.00  0.00    +0.000 C 
ATOM     13  N   UNL     1       1.502   6.497  20.893  0.00  0.00    +0.000 N 
ATOM     14  H   UNL     1       1.611   6.207  21.864  0.00  0.00    +0.000 HD
BRANCH  12  15
ATOM     15  C   UNL     1       1.592   8.736  21.905  0.00  0.00    +0.000 C 
BRANCH  15  16
ATOM     16  C   UNL     1       0.556   9.820  22.129  0.00  0.00    +0.000 A 
ATOM     17  C   UNL     1      -0.415   9.806  23.135  0.00  0.00    +0.000 A 
ATOM     18  C   UNL     1      -1.335  10.857  23.255  0.00  0.00    +0.000 A 
ATOM     19  C   UNL     1      -1.278  11.949  22.391  0.00  0.00    +0.000 A 
ATOM     20  C   UNL     1      -0.299  12.000  21.408  0.00  0.00    +0.000 A 
ATOM     21  C   UNL     1       0.609  10.945  21.279  0.00  0.00    +0.000 A 
ENDBRANCH  15  16
ENDBRANCH  12  15
ENDBRANCH   1  13
BRANCH   5  22
ATOM     22  C   UNL     1       4.535   2.328  19.823  0.00  0.00    +0.000 C 
ATOM     23  O   UNL     1       4.912   2.424  20.978  0.00  0.00    +0.000 OA
BRANCH  22  24
ATOM     24  OXT UNL     1       4.547   1.128  19.196  0.00  0.00    +0.000 OA
ATOM     25  HXT UNL     1       5.273   0.526  19.442  0.00  0.00    +0.000 HD
ENDBRANCH  22  24
ENDBRANCH   5  22
BRANCH   6  26
ATOM     26  O   UNL     1       6.048   3.784  17.835  0.00  0.00    +0.000 OA
BRANCH  26  27
ATOM     27  S   UNL     1       7.128   4.910  17.301  0.00  0.00    +0.000 S 
ATOM     28  O   UNL     1       8.265   4.178  16.774  0.00  0.00    +0.000 OA
ATOM     29  O   UNL     1       6.402   5.827  16.426  0.00  0.00    +0.000 OA
BRANCH  27  30
ATOM     30  C   UNL     1       7.571   5.754  18.900  0.00  0.00    +0.000 C 
ATOM     31  F   UNL     1       8.031   7.027  18.729  0.00  0.00    +0.000 F 
ATOM     32  F   UNL     1       6.504   5.842  19.746  0.00  0.00    +0.000 F 
ATOM     33  F   UNL     1       8.544   5.080  19.581  0.00  0.00    +0.000 F 
ENDBRANCH  27  30
ENDBRANCH  26  27
ENDBRANCH   6  26
TORSDOF 8
ENDMDL
MODEL 9
REMARK VINA RESULT:      -7.9      5.512      7.250
REMARK  Name = 
REMARK  8 active torsions:
REMARK  status: ('A' for Active; 'I' for Inactive)
REMARK    1  A    between atoms: C_2  and  C_3
REMARK    2  A    between atoms: C_3  and  C_4
REMARK    3  A    between atoms: N_10  and  CA_11
REMARK    4  A    between atoms: CA_15  and  C_16
REMARK    5  A    between atoms: C_16  and  OXT_18
REMARK    6  A    between atoms: C_19  and  O_20
REMARK    7  A    between atoms: O_20  and  S_21
REMARK    8  A    between atoms: S_21  and  C_24
REMARK                            x       y       z     vdW  Elec       q    Type
REMARK                         _______ _______ _______ _____ _____    ______ ____
ROOT
ATOM      1  CA  UNL     1       0.864   4.182  20.360  0.00  0.00    +0.000 C 
ATOM      2  C   UNL     1       2.140   3.411  20.840  0.00  0.00    +0.000 C 
ATOM      3  O   UNL     1       2.658   3.300  21.926  0.00  0.00    +0.000 OA
ATOM      4  N   UNL     1       2.488   3.119  19.570  0.00  0.00    +0.000 N 
ATOM      5  CA  UNL     1       3.682   2.914  18.901  0.00  0.00    +0.000 C 
ATOM      6  C   UNL     1       3.750   3.276  17.588  0.00  0.00    +0.000 C 
ATOM      7  N   UNL     1       2.623   3.726  16.923  0.00  0.00    +0.000 N 
ATOM      8  C   UNL     1       1.643   4.497  17.686  0.00  0.00    +0.000 C 
ATOM      9  C   UNL     1       1.286   3.703  18.934  0.00  0.00    +0.000 C 
ATOM     10  H   UNL     1       2.697   3.939  15.924  0.00  0.00    +0.000 HD
ENDROOT
BRANCH   1  13
ATOM     11  O   UNL     1       2.850   6.369  20.018  0.00  0.00    +0.000 OA
ATOM     12  C   UNL     1       1.823   6.567  20.663  0.00  0.00    +0.000 C 
ATOM     13  N   UNL     1       0.872   5.598  20.853  0.00  0.00    +0.000 N 
ATOM     14  H   UNL     1       0.058   5.880  21.396  0.00  0.00    +0.000 HD
BRANCH  12  15
ATOM     15  C   UNL     1       1.466   7.966  21.147  0.00  0.00    +0.000 C 
BRANCH  15  16
ATOM     16  C   UNL     1       0.782   8.960  20.229  0.00  0.00    +0.000 A 
ATOM     17  C   UNL     1      -0.303   9.768  20.588  0.00  0.00    +0.000 A 
ATOM     18  C   UNL     1      -0.870  10.653  19.661  0.00  0.00    +0.000 A 
ATOM     19  C   UNL     1      -0.345  10.766  18.375  0.00  0.00    +0.000 A 
ATOM     20  C   UNL     1       0.753   9.999  18.011  0.00  0.00    +0.000 A 
ATOM     21  C   UNL     1       1.310   9.106  18.930  0.00  0.00    +0.000 A 
ENDBRANCH  15  16
ENDBRANCH  12  15
ENDBRANCH   1  13
BRANCH   5  22
ATOM     22  C   UNL     1       4.884   2.407  19.653  0.00  0.00    +0.000 C 
ATOM     23  O   UNL     1       4.975   1.298  20.151  0.00  0.00    +0.000 OA
BRANCH  22  24
ATOM     24  OXT UNL     1       5.926   3.270  19.707  0.00  0.00    +0.000 OA
ATOM     25  HXT UNL     1       6.072   3.813  18.910  0.00  0.00    +0.000 HD
ENDBRANCH  22  24
ENDBRANCH   5  22
BRANCH   6  26
ATOM     26  O   UNL     1       4.955   3.324  16.911  0.00  0.00    +0.000 OA
BRANCH  26  27
ATOM     27  S   UNL     1       5.873   4.692  16.844  0.00  0.00    +0.000 S 
ATOM     28  O   UNL     1       5.221   5.672  17.691  0.00  0.00    +0.000 OA
ATOM     29  O   UNL     1       7.251   4.304  17.132  0.00  0.00    +0.000 OA
BRANCH  27  30
ATOM     30  C   UNL     1       5.690   5.146  15.047  0.00  0.00    +0.000 C 
ATOM     31  F   UNL     1       5.070   6.346  14.856  0.00  0.00    +0.000 F 
ATOM     32  F   UNL     1       6.895   5.231  14.414  0.00  0.00    +0.000 F 
ATOM     33  F   UNL     1       4.960   4.220  14.359  0.00  0.00    +0.000 F 
ENDBRANCH  27  30
ENDBRANCH  26  27
ENDBRANCH   6  26
TORSDOF 8
ENDMDL
