MODEL 1
REMARK VINA RESULT:      -8.4      0.000      0.000
REMARK  Name = 
REMARK  8 active torsions:
REMARK  status: ('A' for Active; 'I' for Inactive)
REMARK    1  A    between atoms: C_1  and  O_2
REMARK    2  A    between atoms: O_2  and  C_3
REMARK    3  A    between atoms: C_6  and  C_7
REMARK    4  A    between atoms: C_8  and  C_9
REMARK    5  A    between atoms: C_12  and  N_13
REMARK    6  A    between atoms: C_18  and  C_19
REMARK    7  A    between atoms: C_19  and  C_20
REMARK    8  A    between atoms: C_20  and  O_22
REMARK                            x       y       z     vdW  Elec       q    Type
REMARK                         _______ _______ _______ _____ _____    ______ ____
ROOT
ATOM      1  C   UNL     1       3.569   4.985  19.245  0.00  0.00    +0.000 A 
ATOM      2  C   UNL     1       2.552   5.854  19.782  0.00  0.00    +0.000 A 
ATOM      3  N   UNL     1       1.869   5.218  20.749  0.00  0.00    +0.000 NA
ATOM      4  O   UNL     1       2.399   3.962  20.850  0.00  0.00    +0.000 OA
ATOM      5  C   UNL     1       3.402   3.806  19.949  0.00  0.00    +0.000 A 
ENDROOT
BRANCH   1   9
ATOM      6  C   UNL     1       6.555   5.490  16.220  0.00  0.00    +0.000 A 
ATOM      7  C   UNL     1       5.333   4.900  15.913  0.00  0.00    +0.000 A 
ATOM      8  C   UNL     1       4.334   4.799  16.886  0.00  0.00    +0.000 A 
ATOM      9  C   UNL     1       4.570   5.209  18.206  0.00  0.00    +0.000 A 
ATOM     10  C   UNL     1       5.817   5.773  18.505  0.00  0.00    +0.000 A 
ATOM     11  C   UNL     1       6.794   5.931  17.519  0.00  0.00    +0.000 A 
BRANCH   6  13
ATOM     12  C   UNL     1       7.085   4.832  14.029  0.00  0.00    +0.000 C 
ATOM     13  O   UNL     1       7.468   5.543  15.203  0.00  0.00    +0.000 OA
ENDBRANCH   6  13
ENDBRANCH   1   9
BRANCH   2  14
ATOM     14  C   UNL     1       2.184   7.227  19.411  0.00  0.00    +0.000 A 
ATOM     15  C   UNL     1       1.560   8.085  20.325  0.00  0.00    +0.000 A 
ATOM     16  C   UNL     1       1.162   9.370  19.944  0.00  0.00    +0.000 A 
ATOM     17  C   UNL     1       1.467   9.866  18.678  0.00  0.00    +0.000 A 
ATOM     18  C   UNL     1       2.067   9.009  17.754  0.00  0.00    +0.000 A 
ATOM     19  C   UNL     1       2.436   7.707  18.118  0.00  0.00    +0.000 A 
BRANCH  17  20
ATOM     20  N   UNL     1       0.983  11.116  18.279  0.00  0.00    +0.000 N 
ATOM     21  H   UNL     1       1.406  11.461  17.422  0.00  0.00    +0.000 HD
ATOM     22  H   UNL     1      -0.032  11.166  18.247  0.00  0.00    +0.000 HD
ENDBRANCH  17  20
ENDBRANCH   2  14
BRANCH   5  23
ATOM     23  C   UNL     1       4.019   2.458  19.956  0.00  0.00    +0.000 C 
BRANCH  23  24
ATOM     24  C   UNL     1       3.575   1.637  18.768  0.00  0.00    +0.000 C 
ATOM     25  O   UNL     1       2.573   1.905  18.114  0.00  0.00    +0.000 OA
BRANCH  24  26
ATOM     26  O   UNL     1       4.373   0.600  18.419  0.00  0.00    +0.000 OA
ATOM     27  H   UNL     1       4.768   0.660  17.525  0.00  0.00    +0.000 HD
ENDBRANCH  24  26
ENDBRANCH  23  24
ENDBRANCH   5  23
TORSDOF 7
ENDMDL
MODEL 2
REMARK VINA RESULT:      -8.2      2.859      5.662
REMARK  Name = 
REMARK  8 active torsions:
REMARK  status: ('A' for Active; 'I' for Inactive)
REMARK    1  A    between atoms: C_1  and  O_2
REMARK    2  A    between atoms: O_2  and  C_3
REMARK    3  A    between atoms: C_6  and  C_7
REMARK    4  A    between atoms: C_8  and  C_9
REMARK    5  A    between atoms: C_12  and  N_13
REMARK    6  A    between atoms: C_18  and  C_19
REMARK    7  A    between atoms: C_19  and  C_20
REMARK    8  A    between atoms: C_20  and  O_22
REMARK                            x       y       z     vdW  Elec       q    Type
REMARK                         _______ _______ _______ _____ _____    ______ ____
ROOT
ATOM      1  C   UNL     1       2.823   4.204  18.738  0.00  0.00    +0.000 A 
ATOM      2  C   UNL     1       3.792   3.524  17.916  0.00  0.00    +0.000 A 
ATOM      3  N   UNL     1       3.670   2.194  18.068  0.00  0.00    +0.000 NA
ATOM      4  O   UNL     1       2.664   1.988  18.969  0.00  0.00    +0.000 OA
ATOM      5  C   UNL     1       2.161   3.177  19.388  0.00  0.00    +0.000 A 
ENDROOT
BRANCH   1   9
ATOM      6  C   UNL     1       1.842   8.342  19.230  0.00  0.00    +0.000 A 
ATOM      7  C   UNL     1       1.787   7.470  20.314  0.00  0.00    +0.000 A 
ATOM      8  C   UNL     1       2.174   6.134  20.165  0.00  0.00    +0.000 A 
ATOM      9  C   UNL     1       2.541   5.626  18.911  0.00  0.00    +0.000 A 
ATOM     10  C   UNL     1       2.562   6.510  17.824  0.00  0.00    +0.000 A 
ATOM     11  C   UNL     1       2.234   7.860  17.984  0.00  0.00    +0.000 A 
BRANCH   6  13
ATOM     12  C   UNL     1       0.286  10.034  18.750  0.00  0.00    +0.000 C 
ATOM     13  O   UNL     1       1.443   9.626  19.474  0.00  0.00    +0.000 OA
ENDBRANCH   6  13
ENDBRANCH   1   9
BRANCH   2  14
ATOM     14  C   UNL     1       4.829   4.066  17.028  0.00  0.00    +0.000 A 
ATOM     15  C   UNL     1       4.605   4.212  15.653  0.00  0.00    +0.000 A 
ATOM     16  C   UNL     1       5.618   4.674  14.807  0.00  0.00    +0.000 A 
ATOM     17  C   UNL     1       6.841   5.097  15.324  0.00  0.00    +0.000 A 
ATOM     18  C   UNL     1       7.081   4.931  16.689  0.00  0.00    +0.000 A 
ATOM     19  C   UNL     1       6.082   4.434  17.538  0.00  0.00    +0.000 A 
BRANCH  17  20
ATOM     20  N   UNL     1       7.877   5.468  14.460  0.00  0.00    +0.000 N 
ATOM     21  H   UNL     1       7.712   5.209  13.492  0.00  0.00    +0.000 HD
ATOM     22  H   UNL     1       8.150   6.443  14.550  0.00  0.00    +0.000 HD
ENDBRANCH  17  20
ENDBRANCH   2  14
BRANCH   5  23
ATOM     23  C   UNL     1       1.084   3.059  20.399  0.00  0.00    +0.000 C 
BRANCH  23  24
ATOM     24  C   UNL     1       1.626   2.619  21.740  0.00  0.00    +0.000 C 
ATOM     25  O   UNL     1       0.901   2.319  22.682  0.00  0.00    +0.000 OA
BRANCH  24  26
ATOM     26  O   UNL     1       2.973   2.522  21.843  0.00  0.00    +0.000 OA
ATOM     27  H   UNL     1       3.463   3.359  21.710  0.00  0.00    +0.000 HD
ENDBRANCH  24  26
ENDBRANCH  23  24
ENDBRANCH   5  23
TORSDOF 7
ENDMDL
MODEL 3
REMARK VINA RESULT:      -8.0      0.174      1.397
REMARK  Name = 
REMARK  8 active torsions:
REMARK  status: ('A' for Active; 'I' for Inactive)
REMARK    1  A    between atoms: C_1  and  O_2
REMARK    2  A    between atoms: O_2  and  C_3
REMARK    3  A    between atoms: C_6  and  C_7
REMARK    4  A    between atoms: C_8  and  C_9
REMARK    5  A    between atoms: C_12  and  N_13
REMARK    6  A    between atoms: C_18  and  C_19
REMARK    7  A    between atoms: C_19  and  C_20
REMARK    8  A    between atoms: C_20  and  O_22
REMARK                            x       y       z     vdW  Elec       q    Type
REMARK                         _______ _______ _______ _____ _____    ______ ____
ROOT
ATOM      1  C   UNL     1       3.492   4.894  19.305  0.00  0.00    +0.000 A 
ATOM      2  C   UNL     1       2.496   5.808  19.807  0.00  0.00    +0.000 A 
ATOM      3  N   UNL     1       1.800   5.229  20.799  0.00  0.00    +0.000 NA
ATOM      4  O   UNL     1       2.300   3.965  20.951  0.00  0.00    +0.000 OA
ATOM      5  C   UNL     1       3.298   3.748  20.057  0.00  0.00    +0.000 A 
ENDROOT
BRANCH   1   9
ATOM      6  C   UNL     1       6.386   5.501  16.210  0.00  0.00    +0.000 A 
ATOM      7  C   UNL     1       6.637   5.940  17.507  0.00  0.00    +0.000 A 
ATOM      8  C   UNL     1       5.721   5.679  18.530  0.00  0.00    +0.000 A 
ATOM      9  C   UNL     1       4.497   5.051  18.258  0.00  0.00    +0.000 A 
ATOM     10  C   UNL     1       4.247   4.642  16.942  0.00  0.00    +0.000 A 
ATOM     11  C   UNL     1       5.189   4.847  15.930  0.00  0.00    +0.000 A 
BRANCH   6  13
ATOM     12  C   UNL     1       7.281   5.016  14.094  0.00  0.00    +0.000 C 
ATOM     13  O   UNL     1       7.341   5.804  15.280  0.00  0.00    +0.000 OA
ENDBRANCH   6  13
ENDBRANCH   1   9
BRANCH   2  14
ATOM     14  C   UNL     1       2.161   7.173  19.380  0.00  0.00    +0.000 A 
ATOM     15  C   UNL     1       2.443   7.618  18.082  0.00  0.00    +0.000 A 
ATOM     16  C   UNL     1       2.173   8.937  17.703  0.00  0.00    +0.000 A 
ATOM     17  C   UNL     1       1.524   9.811  18.573  0.00  0.00    +0.000 A 
ATOM     18  C   UNL     1       1.263   9.382  19.876  0.00  0.00    +0.000 A 
ATOM     19  C   UNL     1       1.564   8.072  20.274  0.00  0.00    +0.000 A 
BRANCH  17  20
ATOM     20  N   UNL     1       1.344  11.151  18.216  0.00  0.00    +0.000 N 
ATOM     21  H   UNL     1       0.413  11.357  17.867  0.00  0.00    +0.000 HD
ATOM     22  H   UNL     1       1.631  11.805  18.940  0.00  0.00    +0.000 HD
ENDBRANCH  17  20
ENDBRANCH   2  14
BRANCH   5  23
ATOM     23  C   UNL     1       3.883   2.388  20.119  0.00  0.00    +0.000 C 
BRANCH  23  24
ATOM     24  C   UNL     1       3.528   1.573  18.896  0.00  0.00    +0.000 C 
ATOM     25  O   UNL     1       2.530   1.795  18.219  0.00  0.00    +0.000 OA
BRANCH  24  26
ATOM     26  O   UNL     1       4.401   0.600  18.545  0.00  0.00    +0.000 OA
ATOM     27  H   UNL     1       5.297   0.911  18.304  0.00  0.00    +0.000 HD
ENDBRANCH  24  26
ENDBRANCH  23  24
ENDBRANCH   5  23
TORSDOF 7
ENDMDL
MODEL 4
REMARK VINA RESULT:      -8.0      2.855      5.608
REMARK  Name = 
REMARK  8 active torsions:
REMARK  status: ('A' for Active; 'I' for Inactive)
REMARK    1  A    between atoms: C_1  and  O_2
REMARK    2  A    between atoms: O_2  and  C_3
REMARK    3  A    between atoms: C_6  and  C_7
REMARK    4  A    between atoms: C_8  and  C_9
REMARK    5  A    between atoms: C_12  and  N_13
REMARK    6  A    between atoms: C_18  and  C_19
REMARK    7  A    between atoms: C_19  and  C_20
REMARK    8  A    between atoms: C_20  and  O_22
REMARK                            x       y       z     vdW  Elec       q    Type
REMARK                         _______ _______ _______ _____ _____    ______ ____
ROOT
ATOM      1  C   UNL     1       2.801   4.180  18.769  0.00  0.00    +0.000 A 
ATOM      2  C   UNL     1       3.816   3.518  17.988  0.00  0.00    +0.000 A 
ATOM      3  N   UNL     1       3.758   2.191  18.192  0.00  0.00    +0.000 NA
ATOM      4  O   UNL     1       2.749   1.969  19.088  0.00  0.00    +0.000 OA
ATOM      5  C   UNL     1       2.181   3.147  19.451  0.00  0.00    +0.000 A 
ENDROOT
BRANCH   1   9
ATOM      6  C   UNL     1       1.912   8.354  19.105  0.00  0.00    +0.000 A 
ATOM      7  C   UNL     1       2.239   7.799  17.871  0.00  0.00    +0.000 A 
ATOM      8  C   UNL     1       2.461   6.424  17.752  0.00  0.00    +0.000 A 
ATOM      9  C   UNL     1       2.445   5.592  18.880  0.00  0.00    +0.000 A 
ATOM     10  C   UNL     1       2.144   6.171  20.120  0.00  0.00    +0.000 A 
ATOM     11  C   UNL     1       1.861   7.535  20.230  0.00  0.00    +0.000 A 
BRANCH   6  13
ATOM     12  C   UNL     1       0.791  10.157  20.107  0.00  0.00    +0.000 C 
ATOM     13  O   UNL     1       1.714   9.706  19.120  0.00  0.00    +0.000 OA
ENDBRANCH   6  13
ENDBRANCH   1   9
BRANCH   2  14
ATOM     14  C   UNL     1       4.838   4.076  17.094  0.00  0.00    +0.000 A 
ATOM     15  C   UNL     1       4.626   4.161  15.712  0.00  0.00    +0.000 A 
ATOM     16  C   UNL     1       5.627   4.640  14.861  0.00  0.00    +0.000 A 
ATOM     17  C   UNL     1       6.822   5.139  15.376  0.00  0.00    +0.000 A 
ATOM     18  C   UNL     1       7.051   5.034  16.750  0.00  0.00    +0.000 A 
ATOM     19  C   UNL     1       6.065   4.522  17.604  0.00  0.00    +0.000 A 
BRANCH  17  20
ATOM     20  N   UNL     1       7.851   5.528  14.512  0.00  0.00    +0.000 N 
ATOM     21  H   UNL     1       8.137   4.798  13.867  0.00  0.00    +0.000 HD
ATOM     22  H   UNL     1       7.668   6.406  14.034  0.00  0.00    +0.000 HD
ENDBRANCH  17  20
ENDBRANCH   2  14
BRANCH   5  23
ATOM     23  C   UNL     1       1.095   3.014  20.452  0.00  0.00    +0.000 C 
BRANCH  23  24
ATOM     24  C   UNL     1       1.629   2.574  21.795  0.00  0.00    +0.000 C 
ATOM     25  O   UNL     1       0.899   2.218  22.714  0.00  0.00    +0.000 OA
BRANCH  24  26
ATOM     26  O   UNL     1       2.976   2.542  21.928  0.00  0.00    +0.000 OA
ATOM     27  H   UNL     1       3.428   3.402  21.808  0.00  0.00    +0.000 HD
ENDBRANCH  24  26
ENDBRANCH  23  24
ENDBRANCH   5  23
TORSDOF 7
ENDMDL
MODEL 5
REMARK VINA RESULT:      -7.7      2.813      5.586
REMARK  Name = 
REMARK  8 active torsions:
REMARK  status: ('A' for Active; 'I' for Inactive)
REMARK    1  A    between atoms: C_1  and  O_2
REMARK    2  A    between atoms: O_2  and  C_3
REMARK    3  A    between atoms: C_6  and  C_7
REMARK    4  A    between atoms: C_8  and  C_9
REMARK    5  A    between atoms: C_12  and  N_13
REMARK    6  A    between atoms: C_18  and  C_19
REMARK    7  A    between atoms: C_19  and  C_20
REMARK    8  A    between atoms: C_20  and  O_22
REMARK                            x       y       z     vdW  Elec       q    Type
REMARK                         _______ _______ _______ _____ _____    ______ ____
ROOT
ATOM      1  C   UNL     1       3.606   4.845  19.276  0.00  0.00    +0.000 A 
ATOM      2  C   UNL     1       4.591   4.056  18.580  0.00  0.00    +0.000 A 
ATOM      3  N   UNL     1       4.722   2.858  19.173  0.00  0.00    +0.000 NA
ATOM      4  O   UNL     1       3.865   2.845  20.239  0.00  0.00    +0.000 OA
ATOM      5  C   UNL     1       3.206   4.029  20.320  0.00  0.00    +0.000 A 
ENDROOT
BRANCH   1   9
ATOM      6  C   UNL     1       1.973   8.720  18.475  0.00  0.00    +0.000 A 
ATOM      7  C   UNL     1       1.725   8.087  19.690  0.00  0.00    +0.000 A 
ATOM      8  C   UNL     1       2.315   6.852  19.976  0.00  0.00    +0.000 A 
ATOM      9  C   UNL     1       3.096   6.189  19.019  0.00  0.00    +0.000 A 
ATOM     10  C   UNL     1       3.311   6.826  17.790  0.00  0.00    +0.000 A 
ATOM     11  C   UNL     1       2.772   8.088  17.526  0.00  0.00    +0.000 A 
BRANCH   6  13
ATOM     12  C   UNL     1       0.376  10.244  19.276  0.00  0.00    +0.000 C 
ATOM     13  O   UNL     1       1.351   9.923  18.288  0.00  0.00    +0.000 OA
ENDBRANCH   6  13
ENDBRANCH   1   9
BRANCH   2  14
ATOM     14  C   UNL     1       5.419   4.388  17.414  0.00  0.00    +0.000 A 
ATOM     15  C   UNL     1       6.594   5.139  17.547  0.00  0.00    +0.000 A 
ATOM     16  C   UNL     1       7.345   5.499  16.423  0.00  0.00    +0.000 A 
ATOM     17  C   UNL     1       7.001   5.034  15.156  0.00  0.00    +0.000 A 
ATOM     18  C   UNL     1       5.818   4.306  15.012  0.00  0.00    +0.000 A 
ATOM     19  C   UNL     1       5.041   3.972  16.130  0.00  0.00    +0.000 A 
BRANCH  17  20
ATOM     20  N   UNL     1       7.704   5.476  14.031  0.00  0.00    +0.000 N 
ATOM     21  H   UNL     1       8.193   4.734  13.539  0.00  0.00    +0.000 HD
ATOM     22  H   UNL     1       7.144   6.044  13.400  0.00  0.00    +0.000 HD
ENDBRANCH  17  20
ENDBRANCH   2  14
BRANCH   5  23
ATOM     23  C   UNL     1       2.275   4.127  21.470  0.00  0.00    +0.000 C 
BRANCH  23  24
ATOM     24  C   UNL     1       1.289   2.982  21.487  0.00  0.00    +0.000 C 
ATOM     25  O   UNL     1       1.237   2.166  22.401  0.00  0.00    +0.000 OA
BRANCH  24  26
ATOM     26  O   UNL     1       0.415   2.923  20.454  0.00  0.00    +0.000 OA
ATOM     27  H   UNL     1      -0.282   2.242  20.536  0.00  0.00    +0.000 HD
ENDBRANCH  24  26
ENDBRANCH  23  24
ENDBRANCH   5  23
TORSDOF 7
ENDMDL
MODEL 6
REMARK VINA RESULT:      -7.6      0.959      1.278
REMARK  Name = 
REMARK  8 active torsions:
REMARK  status: ('A' for Active; 'I' for Inactive)
REMARK    1  A    between atoms: C_1  and  O_2
REMARK    2  A    between atoms: O_2  and  C_3
REMARK    3  A    between atoms: C_6  and  C_7
REMARK    4  A    between atoms: C_8  and  C_9
REMARK    5  A    between atoms: C_12  and  N_13
REMARK    6  A    between atoms: C_18  and  C_19
REMARK    7  A    between atoms: C_19  and  C_20
REMARK    8  A    between atoms: C_20  and  O_22
REMARK                            x       y       z     vdW  Elec       q    Type
REMARK                         _______ _______ _______ _____ _____    ______ ____
ROOT
ATOM      1  C   UNL     1       3.357   4.992  19.028  0.00  0.00    +0.000 A 
ATOM      2  C   UNL     1       2.371   5.885  19.584  0.00  0.00    +0.000 A 
ATOM      3  N   UNL     1       1.620   5.234  20.488  0.00  0.00    +0.000 NA
ATOM      4  O   UNL     1       2.075   3.945  20.529  0.00  0.00    +0.000 OA
ATOM      5  C   UNL     1       3.100   3.784  19.654  0.00  0.00    +0.000 A 
ENDROOT
BRANCH   1   9
ATOM      6  C   UNL     1       6.492   5.510  16.160  0.00  0.00    +0.000 A 
ATOM      7  C   UNL     1       5.335   4.814  15.822  0.00  0.00    +0.000 A 
ATOM      8  C   UNL     1       4.284   4.706  16.738  0.00  0.00    +0.000 A 
ATOM      9  C   UNL     1       4.406   5.217  18.038  0.00  0.00    +0.000 A 
ATOM     10  C   UNL     1       5.589   5.888  18.372  0.00  0.00    +0.000 A 
ATOM     11  C   UNL     1       6.616   6.051  17.437  0.00  0.00    +0.000 A 
BRANCH   6  13
ATOM     12  C   UNL     1       7.157   4.835  14.011  0.00  0.00    +0.000 C 
ATOM     13  O   UNL     1       7.462   5.561  15.198  0.00  0.00    +0.000 OA
ENDBRANCH   6  13
ENDBRANCH   1   9
BRANCH   2  14
ATOM     14  C   UNL     1       2.095   7.296  19.285  0.00  0.00    +0.000 A 
ATOM     15  C   UNL     1       1.536   8.147  20.247  0.00  0.00    +0.000 A 
ATOM     16  C   UNL     1       1.222   9.473  19.935  0.00  0.00    +0.000 A 
ATOM     17  C   UNL     1       1.552  10.011  18.693  0.00  0.00    +0.000 A 
ATOM     18  C   UNL     1       2.087   9.163  17.721  0.00  0.00    +0.000 A 
ATOM     19  C   UNL     1       2.370   7.822  18.015  0.00  0.00    +0.000 A 
BRANCH  17  20
ATOM     20  N   UNL     1       1.151  11.309  18.361  0.00  0.00    +0.000 N 
ATOM     21  H   UNL     1       1.135  11.486  17.361  0.00  0.00    +0.000 HD
ATOM     22  H   UNL     1       0.284  11.592  18.810  0.00  0.00    +0.000 HD
ENDBRANCH  17  20
ENDBRANCH   2  14
BRANCH   5  23
ATOM     23  C   UNL     1       3.640   2.405  19.598  0.00  0.00    +0.000 C 
BRANCH  23  24
ATOM     24  C   UNL     1       4.165   1.959  20.944  0.00  0.00    +0.000 C 
ATOM     25  O   UNL     1       5.319   1.579  21.112  0.00  0.00    +0.000 OA
BRANCH  24  26
ATOM     26  O   UNL     1       3.304   2.045  21.986  0.00  0.00    +0.000 OA
ATOM     27  H   UNL     1       2.356   2.064  21.743  0.00  0.00    +0.000 HD
ENDBRANCH  24  26
ENDBRANCH  23  24
ENDBRANCH   5  23
TORSDOF 7
ENDMDL
MODEL 7
REMARK VINA RESULT:      -7.6      2.766      5.595
REMARK  Name = 
REMARK  8 active torsions:
REMARK  status: ('A' for Active; 'I' for Inactive)
REMARK    1  A    between atoms: C_1  and  O_2
REMARK    2  A    between atoms: O_2  and  C_3
REMARK    3  A    between atoms: C_6  and  C_7
REMARK    4  A    between atoms: C_8  and  C_9
REMARK    5  A    between atoms: C_12  and  N_13
REMARK    6  A    between atoms: C_18  and  C_19
REMARK    7  A    between atoms: C_19  and  C_20
REMARK    8  A    between atoms: C_20  and  O_22
REMARK                            x       y       z     vdW  Elec       q    Type
REMARK                         _______ _______ _______ _____ _____    ______ ____
ROOT
ATOM      1  C   UNL     1       3.482   4.904  19.236  0.00  0.00    +0.000 A 
ATOM      2  C   UNL     1       4.445   4.135  18.488  0.00  0.00    +0.000 A 
ATOM      3  N   UNL     1       4.567   2.908  19.022  0.00  0.00    +0.000 NA
ATOM      4  O   UNL     1       3.727   2.858  20.099  0.00  0.00    +0.000 OA
ATOM      5  C   UNL     1       3.086   4.045  20.247  0.00  0.00    +0.000 A 
ENDROOT
BRANCH   1   9
ATOM      6  C   UNL     1       1.892   8.835  18.656  0.00  0.00    +0.000 A 
ATOM      7  C   UNL     1       1.731   8.182  19.875  0.00  0.00    +0.000 A 
ATOM      8  C   UNL     1       2.311   6.927  20.084  0.00  0.00    +0.000 A 
ATOM      9  C   UNL     1       2.989   6.265  19.050  0.00  0.00    +0.000 A 
ATOM     10  C   UNL     1       3.115   6.924  17.821  0.00  0.00    +0.000 A 
ATOM     11  C   UNL     1       2.590   8.205  17.629  0.00  0.00    +0.000 A 
BRANCH   6  13
ATOM     12  C   UNL     1      -0.098  10.005  18.224  0.00  0.00    +0.000 C 
ATOM     13  O   UNL     1       1.289  10.058  18.547  0.00  0.00    +0.000 OA
ENDBRANCH   6  13
ENDBRANCH   1   9
BRANCH   2  14
ATOM     14  C   UNL     1       5.260   4.510  17.325  0.00  0.00    +0.000 A 
ATOM     15  C   UNL     1       4.989   3.996  16.051  0.00  0.00    +0.000 A 
ATOM     16  C   UNL     1       5.806   4.313  14.962  0.00  0.00    +0.000 A 
ATOM     17  C   UNL     1       6.849   5.228  15.094  0.00  0.00    +0.000 A 
ATOM     18  C   UNL     1       7.141   5.725  16.366  0.00  0.00    +0.000 A 
ATOM     19  C   UNL     1       6.347   5.383  17.470  0.00  0.00    +0.000 A 
BRANCH  17  20
ATOM     20  N   UNL     1       7.715   5.466  14.022  0.00  0.00    +0.000 N 
ATOM     21  H   UNL     1       8.281   6.301  14.134  0.00  0.00    +0.000 HD
ATOM     22  H   UNL     1       8.278   4.658  13.769  0.00  0.00    +0.000 HD
ENDBRANCH  17  20
ENDBRANCH   2  14
BRANCH   5  23
ATOM     23  C   UNL     1       2.175   4.102  21.415  0.00  0.00    +0.000 C 
BRANCH  23  24
ATOM     24  C   UNL     1       1.255   2.905  21.462  0.00  0.00    +0.000 C 
ATOM     25  O   UNL     1       1.124   2.207  22.461  0.00  0.00    +0.000 OA
BRANCH  24  26
ATOM     26  O   UNL     1       0.528   2.659  20.345  0.00  0.00    +0.000 OA
ATOM     27  H   UNL     1      -0.167   3.319  20.146  0.00  0.00    +0.000 HD
ENDBRANCH  24  26
ENDBRANCH  23  24
ENDBRANCH   5  23
TORSDOF 7
ENDMDL
MODEL 8
REMARK VINA RESULT:      -7.6      2.802      5.553
REMARK  Name = 
REMARK  8 active torsions:
REMARK  status: ('A' for Active; 'I' for Inactive)
REMARK    1  A    between atoms: C_1  and  O_2
REMARK    2  A    between atoms: O_2  and  C_3
REMARK    3  A    between atoms: C_6  and  C_7
REMARK    4  A    between atoms: C_8  and  C_9
REMARK    5  A    between atoms: C_12  and  N_13
REMARK    6  A    between atoms: C_18  and  C_19
REMARK    7  A    between atoms: C_19  and  C_20
REMARK    8  A    between atoms: C_20  and  O_22
REMARK                            x       y       z     vdW  Elec       q    Type
REMARK                         _______ _______ _______ _____ _____    ______ ____
ROOT
ATOM      1  C   UNL     1       3.538   4.844  19.296  0.00  0.00    +0.000 A 
ATOM      2  C   UNL     1       4.560   4.108  18.595  0.00  0.00    +0.000 A 
ATOM      3  N   UNL     1       4.767   2.924  19.196  0.00  0.00    +0.000 NA
ATOM      4  O   UNL     1       3.923   2.872  20.271  0.00  0.00    +0.000 OA
ATOM      5  C   UNL     1       3.197   4.016  20.350  0.00  0.00    +0.000 A 
ENDROOT
BRANCH   1   9
ATOM      6  C   UNL     1       1.949   8.751  18.564  0.00  0.00    +0.000 A 
ATOM      7  C   UNL     1       2.680   8.091  17.580  0.00  0.00    +0.000 A 
ATOM      8  C   UNL     1       3.139   6.788  17.797  0.00  0.00    +0.000 A 
ATOM      9  C   UNL     1       2.949   6.154  19.033  0.00  0.00    +0.000 A 
ATOM     10  C   UNL     1       2.237   6.844  20.023  0.00  0.00    +0.000 A 
ATOM     11  C   UNL     1       1.725   8.123  19.786  0.00  0.00    +0.000 A 
BRANCH   6  13
ATOM     12  C   UNL     1       0.181  10.296  18.564  0.00  0.00    +0.000 C 
ATOM     13  O   UNL     1       1.545  10.021  18.259  0.00  0.00    +0.000 OA
ENDBRANCH   6  13
ENDBRANCH   1   9
BRANCH   2  14
ATOM     14  C   UNL     1       5.356   4.477  17.417  0.00  0.00    +0.000 A 
ATOM     15  C   UNL     1       5.047   3.978  16.145  0.00  0.00    +0.000 A 
ATOM     16  C   UNL     1       5.846   4.289  15.040  0.00  0.00    +0.000 A 
ATOM     17  C   UNL     1       6.907   5.184  15.156  0.00  0.00    +0.000 A 
ATOM     18  C   UNL     1       7.236   5.667  16.424  0.00  0.00    +0.000 A 
ATOM     19  C   UNL     1       6.461   5.330  17.543  0.00  0.00    +0.000 A 
BRANCH  17  20
ATOM     20  N   UNL     1       7.753   5.415  14.066  0.00  0.00    +0.000 N 
ATOM     21  H   UNL     1       8.638   4.921  14.127  0.00  0.00    +0.000 HD
ATOM     22  H   UNL     1       7.302   5.274  13.167  0.00  0.00    +0.000 HD
ENDBRANCH  17  20
ENDBRANCH   2  14
BRANCH   5  23
ATOM     23  C   UNL     1       2.275   4.070  21.509  0.00  0.00    +0.000 C 
BRANCH  23  24
ATOM     24  C   UNL     1       1.289   2.924  21.490  0.00  0.00    +0.000 C 
ATOM     25  O   UNL     1       1.221   2.093  22.389  0.00  0.00    +0.000 OA
BRANCH  24  26
ATOM     26  O   UNL     1       0.434   2.882  20.441  0.00  0.00    +0.000 OA
ATOM     27  H   UNL     1       0.019   2.011  20.276  0.00  0.00    +0.000 HD
ENDBRANCH  24  26
ENDBRANCH  23  24
ENDBRANCH   5  23
TORSDOF 7
ENDMDL
MODEL 9
REMARK VINA RESULT:      -7.4      1.949      4.780
REMARK  Name = 
REMARK  8 active torsions:
REMARK  status: ('A' for Active; 'I' for Inactive)
REMARK    1  A    between atoms: C_1  and  O_2
REMARK    2  A    between atoms: O_2  and  C_3
REMARK    3  A    between atoms: C_6  and  C_7
REMARK    4  A    between atoms: C_8  and  C_9
REMARK    5  A    between atoms: C_12  and  N_13
REMARK    6  A    between atoms: C_18  and  C_19
REMARK    7  A    between atoms: C_19  and  C_20
REMARK    8  A    between atoms: C_20  and  O_22
REMARK                            x       y       z     vdW  Elec       q    Type
REMARK                         _______ _______ _______ _____ _____    ______ ____
ROOT
ATOM      1  C   UNL     1       3.893   5.725  17.369  0.00  0.00    +0.000 A 
ATOM      2  C   UNL     1       3.621   7.139  17.306  0.00  0.00    +0.000 A 
ATOM      3  N   UNL     1       4.379   7.709  16.353  0.00  0.00    +0.000 NA
ATOM      4  O   UNL     1       5.142   6.716  15.805  0.00  0.00    +0.000 OA
ATOM      5  C   UNL     1       4.873   5.532  16.412  0.00  0.00    +0.000 A 
ENDROOT
BRANCH   1   9
ATOM      6  C   UNL     1       2.157   2.763  19.926  0.00  0.00    +0.000 A 
ATOM      7  C   UNL     1       1.425   3.300  18.871  0.00  0.00    +0.000 A 
ATOM      8  C   UNL     1       2.017   4.216  17.996  0.00  0.00    +0.000 A 
ATOM      9  C   UNL     1       3.325   4.676  18.211  0.00  0.00    +0.000 A 
ATOM     10  C   UNL     1       4.037   4.147  19.296  0.00  0.00    +0.000 A 
ATOM     11  C   UNL     1       3.467   3.185  20.135  0.00  0.00    +0.000 A 
BRANCH   6  13
ATOM     12  C   UNL     1       1.322   2.307  22.073  0.00  0.00    +0.000 C 
ATOM     13  O   UNL     1       1.492   1.876  20.726  0.00  0.00    +0.000 OA
ENDBRANCH   6  13
ENDBRANCH   1   9
BRANCH   2  14
ATOM     14  C   UNL     1       2.712   7.967  18.109  0.00  0.00    +0.000 A 
ATOM     15  C   UNL     1       2.361   7.604  19.415  0.00  0.00    +0.000 A 
ATOM     16  C   UNL     1       1.450   8.368  20.150  0.00  0.00    +0.000 A 
ATOM     17  C   UNL     1       0.947   9.564  19.641  0.00  0.00    +0.000 A 
ATOM     18  C   UNL     1       1.273   9.920  18.331  0.00  0.00    +0.000 A 
ATOM     19  C   UNL     1       2.158   9.139  17.575  0.00  0.00    +0.000 A 
BRANCH  17  20
ATOM     20  N   UNL     1      -0.033  10.270  20.346  0.00  0.00    +0.000 N 
ATOM     21  H   UNL     1      -0.908   9.764  20.442  0.00  0.00    +0.000 HD
ATOM     22  H   UNL     1       0.293  10.635  21.237  0.00  0.00    +0.000 HD
ENDBRANCH  17  20
ENDBRANCH   2  14
BRANCH   5  23
ATOM     23  C   UNL     1       5.681   4.395  15.909  0.00  0.00    +0.000 C 
BRANCH  23  24
ATOM     24  C   UNL     1       7.155   4.728  15.887  0.00  0.00    +0.000 C 
ATOM     25  O   UNL     1       7.924   4.392  16.781  0.00  0.00    +0.000 OA
BRANCH  24  26
ATOM     26  O   UNL     1       7.610   5.383  14.792  0.00  0.00    +0.000 OA
ATOM     27  H   UNL     1       7.635   6.358  14.870  0.00  0.00    +0.000 HD
ENDBRANCH  24  26
ENDBRANCH  23  24
ENDBRANCH   5  23
TORSDOF 7
ENDMDL
