MODEL 1
REMARK VINA RESULT:      -9.6      0.000      0.000
REMARK  Name = 
REMARK  2 active torsions:
REMARK  status: ('A' for Active; 'I' for Inactive)
REMARK    1  A    between atoms: N_18  and  C_19
REMARK    2  A    between atoms: C_19  and  C_20
REMARK                            x       y       z     vdW  Elec       q    Type
REMARK                         _______ _______ _______ _____ _____    ______ ____
ROOT
ATOM      1  O   UNL     1      -0.427   8.864  22.687  0.00  0.00    +0.000 OA
ATOM      2  C   UNL     1       0.024   9.081  21.543  0.00  0.00    +0.000 C 
ATOM      3  C   UNL     1      -0.570  10.199  20.683  0.00  0.00    +0.000 C 
ATOM      4  C   UNL     1       0.283  10.668  19.493  0.00  0.00    +0.000 C 
ATOM      5  C   UNL     1      -0.700  10.878  18.283  0.00  0.00    +0.000 C 
ATOM      6  O   UNL     1      -1.234  10.015  17.613  0.00  0.00    +0.000 OA
ATOM      7  N   UNL     1      -0.834  12.236  18.077  0.00  0.00    +0.000 N 
ATOM      8  C   UNL     1       0.197  12.906  18.712  0.00  0.00    +0.000 A 
ATOM      9  C   UNL     1       0.478  14.250  18.516  0.00  0.00    +0.000 A 
ATOM     10  C   UNL     1       1.431  14.831  19.333  0.00  0.00    +0.000 A 
ATOM     11  C   UNL     1       1.996  14.075  20.373  0.00  0.00    +0.000 A 
ATOM     12 CL   UNL     1       2.979  14.891  21.528  0.00  0.00    +0.000 Cl
ATOM     13  C   UNL     1       1.712  12.692  20.532  0.00  0.00    +0.000 A 
ATOM     14  C   UNL     1       0.856  12.073  19.626  0.00  0.00    +0.000 A 
ATOM     15  C   UNL     1       1.269   9.660  19.085  0.00  0.00    +0.000 A 
ATOM     16  C   UNL     1       1.898   9.418  17.848  0.00  0.00    +0.000 A 
ATOM     17  N   UNL     1       2.470   8.216  17.802  0.00  0.00    +0.000 NA
ATOM     18  N   UNL     1       2.277   7.682  19.019  0.00  0.00    +0.000 N 
ATOM     19  C   UNL     1       1.497   8.499  19.807  0.00  0.00    +0.000 A 
ATOM     20  N   UNL     1       0.954   8.228  21.022  0.00  0.00    +0.000 N 
ATOM     21  H   UNL     1      -1.750  12.579  18.340  0.00  0.00    +0.000 HD
ATOM     22  H   UNL     1       1.207   7.412  21.564  0.00  0.00    +0.000 HD
ENDROOT
BRANCH  18  23
ATOM     23  C   UNL     1       2.769   6.339  19.243  0.00  0.00    +0.000 C 
BRANCH  23  24
ATOM     24  C   UNL     1       2.882   5.402  18.006  0.00  0.00    +0.000 C 
ATOM     25  C   UNL     1       1.564   4.701  17.662  0.00  0.00    +0.000 C 
ATOM     26  C   UNL     1       1.285   3.482  18.533  0.00  0.00    +0.000 C 
ATOM     27  C   UNL     1       2.435   2.490  18.526  0.00  0.00    +0.000 C 
ATOM     28  F   UNL     1       2.429   1.849  17.323  0.00  0.00    +0.000 F 
ATOM     29  F   UNL     1       2.199   1.532  19.461  0.00  0.00    +0.000 F 
ATOM     30  C   UNL     1       3.819   3.074  18.738  0.00  0.00    +0.000 C 
ATOM     31  C   UNL     1       4.050   4.392  17.995  0.00  0.00    +0.000 C 
ENDBRANCH  23  24
ENDBRANCH  18  23
TORSDOF 2
ENDMDL
MODEL 2
REMARK VINA RESULT:      -9.4      0.754      1.062
REMARK  Name = 
REMARK  2 active torsions:
REMARK  status: ('A' for Active; 'I' for Inactive)
REMARK    1  A    between atoms: N_18  and  C_19
REMARK    2  A    between atoms: C_19  and  C_20
REMARK                            x       y       z     vdW  Elec       q    Type
REMARK                         _______ _______ _______ _____ _____    ______ ____
ROOT
ATOM      1  O   UNL     1      -0.462   8.890  22.745  0.00  0.00    +0.000 OA
ATOM      2  C   UNL     1      -0.002   9.094  21.603  0.00  0.00    +0.000 C 
ATOM      3  C   UNL     1      -0.581  10.211  20.731  0.00  0.00    +0.000 C 
ATOM      4  C   UNL     1       0.284  10.663  19.543  0.00  0.00    +0.000 C 
ATOM      5  C   UNL     1      -0.689  10.872  18.325  0.00  0.00    +0.000 C 
ATOM      6  O   UNL     1      -1.226  10.008  17.657  0.00  0.00    +0.000 OA
ATOM      7  N   UNL     1      -0.810  12.230  18.107  0.00  0.00    +0.000 N 
ATOM      8  C   UNL     1       0.223  12.896  18.743  0.00  0.00    +0.000 A 
ATOM      9  C   UNL     1       0.516  14.236  18.539  0.00  0.00    +0.000 A 
ATOM     10  C   UNL     1       1.469  14.815  19.359  0.00  0.00    +0.000 A 
ATOM     11  C   UNL     1       2.020  14.062  20.408  0.00  0.00    +0.000 A 
ATOM     12 CL   UNL     1       3.003  14.879  21.563  0.00  0.00    +0.000 Cl
ATOM     13  C   UNL     1       1.724  12.683  20.575  0.00  0.00    +0.000 A 
ATOM     14  C   UNL     1       0.869  12.064  19.668  0.00  0.00    +0.000 A 
ATOM     15  C   UNL     1       1.264   9.644  19.149  0.00  0.00    +0.000 A 
ATOM     16  C   UNL     1       1.899   9.387  17.919  0.00  0.00    +0.000 A 
ATOM     17  N   UNL     1       2.461   8.179  17.886  0.00  0.00    +0.000 NA
ATOM     18  N   UNL     1       2.256   7.657  19.105  0.00  0.00    +0.000 N 
ATOM     19  C   UNL     1       1.477   8.486  19.881  0.00  0.00    +0.000 A 
ATOM     20  N   UNL     1       0.924   8.230  21.095  0.00  0.00    +0.000 N 
ATOM     21  H   UNL     1      -1.725  12.583  18.361  0.00  0.00    +0.000 HD
ATOM     22  H   UNL     1       1.166   7.415  21.645  0.00  0.00    +0.000 HD
ENDROOT
BRANCH  18  23
ATOM     23  C   UNL     1       2.734   6.311  19.343  0.00  0.00    +0.000 C 
BRANCH  23  24
ATOM     24  C   UNL     1       1.700   5.154  19.236  0.00  0.00    +0.000 C 
ATOM     25  C   UNL     1       1.673   4.256  20.476  0.00  0.00    +0.000 C 
ATOM     26  C   UNL     1       2.795   3.223  20.495  0.00  0.00    +0.000 C 
ATOM     27  C   UNL     1       2.832   2.384  19.230  0.00  0.00    +0.000 C 
ATOM     28  F   UNL     1       1.788   1.509  19.276  0.00  0.00    +0.000 F 
ATOM     29  F   UNL     1       3.959   1.624  19.235  0.00  0.00    +0.000 F 
ATOM     30  C   UNL     1       2.744   3.149  17.922  0.00  0.00    +0.000 C 
ATOM     31  C   UNL     1       1.735   4.299  17.950  0.00  0.00    +0.000 C 
ENDBRANCH  23  24
ENDBRANCH  18  23
TORSDOF 2
ENDMDL
MODEL 3
REMARK VINA RESULT:      -8.5      1.600      1.943
REMARK  Name = 
REMARK  2 active torsions:
REMARK  status: ('A' for Active; 'I' for Inactive)
REMARK    1  A    between atoms: N_18  and  C_19
REMARK    2  A    between atoms: C_19  and  C_20
REMARK                            x       y       z     vdW  Elec       q    Type
REMARK                         _______ _______ _______ _____ _____    ______ ____
ROOT
ATOM      1  O   UNL     1       0.465   9.587  23.321  0.00  0.00    +0.000 OA
ATOM      2  C   UNL     1       0.530   9.733  22.083  0.00  0.00    +0.000 C 
ATOM      3  C   UNL     1      -0.339  10.785  21.388  0.00  0.00    +0.000 C 
ATOM      4  C   UNL     1       0.084  11.184  19.965  0.00  0.00    +0.000 C 
ATOM      5  C   UNL     1      -1.233  11.302  19.114  0.00  0.00    +0.000 C 
ATOM      6  O   UNL     1      -1.921  10.390  18.697  0.00  0.00    +0.000 OA
ATOM      7  N   UNL     1      -1.468  12.642  18.881  0.00  0.00    +0.000 N 
ATOM      8  C   UNL     1      -0.313  13.365  19.120  0.00  0.00    +0.000 A 
ATOM      9  C   UNL     1      -0.151  14.696  18.767  0.00  0.00    +0.000 A 
ATOM     10  C   UNL     1       0.990  15.342  19.209  0.00  0.00    +0.000 A 
ATOM     11  C   UNL     1       1.875  14.663  20.063  0.00  0.00    +0.000 A 
ATOM     12 CL   UNL     1       3.142  15.567  20.801  0.00  0.00    +0.000 Cl
ATOM     13  C   UNL     1       1.700  13.291  20.383  0.00  0.00    +0.000 A 
ATOM     14  C   UNL     1       0.625  12.603  19.829  0.00  0.00    +0.000 A 
ATOM     15  C   UNL     1       0.926  10.164  19.330  0.00  0.00    +0.000 A 
ATOM     16  C   UNL     1       1.146   9.849  17.975  0.00  0.00    +0.000 A 
ATOM     17  N   UNL     1       1.714   8.653  17.822  0.00  0.00    +0.000 NA
ATOM     18  N   UNL     1       1.928   8.199  19.067  0.00  0.00    +0.000 N 
ATOM     19  C   UNL     1       1.406   9.056  20.010  0.00  0.00    +0.000 A 
ATOM     20  N   UNL     1       1.278   8.860  21.348  0.00  0.00    +0.000 N 
ATOM     21  H   UNL     1      -2.268  12.990  19.396  0.00  0.00    +0.000 HD
ATOM     22  H   UNL     1       1.714   8.084  21.831  0.00  0.00    +0.000 HD
ENDROOT
BRANCH  18  23
ATOM     23  C   UNL     1       2.508   6.880  19.205  0.00  0.00    +0.000 C 
BRANCH  23  24
ATOM     24  C   UNL     1       3.001   6.176  17.908  0.00  0.00    +0.000 C 
ATOM     25  C   UNL     1       3.085   4.653  18.047  0.00  0.00    +0.000 C 
ATOM     26  C   UNL     1       4.349   4.182  18.758  0.00  0.00    +0.000 C 
ATOM     27  C   UNL     1       5.612   4.730  18.117  0.00  0.00    +0.000 C 
ATOM     28  F   UNL     1       5.812   4.062  16.945  0.00  0.00    +0.000 F 
ATOM     29  F   UNL     1       6.676   4.426  18.906  0.00  0.00    +0.000 F 
ATOM     30  C   UNL     1       5.614   6.216  17.814  0.00  0.00    +0.000 C 
ATOM     31  C   UNL     1       4.286   6.730  17.253  0.00  0.00    +0.000 C 
ENDBRANCH  23  24
ENDBRANCH  18  23
TORSDOF 2
ENDMDL
MODEL 4
REMARK VINA RESULT:      -8.4      5.379      8.906
REMARK  Name = 
REMARK  2 active torsions:
REMARK  status: ('A' for Active; 'I' for Inactive)
REMARK    1  A    between atoms: N_18  and  C_19
REMARK    2  A    between atoms: C_19  and  C_20
REMARK                            x       y       z     vdW  Elec       q    Type
REMARK                         _______ _______ _______ _____ _____    ______ ____
ROOT
ATOM      1  O   UNL     1       2.868   2.169  18.184  0.00  0.00    +0.000 OA
ATOM      2  C   UNL     1       3.420   3.244  17.869  0.00  0.00    +0.000 C 
ATOM      3  C   UNL     1       4.857   3.243  17.344  0.00  0.00    +0.000 C 
ATOM      4  C   UNL     1       5.312   4.513  16.605  0.00  0.00    +0.000 C 
ATOM      5  C   UNL     1       6.779   4.817  17.082  0.00  0.00    +0.000 C 
ATOM      6  O   UNL     1       7.122   5.272  18.157  0.00  0.00    +0.000 OA
ATOM      7  N   UNL     1       7.635   4.510  16.043  0.00  0.00    +0.000 N 
ATOM      8  C   UNL     1       6.919   4.424  14.862  0.00  0.00    +0.000 A 
ATOM      9  C   UNL     1       7.508   4.351  13.608  0.00  0.00    +0.000 A 
ATOM     10  C   UNL     1       6.681   4.105  12.526  0.00  0.00    +0.000 A 
ATOM     11  C   UNL     1       5.319   3.847  12.748  0.00  0.00    +0.000 A 
ATOM     12 CL   UNL     1       4.372   3.292  11.421  0.00  0.00    +0.000 Cl
ATOM     13  C   UNL     1       4.737   3.958  14.039  0.00  0.00    +0.000 A 
ATOM     14  C   UNL     1       5.542   4.338  15.109  0.00  0.00    +0.000 A 
ATOM     15  C   UNL     1       4.490   5.679  16.947  0.00  0.00    +0.000 A 
ATOM     16  C   UNL     1       4.774   7.058  16.926  0.00  0.00    +0.000 A 
ATOM     17  N   UNL     1       3.884   7.766  17.622  0.00  0.00    +0.000 NA
ATOM     18  N   UNL     1       2.978   6.874  18.053  0.00  0.00    +0.000 N 
ATOM     19  C   UNL     1       3.343   5.588  17.721  0.00  0.00    +0.000 A 
ATOM     20  N   UNL     1       2.777   4.421  18.124  0.00  0.00    +0.000 N 
ATOM     21  H   UNL     1       8.192   3.685  16.230  0.00  0.00    +0.000 HD
ATOM     22  H   UNL     1       1.892   4.383  18.614  0.00  0.00    +0.000 HD
ENDROOT
BRANCH  18  23
ATOM     23  C   UNL     1       1.900   7.367  18.883  0.00  0.00    +0.000 C 
BRANCH  23  24
ATOM     24  C   UNL     1       1.893   8.886  19.220  0.00  0.00    +0.000 C 
ATOM     25  C   UNL     1       1.154   9.209  20.522  0.00  0.00    +0.000 C 
ATOM     26  C   UNL     1      -0.361   9.261  20.356  0.00  0.00    +0.000 C 
ATOM     27  C   UNL     1      -0.791  10.208  19.250  0.00  0.00    +0.000 C 
ATOM     28  F   UNL     1      -0.620  11.484  19.700  0.00  0.00    +0.000 F 
ATOM     29  F   UNL     1      -2.125  10.062  19.035  0.00  0.00    +0.000 F 
ATOM     30  C   UNL     1      -0.048  10.074  17.933  0.00  0.00    +0.000 C 
ATOM     31  C   UNL     1       1.457   9.853  18.097  0.00  0.00    +0.000 C 
ENDBRANCH  23  24
ENDBRANCH  18  23
TORSDOF 2
ENDMDL
MODEL 5
REMARK VINA RESULT:      -8.2      2.741      3.907
REMARK  Name = 
REMARK  2 active torsions:
REMARK  status: ('A' for Active; 'I' for Inactive)
REMARK    1  A    between atoms: N_18  and  C_19
REMARK    2  A    between atoms: C_19  and  C_20
REMARK                            x       y       z     vdW  Elec       q    Type
REMARK                         _______ _______ _______ _____ _____    ______ ____
ROOT
ATOM      1  O   UNL     1       2.524  10.751  17.198  0.00  0.00    +0.000 OA
ATOM      2  C   UNL     1       1.826  10.446  18.187  0.00  0.00    +0.000 C 
ATOM      3  C   UNL     1       0.965  11.507  18.876  0.00  0.00    +0.000 C 
ATOM      4  C   UNL     1      -0.152  10.986  19.794  0.00  0.00    +0.000 C 
ATOM      5  C   UNL     1      -0.157  11.904  21.071  0.00  0.00    +0.000 C 
ATOM      6  O   UNL     1       0.649  11.900  21.982  0.00  0.00    +0.000 OA
ATOM      7  N   UNL     1      -1.274  12.712  21.007  0.00  0.00    +0.000 N 
ATOM      8  C   UNL     1      -2.173  12.191  20.094  0.00  0.00    +0.000 A 
ATOM      9  C   UNL     1      -3.480  12.637  19.959  0.00  0.00    +0.000 A 
ATOM     10  C   UNL     1      -4.219  12.140  18.900  0.00  0.00    +0.000 A 
ATOM     11  C   UNL     1      -3.599  11.295  17.966  0.00  0.00    +0.000 A 
ATOM     12 CL   UNL     1      -4.461  10.904  16.528  0.00  0.00    +0.000 Cl
ATOM     13  C   UNL     1      -2.269  10.831  18.146  0.00  0.00    +0.000 A 
ATOM     14  C   UNL     1      -1.568  11.222  19.283  0.00  0.00    +0.000 A 
ATOM     15  C   UNL     1       0.096   9.612  20.245  0.00  0.00    +0.000 A 
ATOM     16  C   UNL     1      -0.332   8.915  21.392  0.00  0.00    +0.000 A 
ATOM     17  N   UNL     1       0.375   7.805  21.599  0.00  0.00    +0.000 NA
ATOM     18  N   UNL     1       1.228   7.728  20.565  0.00  0.00    +0.000 N 
ATOM     19  C   UNL     1       1.136   8.838  19.756  0.00  0.00    +0.000 A 
ATOM     20  N   UNL     1       1.943   9.197  18.723  0.00  0.00    +0.000 N 
ATOM     21  H   UNL     1      -1.041  13.682  20.824  0.00  0.00    +0.000 HD
ATOM     22  H   UNL     1       2.638   8.574  18.331  0.00  0.00    +0.000 HD
ENDROOT
BRANCH  18  23
ATOM     23  C   UNL     1       2.161   6.621  20.553  0.00  0.00    +0.000 C 
BRANCH  23  24
ATOM     24  C   UNL     1       1.812   5.399  19.656  0.00  0.00    +0.000 C 
ATOM     25  C   UNL     1       1.104   4.277  20.419  0.00  0.00    +0.000 C 
ATOM     26  C   UNL     1       2.059   3.393  21.214  0.00  0.00    +0.000 C 
ATOM     27  C   UNL     1       3.177   2.830  20.355  0.00  0.00    +0.000 C 
ATOM     28  F   UNL     1       2.649   1.852  19.566  0.00  0.00    +0.000 F 
ATOM     29  F   UNL     1       4.085   2.215  21.157  0.00  0.00    +0.000 F 
ATOM     30  C   UNL     1       3.888   3.823  19.454  0.00  0.00    +0.000 C 
ATOM     31  C   UNL     1       2.947   4.824  18.780  0.00  0.00    +0.000 C 
ENDBRANCH  23  24
ENDBRANCH  18  23
TORSDOF 2
ENDMDL
MODEL 6
REMARK VINA RESULT:      -8.0      1.050      1.604
REMARK  Name = 
REMARK  2 active torsions:
REMARK  status: ('A' for Active; 'I' for Inactive)
REMARK    1  A    between atoms: N_18  and  C_19
REMARK    2  A    between atoms: C_19  and  C_20
REMARK                            x       y       z     vdW  Elec       q    Type
REMARK                         _______ _______ _______ _____ _____    ______ ____
ROOT
ATOM      1  O   UNL     1      -0.306   9.047  22.565  0.00  0.00    +0.000 OA
ATOM      2  C   UNL     1       0.075   9.402  21.431  0.00  0.00    +0.000 C 
ATOM      3  C   UNL     1      -0.461  10.696  20.812  0.00  0.00    +0.000 C 
ATOM      4  C   UNL     1       0.342  11.269  19.632  0.00  0.00    +0.000 C 
ATOM      5  C   UNL     1      -0.704  11.764  18.567  0.00  0.00    +0.000 C 
ATOM      6  O   UNL     1      -1.380  11.075  17.826  0.00  0.00    +0.000 OA
ATOM      7  N   UNL     1      -0.707  13.144  18.585  0.00  0.00    +0.000 N 
ATOM      8  C   UNL     1       0.437  13.602  19.214  0.00  0.00    +0.000 A 
ATOM      9  C   UNL     1       0.845  14.928  19.201  0.00  0.00    +0.000 A 
ATOM     10  C   UNL     1       1.917  15.276  20.004  0.00  0.00    +0.000 A 
ATOM     11  C   UNL     1       2.477  14.312  20.858  0.00  0.00    +0.000 A 
ATOM     12 CL   UNL     1       3.630  14.834  22.026  0.00  0.00    +0.000 Cl
ATOM     13  C   UNL     1       2.059  12.955  20.829  0.00  0.00    +0.000 A 
ATOM     14  C   UNL     1       1.072  12.574  19.924  0.00  0.00    +0.000 A 
ATOM     15  C   UNL     1       1.178  10.252  18.984  0.00  0.00    +0.000 A 
ATOM     16  C   UNL     1       1.678  10.155  17.671  0.00  0.00    +0.000 A 
ATOM     17  N   UNL     1       2.112   8.928  17.387  0.00  0.00    +0.000 NA
ATOM     18  N   UNL     1       1.959   8.225  18.521  0.00  0.00    +0.000 N 
ATOM     19  C   UNL     1       1.335   8.973  19.494  0.00  0.00    +0.000 A 
ATOM     20  N   UNL     1       0.863   8.562  20.700  0.00  0.00    +0.000 N 
ATOM     21  H   UNL     1      -1.557  13.525  18.983  0.00  0.00    +0.000 HD
ATOM     22  H   UNL     1       1.068   7.648  21.084  0.00  0.00    +0.000 HD
ENDROOT
BRANCH  18  23
ATOM     23  C   UNL     1       2.319   6.823  18.489  0.00  0.00    +0.000 C 
BRANCH  23  24
ATOM     24  C   UNL     1       2.812   6.180  19.817  0.00  0.00    +0.000 C 
ATOM     25  C   UNL     1       4.076   5.333  19.640  0.00  0.00    +0.000 C 
ATOM     26  C   UNL     1       3.793   3.937  19.094  0.00  0.00    +0.000 C 
ATOM     27  C   UNL     1       2.761   3.190  19.921  0.00  0.00    +0.000 C 
ATOM     28  F   UNL     1       3.355   2.805  21.086  0.00  0.00    +0.000 F 
ATOM     29  F   UNL     1       2.424   2.042  19.275  0.00  0.00    +0.000 F 
ATOM     30  C   UNL     1       1.503   3.963  20.271  0.00  0.00    +0.000 C 
ATOM     31  C   UNL     1       1.765   5.420  20.660  0.00  0.00    +0.000 C 
ENDBRANCH  23  24
ENDBRANCH  18  23
TORSDOF 2
ENDMDL
MODEL 7
REMARK VINA RESULT:      -8.0      1.529      1.962
REMARK  Name = 
REMARK  2 active torsions:
REMARK  status: ('A' for Active; 'I' for Inactive)
REMARK    1  A    between atoms: N_18  and  C_19
REMARK    2  A    between atoms: C_19  and  C_20
REMARK                            x       y       z     vdW  Elec       q    Type
REMARK                         _______ _______ _______ _____ _____    ______ ____
ROOT
ATOM      1  O   UNL     1      -0.272   8.868  22.657  0.00  0.00    +0.000 OA
ATOM      2  C   UNL     1       0.128   9.121  21.502  0.00  0.00    +0.000 C 
ATOM      3  C   UNL     1      -0.470  10.294  20.722  0.00  0.00    +0.000 C 
ATOM      4  C   UNL     1       0.338  10.788  19.510  0.00  0.00    +0.000 C 
ATOM      5  C   UNL     1      -0.696  11.082  18.362  0.00  0.00    +0.000 C 
ATOM      6  O   UNL     1      -1.291  10.266  17.684  0.00  0.00    +0.000 OA
ATOM      7  N   UNL     1      -0.795  12.451  18.221  0.00  0.00    +0.000 N 
ATOM      8  C   UNL     1       0.288  13.060  18.830  0.00  0.00    +0.000 A 
ATOM      9  C   UNL     1       0.603  14.402  18.678  0.00  0.00    +0.000 A 
ATOM     10  C   UNL     1       1.615  14.917  19.470  0.00  0.00    +0.000 A 
ATOM     11  C   UNL     1       2.205  14.098  20.447  0.00  0.00    +0.000 A 
ATOM     12 CL   UNL     1       3.270  14.832  21.584  0.00  0.00    +0.000 Cl
ATOM     13  C   UNL     1       1.884  12.719  20.560  0.00  0.00    +0.000 A 
ATOM     14  C   UNL     1       0.964  12.168  19.674  0.00  0.00    +0.000 A 
ATOM     15  C   UNL     1       1.268   9.769  19.011  0.00  0.00    +0.000 A 
ATOM     16  C   UNL     1       1.827   9.563  17.734  0.00  0.00    +0.000 A 
ATOM     17  N   UNL     1       2.356   8.346  17.608  0.00  0.00    +0.000 NA
ATOM     18  N   UNL     1       2.207   7.766  18.809  0.00  0.00    +0.000 N 
ATOM     19  C   UNL     1       1.494   8.571  19.670  0.00  0.00    +0.000 A 
ATOM     20  N   UNL     1       1.002   8.264  20.898  0.00  0.00    +0.000 N 
ATOM     21  H   UNL     1      -1.685  12.811  18.545  0.00  0.00    +0.000 HD
ATOM     22  H   UNL     1       1.255   7.417  21.392  0.00  0.00    +0.000 HD
ENDROOT
BRANCH  18  23
ATOM     23  C   UNL     1       2.664   6.400  18.951  0.00  0.00    +0.000 C 
BRANCH  23  24
ATOM     24  C   UNL     1       4.200   6.158  18.982  0.00  0.00    +0.000 C 
ATOM     25  C   UNL     1       4.924   6.734  17.762  0.00  0.00    +0.000 C 
ATOM     26  C   UNL     1       4.830   5.841  16.530  0.00  0.00    +0.000 C 
ATOM     27  C   UNL     1       5.297   4.422  16.806  0.00  0.00    +0.000 C 
ATOM     28  F   UNL     1       6.656   4.440  16.906  0.00  0.00    +0.000 F 
ATOM     29  F   UNL     1       5.011   3.644  15.729  0.00  0.00    +0.000 F 
ATOM     30  C   UNL     1       4.744   3.772  18.061  0.00  0.00    +0.000 C 
ATOM     31  C   UNL     1       4.679   4.717  19.263  0.00  0.00    +0.000 C 
ENDBRANCH  23  24
ENDBRANCH  18  23
TORSDOF 2
ENDMDL
MODEL 8
REMARK VINA RESULT:      -7.9      2.902      4.063
REMARK  Name = 
REMARK  2 active torsions:
REMARK  status: ('A' for Active; 'I' for Inactive)
REMARK    1  A    between atoms: N_18  and  C_19
REMARK    2  A    between atoms: C_19  and  C_20
REMARK                            x       y       z     vdW  Elec       q    Type
REMARK                         _______ _______ _______ _____ _____    ______ ____
ROOT
ATOM      1  O   UNL     1       2.371  11.886  17.456  0.00  0.00    +0.000 OA
ATOM      2  C   UNL     1       1.690  11.346  18.352  0.00  0.00    +0.000 C 
ATOM      3  C   UNL     1       0.724  12.184  19.193  0.00  0.00    +0.000 C 
ATOM      4  C   UNL     1      -0.353  11.408  19.968  0.00  0.00    +0.000 C 
ATOM      5  C   UNL     1      -0.463  12.075  21.388  0.00  0.00    +0.000 C 
ATOM      6  O   UNL     1       0.327  11.978  22.308  0.00  0.00    +0.000 OA
ATOM      7  N   UNL     1      -1.649  12.779  21.434  0.00  0.00    +0.000 N 
ATOM      8  C   UNL     1      -2.482  12.353  20.415  0.00  0.00    +0.000 A 
ATOM      9  C   UNL     1      -3.822  12.697  20.321  0.00  0.00    +0.000 A 
ATOM     10  C   UNL     1      -4.497  12.337  19.168  0.00  0.00    +0.000 A 
ATOM     11  C   UNL     1      -3.786  11.733  18.118  0.00  0.00    +0.000 A 
ATOM     12 CL   UNL     1      -4.587  11.533  16.606  0.00  0.00    +0.000 Cl
ATOM     13  C   UNL     1      -2.421  11.364  18.253  0.00  0.00    +0.000 A 
ATOM     14  C   UNL     1      -1.777  11.604  19.463  0.00  0.00    +0.000 A 
ATOM     15  C   UNL     1       0.016  10.002  20.173  0.00  0.00    +0.000 A 
ATOM     16  C   UNL     1      -0.362   9.074  21.163  0.00  0.00    +0.000 A 
ATOM     17  N   UNL     1       0.442   8.012  21.190  0.00  0.00    +0.000 NA
ATOM     18  N   UNL     1       1.314   8.200  20.186  0.00  0.00    +0.000 N 
ATOM     19  C   UNL     1       1.131   9.425  19.586  0.00  0.00    +0.000 A 
ATOM     20  N   UNL     1       1.916  10.036  18.660  0.00  0.00    +0.000 N 
ATOM     21  H   UNL     1      -1.505  13.782  21.435  0.00  0.00    +0.000 HD
ATOM     22  H   UNL     1       2.672   9.559  18.184  0.00  0.00    +0.000 HD
ENDROOT
BRANCH  18  23
ATOM     23  C   UNL     1       2.347   7.202  20.006  0.00  0.00    +0.000 C 
BRANCH  23  24
ATOM     24  C   UNL     1       2.463   6.537  18.604  0.00  0.00    +0.000 C 
ATOM     25  C   UNL     1       2.209   5.027  18.632  0.00  0.00    +0.000 C 
ATOM     26  C   UNL     1       3.418   4.221  19.091  0.00  0.00    +0.000 C 
ATOM     27  C   UNL     1       4.665   4.536  18.284  0.00  0.00    +0.000 C 
ATOM     28  F   UNL     1       4.526   3.960  17.056  0.00  0.00    +0.000 F 
ATOM     29  F   UNL     1       5.734   3.929  18.864  0.00  0.00    +0.000 F 
ATOM     30  C   UNL     1       4.969   6.008  18.077  0.00  0.00    +0.000 C 
ATOM     31  C   UNL     1       3.730   6.856  17.779  0.00  0.00    +0.000 C 
ENDBRANCH  23  24
ENDBRANCH  18  23
TORSDOF 2
ENDMDL
MODEL 9
REMARK VINA RESULT:      -7.9      2.677      3.964
REMARK  Name = 
REMARK  2 active torsions:
REMARK  status: ('A' for Active; 'I' for Inactive)
REMARK    1  A    between atoms: N_18  and  C_19
REMARK    2  A    between atoms: C_19  and  C_20
REMARK                            x       y       z     vdW  Elec       q    Type
REMARK                         _______ _______ _______ _____ _____    ______ ____
ROOT
ATOM      1  O   UNL     1       3.350   8.527  16.809  0.00  0.00    +0.000 OA
ATOM      2  C   UNL     1       2.606   8.653  17.803  0.00  0.00    +0.000 C 
ATOM      3  C   UNL     1       1.967  10.009  18.116  0.00  0.00    +0.000 C 
ATOM      4  C   UNL     1       0.770   9.990  19.080  0.00  0.00    +0.000 C 
ATOM      5  C   UNL     1       0.941  11.220  20.044  0.00  0.00    +0.000 C 
ATOM      6  O   UNL     1       1.732  11.329  20.963  0.00  0.00    +0.000 OA
ATOM      7  N   UNL     1       0.002  12.169  19.693  0.00  0.00    +0.000 N 
ATOM      8  C   UNL     1      -0.981  11.583  18.915  0.00  0.00    +0.000 A 
ATOM      9  C   UNL     1      -2.176  12.205  18.587  0.00  0.00    +0.000 A 
ATOM     10  C   UNL     1      -2.998  11.571  17.671  0.00  0.00    +0.000 A 
ATOM     11  C   UNL     1      -2.552  10.393  17.049  0.00  0.00    +0.000 A 
ATOM     12 CL   UNL     1      -3.474   9.772  15.734  0.00  0.00    +0.000 Cl
ATOM     13  C   UNL     1      -1.337   9.762  17.427  0.00  0.00    +0.000 A 
ATOM     14  C   UNL     1      -0.574  10.326  18.445  0.00  0.00    +0.000 A 
ATOM     15  C   UNL     1       0.747   8.782  19.913  0.00  0.00    +0.000 A 
ATOM     16  C   UNL     1       0.191   8.536  21.184  0.00  0.00    +0.000 A 
ATOM     17  N   UNL     1       0.670   7.421  21.735  0.00  0.00    +0.000 NA
ATOM     18  N   UNL     1       1.492   6.894  20.815  0.00  0.00    +0.000 N 
ATOM     19  C   UNL     1       1.618   7.721  19.721  0.00  0.00    +0.000 A 
ATOM     20  N   UNL     1       2.479   7.612  18.676  0.00  0.00    +0.000 N 
ATOM     21  H   UNL     1       0.418  12.984  19.257  0.00  0.00    +0.000 HD
ATOM     22  H   UNL     1       3.040   6.785  18.515  0.00  0.00    +0.000 HD
ENDROOT
BRANCH  18  23
ATOM     23  C   UNL     1       2.194   5.677  21.167  0.00  0.00    +0.000 C 
BRANCH  23  24
ATOM     24  C   UNL     1       1.509   4.327  20.811  0.00  0.00    +0.000 C 
ATOM     25  C   UNL     1       2.298   3.107  21.296  0.00  0.00    +0.000 C 
ATOM     26  C   UNL     1       3.458   2.737  20.378  0.00  0.00    +0.000 C 
ATOM     27  C   UNL     1       3.018   2.549  18.936  0.00  0.00    +0.000 C 
ATOM     28  F   UNL     1       2.345   1.367  18.854  0.00  0.00    +0.000 F 
ATOM     29  F   UNL     1       4.120   2.409  18.152  0.00  0.00    +0.000 F 
ATOM     30  C   UNL     1       2.126   3.636  18.366  0.00  0.00    +0.000 C 
ATOM     31  C   UNL     1       1.060   4.132  19.346  0.00  0.00    +0.000 C 
ENDBRANCH  23  24
ENDBRANCH  18  23
TORSDOF 2
ENDMDL
