MODEL 1
REMARK VINA RESULT:      -7.5      0.000      0.000
REMARK  Name = 
REMARK  8 active torsions:
REMARK  status: ('A' for Active; 'I' for Inactive)
REMARK    1  A    between atoms: C_1  and  C_2
REMARK    2  A    between atoms: C_8  and  N_9
REMARK    3  A    between atoms: C_10  and  C_12
REMARK    4  A    between atoms: C_12  and  C_13
REMARK    5  A    between atoms: C_13  and  C_14
REMARK    6  A    between atoms: C_14  and  O_15
REMARK    7  A    between atoms: O_15  and  C_16
REMARK    8  A    between atoms: C_22  and  C_23
REMARK                            x       y       z     vdW  Elec       q    Type
REMARK                         _______ _______ _______ _____ _____    ______ ____
ROOT
ATOM      1  C   UNL     1       1.248   2.010  18.344  0.00  0.00    +0.000 C 
ATOM      2  C   UNL     1       1.796   2.114  19.773  0.00  0.00    +0.000 C 
ATOM      3  C   UNL     1       1.162   3.297  20.535  0.00  0.00    +0.000 C 
ATOM      4  C   UNL     1       1.499   4.654  19.900  0.00  0.00    +0.000 C 
ATOM      5  C   UNL     1       2.951   4.753  19.508  0.00  0.00    +0.000 A 
ATOM      6  C   UNL     1       3.767   3.641  19.455  0.00  0.00    +0.000 A 
ATOM      7  S   UNL     1       5.336   4.021  18.940  0.00  0.00    +0.000 S 
ATOM      8  C   UNL     1       4.972   5.691  18.851  0.00  0.00    +0.000 A 
ATOM      9  C   UNL     1       3.626   5.962  19.063  0.00  0.00    +0.000 A 
ATOM     10  C   UNL     1       3.340   2.238  19.785  0.00  0.00    +0.000 C 
ENDROOT
BRANCH   9  11
ATOM     11  C   UNL     1       2.888   7.194  18.778  0.00  0.00    +0.000 C 
ATOM     12  N   UNL     1       2.972   7.726  17.533  0.00  0.00    +0.000 N 
ATOM     13  O   UNL     1       2.227   7.784  19.632  0.00  0.00    +0.000 OA
ATOM     14  H   UNL     1       3.772   7.482  16.952  0.00  0.00    +0.000 HD
ATOM     15  H   UNL     1       2.603   8.663  17.437  0.00  0.00    +0.000 HD
ENDBRANCH   9  11
BRANCH   8  16
ATOM     16  N   UNL     1       6.090   6.431  18.499  0.00  0.00    +0.000 N 
ATOM     17  C   UNL     1       6.302   6.827  17.191  0.00  0.00    +0.000 C 
ATOM     18  O   UNL     1       5.576   6.547  16.239  0.00  0.00    +0.000 OA
ATOM     19  H   UNL     1       6.413   7.069  19.216  0.00  0.00    +0.000 HD
BRANCH  17  20
ATOM     20  C   UNL     1       7.552   7.675  17.000  0.00  0.00    +0.000 C 
BRANCH  20  21
ATOM     21  C   UNL     1       8.149   8.189  18.311  0.00  0.00    +0.000 C 
BRANCH  21  22
ATOM     22  C   UNL     1       8.527   9.668  18.238  0.00  0.00    +0.000 C 
BRANCH  22  23
ATOM     23  O   UNL     1       9.628   9.922  19.115  0.00  0.00    +0.000 OA
BRANCH  23  24
ATOM     24  C   UNL     1      10.188  11.170  19.010  0.00  0.00    +0.000 A 
ATOM     25  C   UNL     1      10.371  11.858  20.212  0.00  0.00    +0.000 A 
ATOM     26  C   UNL     1      10.938  13.137  20.219  0.00  0.00    +0.000 A 
ATOM     27  C   UNL     1      11.340  13.727  19.022  0.00  0.00    +0.000 A 
ATOM     28  C   UNL     1      11.181  13.038  17.824  0.00  0.00    +0.000 A 
ATOM     29  C   UNL     1      10.609  11.763  17.818  0.00  0.00    +0.000 A 
ENDBRANCH  23  24
ENDBRANCH  22  23
ENDBRANCH  21  22
ENDBRANCH  20  21
ENDBRANCH  17  20
ENDBRANCH   8  16
TORSDOF 7
ENDMDL
MODEL 2
REMARK VINA RESULT:      -7.5      2.101      3.329
REMARK  Name = 
REMARK  8 active torsions:
REMARK  status: ('A' for Active; 'I' for Inactive)
REMARK    1  A    between atoms: C_1  and  C_2
REMARK    2  A    between atoms: C_8  and  N_9
REMARK    3  A    between atoms: C_10  and  C_12
REMARK    4  A    between atoms: C_12  and  C_13
REMARK    5  A    between atoms: C_13  and  C_14
REMARK    6  A    between atoms: C_14  and  O_15
REMARK    7  A    between atoms: O_15  and  C_16
REMARK    8  A    between atoms: C_22  and  C_23
REMARK                            x       y       z     vdW  Elec       q    Type
REMARK                         _______ _______ _______ _____ _____    ______ ____
ROOT
ATOM      1  C   UNL     1       2.619   3.199  19.935  0.00  0.00    +0.000 C 
ATOM      2  C   UNL     1       1.972   3.633  18.613  0.00  0.00    +0.000 C 
ATOM      3  C   UNL     1       2.554   2.850  17.417  0.00  0.00    +0.000 C 
ATOM      4  C   UNL     1       4.052   3.118  17.212  0.00  0.00    +0.000 C 
ATOM      5  C   UNL     1       4.392   4.580  17.341  0.00  0.00    +0.000 A 
ATOM      6  C   UNL     1       3.501   5.488  17.880  0.00  0.00    +0.000 A 
ATOM      7  S   UNL     1       4.149   7.053  17.955  0.00  0.00    +0.000 S 
ATOM      8  C   UNL     1       5.601   6.558  17.197  0.00  0.00    +0.000 A 
ATOM      9  C   UNL     1       5.675   5.183  17.017  0.00  0.00    +0.000 A 
ATOM     10  C   UNL     1       2.122   5.156  18.377  0.00  0.00    +0.000 C 
ENDROOT
BRANCH   9  11
ATOM     11  C   UNL     1       6.847   4.368  16.693  0.00  0.00    +0.000 C 
ATOM     12  N   UNL     1       7.832   4.252  17.619  0.00  0.00    +0.000 N 
ATOM     13  O   UNL     1       6.990   3.815  15.603  0.00  0.00    +0.000 OA
ATOM     14  H   UNL     1       7.910   4.968  18.338  0.00  0.00    +0.000 HD
ATOM     15  H   UNL     1       8.693   3.840  17.285  0.00  0.00    +0.000 HD
ENDBRANCH   9  11
BRANCH   8  16
ATOM     16  N   UNL     1       6.453   7.633  16.993  0.00  0.00    +0.000 N 
ATOM     17  C   UNL     1       7.607   7.782  17.740  0.00  0.00    +0.000 C 
ATOM     18  O   UNL     1       7.966   7.035  18.647  0.00  0.00    +0.000 OA
ATOM     19  H   UNL     1       6.496   7.956  16.034  0.00  0.00    +0.000 HD
BRANCH  17  20
ATOM     20  C   UNL     1       8.443   8.991  17.343  0.00  0.00    +0.000 C 
BRANCH  20  21
ATOM     21  C   UNL     1       8.360  10.148  18.341  0.00  0.00    +0.000 C 
BRANCH  21  22
ATOM     22  C   UNL     1       9.391  10.025  19.462  0.00  0.00    +0.000 C 
BRANCH  22  23
ATOM     23  O   UNL     1      10.352  11.079  19.342  0.00  0.00    +0.000 OA
BRANCH  23  24
ATOM     24  C   UNL     1      10.174  12.137  20.197  0.00  0.00    +0.000 A 
ATOM     25  C   UNL     1      10.761  13.342  19.804  0.00  0.00    +0.000 A 
ATOM     26  C   UNL     1      10.637  14.485  20.601  0.00  0.00    +0.000 A 
ATOM     27  C   UNL     1       9.910  14.431  21.788  0.00  0.00    +0.000 A 
ATOM     28  C   UNL     1       9.304  13.240  22.175  0.00  0.00    +0.000 A 
ATOM     29  C   UNL     1       9.433  12.097  21.381  0.00  0.00    +0.000 A 
ENDBRANCH  23  24
ENDBRANCH  22  23
ENDBRANCH  21  22
ENDBRANCH  20  21
ENDBRANCH  17  20
ENDBRANCH   8  16
TORSDOF 7
ENDMDL
MODEL 3
REMARK VINA RESULT:      -7.3      1.213      1.441
REMARK  Name = 
REMARK  8 active torsions:
REMARK  status: ('A' for Active; 'I' for Inactive)
REMARK    1  A    between atoms: C_1  and  C_2
REMARK    2  A    between atoms: C_8  and  N_9
REMARK    3  A    between atoms: C_10  and  C_12
REMARK    4  A    between atoms: C_12  and  C_13
REMARK    5  A    between atoms: C_13  and  C_14
REMARK    6  A    between atoms: C_14  and  O_15
REMARK    7  A    between atoms: O_15  and  C_16
REMARK    8  A    between atoms: C_22  and  C_23
REMARK                            x       y       z     vdW  Elec       q    Type
REMARK                         _______ _______ _______ _____ _____    ______ ____
ROOT
ATOM      1  C   UNL     1       0.510   2.197  18.750  0.00  0.00    +0.000 C 
ATOM      2  C   UNL     1       1.471   2.110  19.944  0.00  0.00    +0.000 C 
ATOM      3  C   UNL     1       1.194   3.228  20.971  0.00  0.00    +0.000 C 
ATOM      4  C   UNL     1       1.434   4.630  20.394  0.00  0.00    +0.000 C 
ATOM      5  C   UNL     1       2.703   4.703  19.584  0.00  0.00    +0.000 A 
ATOM      6  C   UNL     1       3.371   3.565  19.178  0.00  0.00    +0.000 A 
ATOM      7  S   UNL     1       4.738   3.925  18.241  0.00  0.00    +0.000 S 
ATOM      8  C   UNL     1       4.501   5.610  18.427  0.00  0.00    +0.000 A 
ATOM      9  C   UNL     1       3.309   5.920  19.068  0.00  0.00    +0.000 A 
ATOM     10  C   UNL     1       2.951   2.157  19.491  0.00  0.00    +0.000 C 
ENDROOT
BRANCH   9  11
ATOM     11  C   UNL     1       2.622   7.211  19.140  0.00  0.00    +0.000 C 
ATOM     12  N   UNL     1       2.183   7.646  20.348  0.00  0.00    +0.000 N 
ATOM     13  O   UNL     1       2.396   7.898  18.144  0.00  0.00    +0.000 OA
ATOM     14  H   UNL     1       2.027   6.960  21.084  0.00  0.00    +0.000 HD
ATOM     15  H   UNL     1       1.560   8.441  20.321  0.00  0.00    +0.000 HD
ENDBRANCH   9  11
BRANCH   8  16
ATOM     16  N   UNL     1       5.517   6.329  17.817  0.00  0.00    +0.000 N 
ATOM     17  C   UNL     1       6.792   6.360  18.352  0.00  0.00    +0.000 C 
ATOM     18  O   UNL     1       7.135   5.810  19.397  0.00  0.00    +0.000 OA
ATOM     19  H   UNL     1       5.456   6.365  16.807  0.00  0.00    +0.000 HD
BRANCH  17  20
ATOM     20  C   UNL     1       7.788   7.156  17.522  0.00  0.00    +0.000 C 
BRANCH  20  21
ATOM     21  C   UNL     1       7.623   8.671  17.653  0.00  0.00    +0.000 C 
BRANCH  21  22
ATOM     22  C   UNL     1       8.889   9.353  18.169  0.00  0.00    +0.000 C 
BRANCH  22  23
ATOM     23  O   UNL     1       8.550  10.624  18.731  0.00  0.00    +0.000 OA
BRANCH  23  24
ATOM     24  C   UNL     1       9.604  11.479  18.931  0.00  0.00    +0.000 A 
ATOM     25  C   UNL     1       9.636  12.609  18.110  0.00  0.00    +0.000 A 
ATOM     26  C   UNL     1      10.666  13.547  18.233  0.00  0.00    +0.000 A 
ATOM     27  C   UNL     1      11.662  13.367  19.191  0.00  0.00    +0.000 A 
ATOM     28  C   UNL     1      11.624  12.255  20.027  0.00  0.00    +0.000 A 
ATOM     29  C   UNL     1      10.598  11.315  19.899  0.00  0.00    +0.000 A 
ENDBRANCH  23  24
ENDBRANCH  22  23
ENDBRANCH  21  22
ENDBRANCH  20  21
ENDBRANCH  17  20
ENDBRANCH   8  16
TORSDOF 7
ENDMDL
MODEL 4
REMARK VINA RESULT:      -7.2      2.066      3.036
REMARK  Name = 
REMARK  8 active torsions:
REMARK  status: ('A' for Active; 'I' for Inactive)
REMARK    1  A    between atoms: C_1  and  C_2
REMARK    2  A    between atoms: C_8  and  N_9
REMARK    3  A    between atoms: C_10  and  C_12
REMARK    4  A    between atoms: C_12  and  C_13
REMARK    5  A    between atoms: C_13  and  C_14
REMARK    6  A    between atoms: C_14  and  O_15
REMARK    7  A    between atoms: O_15  and  C_16
REMARK    8  A    between atoms: C_22  and  C_23
REMARK                            x       y       z     vdW  Elec       q    Type
REMARK                         _______ _______ _______ _____ _____    ______ ____
ROOT
ATOM      1  C   UNL     1       2.454   3.467  19.917  0.00  0.00    +0.000 C 
ATOM      2  C   UNL     1       1.902   3.853  18.538  0.00  0.00    +0.000 C 
ATOM      3  C   UNL     1       2.544   3.008  17.417  0.00  0.00    +0.000 C 
ATOM      4  C   UNL     1       4.057   3.243  17.298  0.00  0.00    +0.000 C 
ATOM      5  C   UNL     1       4.415   4.704  17.386  0.00  0.00    +0.000 A 
ATOM      6  C   UNL     1       3.509   5.649  17.827  0.00  0.00    +0.000 A 
ATOM      7  S   UNL     1       4.179   7.205  17.876  0.00  0.00    +0.000 S 
ATOM      8  C   UNL     1       5.668   6.654  17.235  0.00  0.00    +0.000 A 
ATOM      9  C   UNL     1       5.727   5.272  17.119  0.00  0.00    +0.000 A 
ATOM     10  C   UNL     1       2.095   5.361  18.247  0.00  0.00    +0.000 C 
ENDROOT
BRANCH   9  11
ATOM     11  C   UNL     1       6.902   4.424  16.908  0.00  0.00    +0.000 C 
ATOM     12  N   UNL     1       7.048   3.805  15.710  0.00  0.00    +0.000 N 
ATOM     13  O   UNL     1       7.741   4.223  17.786  0.00  0.00    +0.000 OA
ATOM     14  H   UNL     1       6.221   3.657  15.135  0.00  0.00    +0.000 HD
ATOM     15  H   UNL     1       7.766   3.093  15.676  0.00  0.00    +0.000 HD
ENDBRANCH   9  11
BRANCH   8  16
ATOM     16  N   UNL     1       6.550   7.706  17.041  0.00  0.00    +0.000 N 
ATOM     17  C   UNL     1       7.678   7.847  17.828  0.00  0.00    +0.000 C 
ATOM     18  O   UNL     1       7.985   7.113  18.765  0.00  0.00    +0.000 OA
ATOM     19  H   UNL     1       6.638   8.006  16.078  0.00  0.00    +0.000 HD
BRANCH  17  20
ATOM     20  C   UNL     1       8.556   9.028  17.437  0.00  0.00    +0.000 C 
BRANCH  20  21
ATOM     21  C   UNL     1       8.312  10.279  18.284  0.00  0.00    +0.000 C 
BRANCH  21  22
ATOM     22  C   UNL     1       9.321  10.417  19.422  0.00  0.00    +0.000 C 
BRANCH  22  23
ATOM     23  O   UNL     1      10.598  10.775  18.886  0.00  0.00    +0.000 OA
BRANCH  23  24
ATOM     24  C   UNL     1      10.798  12.117  18.688  0.00  0.00    +0.000 A 
ATOM     25  C   UNL     1      11.170  12.851  19.818  0.00  0.00    +0.000 A 
ATOM     26  C   UNL     1      11.402  14.227  19.726  0.00  0.00    +0.000 A 
ATOM     27  C   UNL     1      11.280  14.874  18.498  0.00  0.00    +0.000 A 
ATOM     28  C   UNL     1      10.933  14.146  17.364  0.00  0.00    +0.000 A 
ATOM     29  C   UNL     1      10.695  12.772  17.458  0.00  0.00    +0.000 A 
ENDBRANCH  23  24
ENDBRANCH  22  23
ENDBRANCH  21  22
ENDBRANCH  20  21
ENDBRANCH  17  20
ENDBRANCH   8  16
TORSDOF 7
ENDMDL
MODEL 5
REMARK VINA RESULT:      -7.1      1.877      2.648
REMARK  Name = 
REMARK  8 active torsions:
REMARK  status: ('A' for Active; 'I' for Inactive)
REMARK    1  A    between atoms: C_1  and  C_2
REMARK    2  A    between atoms: C_8  and  N_9
REMARK    3  A    between atoms: C_10  and  C_12
REMARK    4  A    between atoms: C_12  and  C_13
REMARK    5  A    between atoms: C_13  and  C_14
REMARK    6  A    between atoms: C_14  and  O_15
REMARK    7  A    between atoms: O_15  and  C_16
REMARK    8  A    between atoms: C_22  and  C_23
REMARK                            x       y       z     vdW  Elec       q    Type
REMARK                         _______ _______ _______ _____ _____    ______ ____
ROOT
ATOM      1  C   UNL     1       1.631   2.018  20.363  0.00  0.00    +0.000 C 
ATOM      2  C   UNL     1       0.858   3.174  19.715  0.00  0.00    +0.000 C 
ATOM      3  C   UNL     1       0.779   3.011  18.183  0.00  0.00    +0.000 C 
ATOM      4  C   UNL     1       2.161   3.059  17.515  0.00  0.00    +0.000 C 
ATOM      5  C   UNL     1       3.024   4.161  18.072  0.00  0.00    +0.000 A 
ATOM      6  C   UNL     1       2.697   4.819  19.241  0.00  0.00    +0.000 A 
ATOM      7  S   UNL     1       3.859   5.977  19.670  0.00  0.00    +0.000 S 
ATOM      8  C   UNL     1       4.779   5.671  18.259  0.00  0.00    +0.000 A 
ATOM      9  C   UNL     1       4.302   4.591  17.528  0.00  0.00    +0.000 A 
ATOM     10  C   UNL     1       1.477   4.548  20.074  0.00  0.00    +0.000 C 
ENDROOT
BRANCH   9  11
ATOM     11  C   UNL     1       4.972   3.848  16.459  0.00  0.00    +0.000 C 
ATOM     12  N   UNL     1       5.239   4.488  15.293  0.00  0.00    +0.000 N 
ATOM     13  O   UNL     1       5.268   2.658  16.563  0.00  0.00    +0.000 OA
ATOM     14  H   UNL     1       4.693   5.313  15.055  0.00  0.00    +0.000 HD
ATOM     15  H   UNL     1       5.529   3.892  14.529  0.00  0.00    +0.000 HD
ENDBRANCH   9  11
BRANCH   8  16
ATOM     16  N   UNL     1       5.873   6.520  18.180  0.00  0.00    +0.000 N 
ATOM     17  C   UNL     1       7.118   6.125  18.633  0.00  0.00    +0.000 C 
ATOM     18  O   UNL     1       7.369   5.045  19.165  0.00  0.00    +0.000 OA
ATOM     19  H   UNL     1       5.865   7.138  17.378  0.00  0.00    +0.000 HD
BRANCH  17  20
ATOM     20  C   UNL     1       8.208   7.165  18.418  0.00  0.00    +0.000 C 
BRANCH  20  21
ATOM     21  C   UNL     1       7.829   8.250  17.409  0.00  0.00    +0.000 C 
BRANCH  21  22
ATOM     22  C   UNL     1       8.130   9.656  17.926  0.00  0.00    +0.000 C 
BRANCH  22  23
ATOM     23  O   UNL     1       8.953   9.568  19.093  0.00  0.00    +0.000 OA
BRANCH  23  24
ATOM     24  C   UNL     1       9.694  10.688  19.376  0.00  0.00    +0.000 A 
ATOM     25  C   UNL     1      10.366  11.262  18.294  0.00  0.00    +0.000 A 
ATOM     26  C   UNL     1      11.147  12.409  18.472  0.00  0.00    +0.000 A 
ATOM     27  C   UNL     1      11.246  12.997  19.732  0.00  0.00    +0.000 A 
ATOM     28  C   UNL     1      10.560  12.443  20.809  0.00  0.00    +0.000 A 
ATOM     29  C   UNL     1       9.785  11.294  20.631  0.00  0.00    +0.000 A 
ENDBRANCH  23  24
ENDBRANCH  22  23
ENDBRANCH  21  22
ENDBRANCH  20  21
ENDBRANCH  17  20
ENDBRANCH   8  16
TORSDOF 7
ENDMDL
MODEL 6
REMARK VINA RESULT:      -7.1      1.229      1.362
REMARK  Name = 
REMARK  8 active torsions:
REMARK  status: ('A' for Active; 'I' for Inactive)
REMARK    1  A    between atoms: C_1  and  C_2
REMARK    2  A    between atoms: C_8  and  N_9
REMARK    3  A    between atoms: C_10  and  C_12
REMARK    4  A    between atoms: C_12  and  C_13
REMARK    5  A    between atoms: C_13  and  C_14
REMARK    6  A    between atoms: C_14  and  O_15
REMARK    7  A    between atoms: O_15  and  C_16
REMARK    8  A    between atoms: C_22  and  C_23
REMARK                            x       y       z     vdW  Elec       q    Type
REMARK                         _______ _______ _______ _____ _____    ______ ____
ROOT
ATOM      1  C   UNL     1       0.484   2.149  18.495  0.00  0.00    +0.000 C 
ATOM      2  C   UNL     1       1.502   1.901  19.616  0.00  0.00    +0.000 C 
ATOM      3  C   UNL     1       1.276   2.859  20.804  0.00  0.00    +0.000 C 
ATOM      4  C   UNL     1       1.487   4.331  20.421  0.00  0.00    +0.000 C 
ATOM      5  C   UNL     1       2.714   4.528  19.569  0.00  0.00    +0.000 A 
ATOM      6  C   UNL     1       3.362   3.464  18.973  0.00  0.00    +0.000 A 
ATOM      7  S   UNL     1       4.680   3.963  18.031  0.00  0.00    +0.000 S 
ATOM      8  C   UNL     1       4.452   5.603  18.466  0.00  0.00    +0.000 A 
ATOM      9  C   UNL     1       3.293   5.810  19.202  0.00  0.00    +0.000 A 
ATOM     10  C   UNL     1       2.958   2.022  19.103  0.00  0.00    +0.000 C 
ENDROOT
BRANCH   9  11
ATOM     11  C   UNL     1       2.610   7.073  19.491  0.00  0.00    +0.000 C 
ATOM     12  N   UNL     1       2.317   7.371  20.781  0.00  0.00    +0.000 N 
ATOM     13  O   UNL     1       2.259   7.854  18.607  0.00  0.00    +0.000 OA
ATOM     14  H   UNL     1       2.256   6.610  21.455  0.00  0.00    +0.000 HD
ATOM     15  H   UNL     1       1.688   8.153  20.912  0.00  0.00    +0.000 HD
ENDBRANCH   9  11
BRANCH   8  16
ATOM     16  N   UNL     1       5.437   6.410  17.916  0.00  0.00    +0.000 N 
ATOM     17  C   UNL     1       6.765   6.258  18.271  0.00  0.00    +0.000 C 
ATOM     18  O   UNL     1       7.190   5.457  19.100  0.00  0.00    +0.000 OA
ATOM     19  H   UNL     1       5.259   6.694  16.960  0.00  0.00    +0.000 HD
BRANCH  17  20
ATOM     20  C   UNL     1       7.709   7.194  17.529  0.00  0.00    +0.000 C 
BRANCH  20  21
ATOM     21  C   UNL     1       8.450   8.170  18.445  0.00  0.00    +0.000 C 
BRANCH  21  22
ATOM     22  C   UNL     1       8.166   9.629  18.093  0.00  0.00    +0.000 C 
BRANCH  22  23
ATOM     23  O   UNL     1       9.397  10.295  17.794  0.00  0.00    +0.000 OA
BRANCH  23  24
ATOM     24  C   UNL     1       9.818  11.202  18.733  0.00  0.00    +0.000 A 
ATOM     25  C   UNL     1       9.375  10.977  20.038  0.00  0.00    +0.000 A 
ATOM     26  C   UNL     1       9.749  11.840  21.073  0.00  0.00    +0.000 A 
ATOM     27  C   UNL     1      10.582  12.926  20.809  0.00  0.00    +0.000 A 
ATOM     28  C   UNL     1      11.045  13.143  19.515  0.00  0.00    +0.000 A 
ATOM     29  C   UNL     1      10.666  12.283  18.480  0.00  0.00    +0.000 A 
ENDBRANCH  23  24
ENDBRANCH  22  23
ENDBRANCH  21  22
ENDBRANCH  20  21
ENDBRANCH  17  20
ENDBRANCH   8  16
TORSDOF 7
ENDMDL
MODEL 7
REMARK VINA RESULT:      -7.1      4.480      7.020
REMARK  Name = 
REMARK  8 active torsions:
REMARK  status: ('A' for Active; 'I' for Inactive)
REMARK    1  A    between atoms: C_1  and  C_2
REMARK    2  A    between atoms: C_8  and  N_9
REMARK    3  A    between atoms: C_10  and  C_12
REMARK    4  A    between atoms: C_12  and  C_13
REMARK    5  A    between atoms: C_13  and  C_14
REMARK    6  A    between atoms: C_14  and  O_15
REMARK    7  A    between atoms: O_15  and  C_16
REMARK    8  A    between atoms: C_22  and  C_23
REMARK                            x       y       z     vdW  Elec       q    Type
REMARK                         _______ _______ _______ _____ _____    ______ ____
ROOT
ATOM      1  C   UNL     1      -1.319  10.472  18.618  0.00  0.00    +0.000 C 
ATOM      2  C   UNL     1      -0.167  11.075  19.433  0.00  0.00    +0.000 C 
ATOM      3  C   UNL     1       1.132  11.147  18.603  0.00  0.00    +0.000 C 
ATOM      4  C   UNL     1       1.645   9.760  18.191  0.00  0.00    +0.000 C 
ATOM      5  C   UNL     1       1.576   8.768  19.324  0.00  0.00    +0.000 A 
ATOM      6  C   UNL     1       0.852   9.026  20.471  0.00  0.00    +0.000 A 
ATOM      7  S   UNL     1       0.899   7.729  21.563  0.00  0.00    +0.000 S 
ATOM      8  C   UNL     1       1.950   6.833  20.553  0.00  0.00    +0.000 A 
ATOM      9  C   UNL     1       2.156   7.435  19.318  0.00  0.00    +0.000 A 
ATOM     10  C   UNL     1       0.080  10.286  20.743  0.00  0.00    +0.000 C 
ENDROOT
BRANCH   9  11
ATOM     11  C   UNL     1       2.727   6.850  18.103  0.00  0.00    +0.000 C 
ATOM     12  N   UNL     1       3.741   7.503  17.484  0.00  0.00    +0.000 N 
ATOM     13  O   UNL     1       2.298   5.811  17.603  0.00  0.00    +0.000 OA
ATOM     14  H   UNL     1       3.852   8.501  17.652  0.00  0.00    +0.000 HD
ATOM     15  H   UNL     1       3.974   7.164  16.560  0.00  0.00    +0.000 HD
ENDBRANCH   9  11
BRANCH   8  16
ATOM     16  N   UNL     1       2.318   5.635  21.147  0.00  0.00    +0.000 N 
ATOM     17  C   UNL     1       1.643   4.461  20.866  0.00  0.00    +0.000 C 
ATOM     18  O   UNL     1       0.668   4.364  20.124  0.00  0.00    +0.000 OA
ATOM     19  H   UNL     1       3.309   5.547  21.333  0.00  0.00    +0.000 HD
BRANCH  17  20
ATOM     20  C   UNL     1       2.217   3.239  21.569  0.00  0.00    +0.000 C 
BRANCH  20  21
ATOM     21  C   UNL     1       3.507   2.716  20.934  0.00  0.00    +0.000 C 
BRANCH  21  22
ATOM     22  C   UNL     1       3.806   3.382  19.592  0.00  0.00    +0.000 C 
BRANCH  22  23
ATOM     23  O   UNL     1       5.216   3.354  19.350  0.00  0.00    +0.000 OA
BRANCH  23  24
ATOM     24  C   UNL     1       5.666   4.226  18.391  0.00  0.00    +0.000 A 
ATOM     25  C   UNL     1       6.503   5.249  18.843  0.00  0.00    +0.000 A 
ATOM     26  C   UNL     1       7.021   6.190  17.948  0.00  0.00    +0.000 A 
ATOM     27  C   UNL     1       6.717   6.102  16.590  0.00  0.00    +0.000 A 
ATOM     28  C   UNL     1       5.902   5.073  16.130  0.00  0.00    +0.000 A 
ATOM     29  C   UNL     1       5.380   4.136  17.027  0.00  0.00    +0.000 A 
ENDBRANCH  23  24
ENDBRANCH  22  23
ENDBRANCH  21  22
ENDBRANCH  20  21
ENDBRANCH  17  20
ENDBRANCH   8  16
TORSDOF 7
ENDMDL
MODEL 8
REMARK VINA RESULT:      -7.0      1.849      2.594
REMARK  Name = 
REMARK  8 active torsions:
REMARK  status: ('A' for Active; 'I' for Inactive)
REMARK    1  A    between atoms: C_1  and  C_2
REMARK    2  A    between atoms: C_8  and  N_9
REMARK    3  A    between atoms: C_10  and  C_12
REMARK    4  A    between atoms: C_12  and  C_13
REMARK    5  A    between atoms: C_13  and  C_14
REMARK    6  A    between atoms: C_14  and  O_15
REMARK    7  A    between atoms: O_15  and  C_16
REMARK    8  A    between atoms: C_22  and  C_23
REMARK                            x       y       z     vdW  Elec       q    Type
REMARK                         _______ _______ _______ _____ _____    ______ ____
ROOT
ATOM      1  C   UNL     1       1.864   2.798  21.535  0.00  0.00    +0.000 C 
ATOM      2  C   UNL     1       0.934   3.567  20.587  0.00  0.00    +0.000 C 
ATOM      3  C   UNL     1       0.791   2.846  19.231  0.00  0.00    +0.000 C 
ATOM      4  C   UNL     1       2.120   2.759  18.468  0.00  0.00    +0.000 C 
ATOM      5  C   UNL     1       2.886   4.056  18.510  0.00  0.00    +0.000 A 
ATOM      6  C   UNL     1       2.553   5.068  19.388  0.00  0.00    +0.000 A 
ATOM      7  S   UNL     1       3.601   6.395  19.263  0.00  0.00    +0.000 S 
ATOM      8  C   UNL     1       4.472   5.669  17.981  0.00  0.00    +0.000 A 
ATOM      9  C   UNL     1       4.078   4.360  17.734  0.00  0.00    +0.000 A 
ATOM     10  C   UNL     1       1.417   5.022  20.370  0.00  0.00    +0.000 C 
ENDROOT
BRANCH   9  11
ATOM     11  C   UNL     1       4.766   3.334  16.948  0.00  0.00    +0.000 C 
ATOM     12  N   UNL     1       5.678   3.728  16.025  0.00  0.00    +0.000 N 
ATOM     13  O   UNL     1       4.523   2.133  17.067  0.00  0.00    +0.000 OA
ATOM     14  H   UNL     1       5.622   4.676  15.659  0.00  0.00    +0.000 HD
ATOM     15  H   UNL     1       5.986   3.007  15.386  0.00  0.00    +0.000 HD
ENDBRANCH   9  11
BRANCH   8  16
ATOM     16  N   UNL     1       5.460   6.516  17.502  0.00  0.00    +0.000 N 
ATOM     17  C   UNL     1       6.752   6.454  17.989  0.00  0.00    +0.000 C 
ATOM     18  O   UNL     1       7.137   5.703  18.884  0.00  0.00    +0.000 OA
ATOM     19  H   UNL     1       5.362   6.761  16.524  0.00  0.00    +0.000 HD
BRANCH  17  20
ATOM     20  C   UNL     1       7.712   7.422  17.311  0.00  0.00    +0.000 C 
BRANCH  20  21
ATOM     21  C   UNL     1       7.535   8.874  17.759  0.00  0.00    +0.000 C 
BRANCH  21  22
ATOM     22  C   UNL     1       8.713   9.374  18.593  0.00  0.00    +0.000 C 
BRANCH  22  23
ATOM     23  O   UNL     1       9.382  10.425  17.890  0.00  0.00    +0.000 OA
BRANCH  23  24
ATOM     24  C   UNL     1       9.978  11.375  18.681  0.00  0.00    +0.000 A 
ATOM     25  C   UNL     1       9.133  12.369  19.181  0.00  0.00    +0.000 A 
ATOM     26  C   UNL     1       9.637  13.383  20.001  0.00  0.00    +0.000 A 
ATOM     27  C   UNL     1      10.989  13.398  20.339  0.00  0.00    +0.000 A 
ATOM     28  C   UNL     1      11.832  12.399  19.864  0.00  0.00    +0.000 A 
ATOM     29  C   UNL     1      11.328  11.389  19.039  0.00  0.00    +0.000 A 
ENDBRANCH  23  24
ENDBRANCH  22  23
ENDBRANCH  21  22
ENDBRANCH  20  21
ENDBRANCH  17  20
ENDBRANCH   8  16
TORSDOF 7
ENDMDL
MODEL 9
REMARK VINA RESULT:      -6.9      4.919      8.546
REMARK  Name = 
REMARK  8 active torsions:
REMARK  status: ('A' for Active; 'I' for Inactive)
REMARK    1  A    between atoms: C_1  and  C_2
REMARK    2  A    between atoms: C_8  and  N_9
REMARK    3  A    between atoms: C_10  and  C_12
REMARK    4  A    between atoms: C_12  and  C_13
REMARK    5  A    between atoms: C_13  and  C_14
REMARK    6  A    between atoms: C_14  and  O_15
REMARK    7  A    between atoms: O_15  and  C_16
REMARK    8  A    between atoms: C_22  and  C_23
REMARK                            x       y       z     vdW  Elec       q    Type
REMARK                         _______ _______ _______ _____ _____    ______ ____
ROOT
ATOM      1  C   UNL     1       5.572   4.880  14.511  0.00  0.00    +0.000 C 
ATOM      2  C   UNL     1       6.329   5.068  15.833  0.00  0.00    +0.000 C 
ATOM      3  C   UNL     1       5.986   3.952  16.842  0.00  0.00    +0.000 C 
ATOM      4  C   UNL     1       4.505   3.961  17.248  0.00  0.00    +0.000 C 
ATOM      5  C   UNL     1       4.000   5.353  17.525  0.00  0.00    +0.000 A 
ATOM      6  C   UNL     1       4.715   6.473  17.151  0.00  0.00    +0.000 A 
ATOM      7  S   UNL     1       3.902   7.911  17.535  0.00  0.00    +0.000 S 
ATOM      8  C   UNL     1       2.615   7.060  18.277  0.00  0.00    +0.000 A 
ATOM      9  C   UNL     1       2.711   5.685  18.111  0.00  0.00    +0.000 A 
ATOM     10  C   UNL     1       6.049   6.457  16.459  0.00  0.00    +0.000 C 
ENDROOT
BRANCH   9  11
ATOM     11  C   UNL     1       1.680   4.667  18.327  0.00  0.00    +0.000 C 
ATOM     12  N   UNL     1       1.406   4.282  19.598  0.00  0.00    +0.000 N 
ATOM     13  O   UNL     1       1.081   4.122  17.400  0.00  0.00    +0.000 OA
ATOM     14  H   UNL     1       2.114   4.430  20.315  0.00  0.00    +0.000 HD
ATOM     15  H   UNL     1       0.829   3.456  19.685  0.00  0.00    +0.000 HD
ENDBRANCH   9  11
BRANCH   8  16
ATOM     16  N   UNL     1       1.687   7.932  18.825  0.00  0.00    +0.000 N 
ATOM     17  C   UNL     1       1.428   7.939  20.184  0.00  0.00    +0.000 C 
ATOM     18  O   UNL     1       1.940   7.183  21.007  0.00  0.00    +0.000 OA
ATOM     19  H   UNL     1       1.625   8.826  18.354  0.00  0.00    +0.000 HD
BRANCH  17  20
ATOM     20  C   UNL     1       0.420   8.997  20.611  0.00  0.00    +0.000 C 
BRANCH  20  21
ATOM     21  C   UNL     1       0.849  10.425  20.271  0.00  0.00    +0.000 C 
BRANCH  21  22
ATOM     22  C   UNL     1      -0.126  11.115  19.319  0.00  0.00    +0.000 C 
BRANCH  22  23
ATOM     23  O   UNL     1      -0.699  10.144  18.438  0.00  0.00    +0.000 OA
BRANCH  23  24
ATOM     24  C   UNL     1      -1.885  10.507  17.853  0.00  0.00    +0.000 A 
ATOM     25  C   UNL     1      -2.143   9.945  16.600  0.00  0.00    +0.000 A 
ATOM     26  C   UNL     1      -3.326  10.246  15.917  0.00  0.00    +0.000 A 
ATOM     27  C   UNL     1      -4.266  11.099  16.493  0.00  0.00    +0.000 A 
ATOM     28  C   UNL     1      -4.025  11.645  17.750  0.00  0.00    +0.000 A 
ATOM     29  C   UNL     1      -2.840  11.349  18.429  0.00  0.00    +0.000 A 
ENDBRANCH  23  24
ENDBRANCH  22  23
ENDBRANCH  21  22
ENDBRANCH  20  21
ENDBRANCH  17  20
ENDBRANCH   8  16
TORSDOF 7
ENDMDL
