MODEL 1
REMARK VINA RESULT:      -8.7      0.000      0.000
REMARK  Name = 
REMARK  7 active torsions:
REMARK  status: ('A' for Active; 'I' for Inactive)
REMARK    1  A    between atoms: C_2  and  C_14
REMARK    2  A    between atoms: N_3  and  C_4
REMARK    3  A    between atoms: C_4  and  C_5
REMARK    4  A    between atoms: N_18  and  C_19
REMARK    5  A    between atoms: C_22  and  O_23
REMARK    6  A    between atoms: O_23  and  C_24
REMARK    7  A    between atoms: C_24  and  C_25
REMARK                            x       y       z     vdW  Elec       q    Type
REMARK                         _______ _______ _______ _____ _____    ______ ____
ROOT
ATOM      1  C   UNL     1       0.304  12.621  20.419  0.00  0.00    +0.000 C 
ATOM      2  C   UNL     1      -0.712  12.314  19.336  0.00  0.00    +0.000 C 
ATOM      3  C   UNL     1      -0.517  10.848  19.056  0.00  0.00    +0.000 C 
ATOM      4  O   UNL     1      -1.313  10.209  18.382  0.00  0.00    +0.000 OA
ATOM      5  N   UNL     1       0.697  10.452  19.626  0.00  0.00    +0.000 N 
ATOM      6  C   UNL     1       1.370  11.556  20.254  0.00  0.00    +0.000 C 
ENDROOT
BRANCH   5   7
ATOM      7  C   UNL     1       1.290   9.173  19.483  0.00  0.00    +0.000 A 
ATOM      8  C   UNL     1       1.848   8.795  18.268  0.00  0.00    +0.000 A 
ATOM      9  C   UNL     1       2.452   7.555  18.120  0.00  0.00    +0.000 A 
ATOM     10  C   UNL     1       2.529   6.672  19.178  0.00  0.00    +0.000 A 
ATOM     11  C   UNL     1       1.940   7.008  20.402  0.00  0.00    +0.000 A 
ATOM     12  C   UNL     1       1.337   8.261  20.554  0.00  0.00    +0.000 A 
BRANCH  10  13
ATOM     13  O   UNL     1       3.184   5.473  19.070  0.00  0.00    +0.000 OA
BRANCH  13  14
ATOM     14  C   UNL     1       4.608   5.570  19.282  0.00  0.00    +0.000 C 
BRANCH  14  15
ATOM     15  C   UNL     1       5.333   5.123  18.044  0.00  0.00    +0.000 A 
ATOM     16  C   UNL     1       4.583   4.738  16.920  0.00  0.00    +0.000 A 
ATOM     17  C   UNL     1       5.211   4.276  15.763  0.00  0.00    +0.000 A 
ATOM     18  C   UNL     1       6.599   4.215  15.711  0.00  0.00    +0.000 A 
ATOM     19  C   UNL     1       7.361   4.636  16.798  0.00  0.00    +0.000 A 
ATOM     20  C   UNL     1       6.735   5.101  17.959  0.00  0.00    +0.000 A 
ATOM     21 CL   UNL     1       7.751   5.639  19.249  0.00  0.00    +0.000 Cl
ENDBRANCH  14  15
ENDBRANCH  13  14
ENDBRANCH  10  13
ENDBRANCH   5   7
BRANCH   1  23
ATOM     22  O   UNL     1      -0.315  11.500  22.463  0.00  0.00    +0.000 OA
ATOM     23  C   UNL     1      -0.306  12.536  21.804  0.00  0.00    +0.000 C 
ATOM     24  N   UNL     1      -0.828  13.716  22.283  0.00  0.00    +0.000 N 
ATOM     25  H   UNL     1      -1.038  14.477  21.650  0.00  0.00    +0.000 HD
BRANCH  24  26
ATOM     26  C   UNL     1      -1.385  13.757  23.618  0.00  0.00    +0.000 C 
BRANCH  26  27
ATOM     27  C   UNL     1      -2.884  13.915  23.609  0.00  0.00    +0.000 A 
ATOM     28  C   UNL     1      -3.471  15.197  23.468  0.00  0.00    +0.000 A 
ATOM     29  C   UNL     1      -4.860  15.365  23.521  0.00  0.00    +0.000 A 
ATOM     30  C   UNL     1      -5.633  14.245  23.732  0.00  0.00    +0.000 A 
ATOM     31  C   UNL     1      -5.074  12.999  23.875  0.00  0.00    +0.000 A 
ATOM     32  C   UNL     1      -3.711  12.799  23.815  0.00  0.00    +0.000 A 
ATOM     33  O   UNL     1      -6.007  12.033  24.090  0.00  0.00    +0.000 OA
ATOM     34  C   UNL     1      -7.215  12.823  24.114  0.00  0.00    +0.000 C 
ATOM     35  O   UNL     1      -6.990  14.220  23.833  0.00  0.00    +0.000 OA
ENDBRANCH  26  27
ENDBRANCH  24  26
ENDBRANCH   1  23
TORSDOF 7
ENDMDL
MODEL 2
REMARK VINA RESULT:      -8.6      2.221      2.857
REMARK  Name = 
REMARK  7 active torsions:
REMARK  status: ('A' for Active; 'I' for Inactive)
REMARK    1  A    between atoms: C_2  and  C_14
REMARK    2  A    between atoms: N_3  and  C_4
REMARK    3  A    between atoms: C_4  and  C_5
REMARK    4  A    between atoms: N_18  and  C_19
REMARK    5  A    between atoms: C_22  and  O_23
REMARK    6  A    between atoms: O_23  and  C_24
REMARK    7  A    between atoms: C_24  and  C_25
REMARK                            x       y       z     vdW  Elec       q    Type
REMARK                         _______ _______ _______ _____ _____    ______ ____
ROOT
ATOM      1  C   UNL     1       0.184  13.387  20.332  0.00  0.00    +0.000 C 
ATOM      2  C   UNL     1      -0.899  13.107  19.308  0.00  0.00    +0.000 C 
ATOM      3  C   UNL     1      -0.697  11.659  18.950  0.00  0.00    +0.000 C 
ATOM      4  O   UNL     1      -1.527  11.034  18.304  0.00  0.00    +0.000 OA
ATOM      5  N   UNL     1       0.559  11.262  19.419  0.00  0.00    +0.000 N 
ATOM      6  C   UNL     1       1.254  12.351  20.049  0.00  0.00    +0.000 C 
ENDROOT
BRANCH   5   7
ATOM      7  C   UNL     1       1.162  10.003  19.180  0.00  0.00    +0.000 A 
ATOM      8  C   UNL     1       1.735   9.727  17.943  0.00  0.00    +0.000 A 
ATOM      9  C   UNL     1       2.348   8.508  17.702  0.00  0.00    +0.000 A 
ATOM     10  C   UNL     1       2.422   7.542  18.687  0.00  0.00    +0.000 A 
ATOM     11  C   UNL     1       1.819   7.775  19.928  0.00  0.00    +0.000 A 
ATOM     12  C   UNL     1       1.205   9.008  20.174  0.00  0.00    +0.000 A 
BRANCH  10  13
ATOM     13  O   UNL     1       3.086   6.360  18.488  0.00  0.00    +0.000 OA
BRANCH  13  14
ATOM     14  C   UNL     1       2.213   5.246  18.205  0.00  0.00    +0.000 C 
BRANCH  14  15
ATOM     15  C   UNL     1       2.288   4.250  19.327  0.00  0.00    +0.000 A 
ATOM     16  C   UNL     1       1.153   4.047  20.131  0.00  0.00    +0.000 A 
ATOM     17  C   UNL     1       1.188   3.165  21.211  0.00  0.00    +0.000 A 
ATOM     18  C   UNL     1       2.354   2.458  21.484  0.00  0.00    +0.000 A 
ATOM     19  C   UNL     1       3.474   2.610  20.671  0.00  0.00    +0.000 A 
ATOM     20  C   UNL     1       3.442   3.493  19.588  0.00  0.00    +0.000 A 
ATOM     21 CL   UNL     1       4.861   3.599  18.606  0.00  0.00    +0.000 Cl
ENDBRANCH  14  15
ENDBRANCH  13  14
ENDBRANCH  10  13
ENDBRANCH   5   7
BRANCH   1  23
ATOM     22  O   UNL     1       0.133  13.862  22.696  0.00  0.00    +0.000 OA
ATOM     23  C   UNL     1      -0.328  13.230  21.751  0.00  0.00    +0.000 C 
ATOM     24  N   UNL     1      -1.370  12.343  21.898  0.00  0.00    +0.000 N 
ATOM     25  H   UNL     1      -1.566  11.660  21.178  0.00  0.00    +0.000 HD
BRANCH  24  26
ATOM     26  C   UNL     1      -1.970  12.162  23.202  0.00  0.00    +0.000 C 
BRANCH  26  27
ATOM     27  C   UNL     1      -3.443  12.476  23.204  0.00  0.00    +0.000 A 
ATOM     28  C   UNL     1      -4.179  12.471  24.415  0.00  0.00    +0.000 A 
ATOM     29  C   UNL     1      -5.560  12.699  24.423  0.00  0.00    +0.000 A 
ATOM     30  C   UNL     1      -6.181  12.912  23.212  0.00  0.00    +0.000 A 
ATOM     31  C   UNL     1      -5.479  12.913  22.032  0.00  0.00    +0.000 A 
ATOM     32  C   UNL     1      -4.116  12.704  21.993  0.00  0.00    +0.000 A 
ATOM     33  O   UNL     1      -6.278  13.126  20.953  0.00  0.00    +0.000 OA
ATOM     34  C   UNL     1      -7.573  13.209  21.585  0.00  0.00    +0.000 C 
ATOM     35  O   UNL     1      -7.511  13.128  23.025  0.00  0.00    +0.000 OA
ENDBRANCH  26  27
ENDBRANCH  24  26
ENDBRANCH   1  23
TORSDOF 7
ENDMDL
MODEL 3
REMARK VINA RESULT:      -8.6      3.184      5.684
REMARK  Name = 
REMARK  7 active torsions:
REMARK  status: ('A' for Active; 'I' for Inactive)
REMARK    1  A    between atoms: C_2  and  C_14
REMARK    2  A    between atoms: N_3  and  C_4
REMARK    3  A    between atoms: C_4  and  C_5
REMARK    4  A    between atoms: N_18  and  C_19
REMARK    5  A    between atoms: C_22  and  O_23
REMARK    6  A    between atoms: O_23  and  C_24
REMARK    7  A    between atoms: C_24  and  C_25
REMARK                            x       y       z     vdW  Elec       q    Type
REMARK                         _______ _______ _______ _____ _____    ______ ____
ROOT
ATOM      1  C   UNL     1      -1.935  12.753  22.544  0.00  0.00    +0.000 C 
ATOM      2  C   UNL     1      -0.678  13.597  22.442  0.00  0.00    +0.000 C 
ATOM      3  C   UNL     1       0.286  12.724  21.683  0.00  0.00    +0.000 C 
ATOM      4  O   UNL     1       1.336  13.164  21.234  0.00  0.00    +0.000 OA
ATOM      5  N   UNL     1      -0.214  11.418  21.679  0.00  0.00    +0.000 N 
ATOM      6  C   UNL     1      -1.447  11.324  22.414  0.00  0.00    +0.000 C 
ENDROOT
BRANCH   5   7
ATOM      7  C   UNL     1       0.460  10.285  21.164  0.00  0.00    +0.000 A 
ATOM      8  C   UNL     1       0.822   9.243  22.010  0.00  0.00    +0.000 A 
ATOM      9  C   UNL     1       1.462   8.117  21.516  0.00  0.00    +0.000 A 
ATOM     10  C   UNL     1       1.743   7.993  20.170  0.00  0.00    +0.000 A 
ATOM     11  C   UNL     1       1.428   9.042  19.299  0.00  0.00    +0.000 A 
ATOM     12  C   UNL     1       0.775  10.176  19.796  0.00  0.00    +0.000 A 
BRANCH  10  13
ATOM     13  O   UNL     1       2.310   6.857  19.654  0.00  0.00    +0.000 OA
BRANCH  13  14
ATOM     14  C   UNL     1       2.054   5.674  20.439  0.00  0.00    +0.000 C 
BRANCH  14  15
ATOM     15  C   UNL     1       2.153   4.457  19.563  0.00  0.00    +0.000 A 
ATOM     16  C   UNL     1       2.581   4.611  18.233  0.00  0.00    +0.000 A 
ATOM     17  C   UNL     1       2.648   3.518  17.370  0.00  0.00    +0.000 A 
ATOM     18  C   UNL     1       2.308   2.252  17.835  0.00  0.00    +0.000 A 
ATOM     19  C   UNL     1       1.926   2.072  19.162  0.00  0.00    +0.000 A 
ATOM     20  C   UNL     1       1.859   3.166  20.030  0.00  0.00    +0.000 A 
ATOM     21 CL   UNL     1       1.411   2.853  21.670  0.00  0.00    +0.000 Cl
ENDBRANCH  14  15
ENDBRANCH  13  14
ENDBRANCH  10  13
ENDBRANCH   5   7
BRANCH   1  23
ATOM     22  O   UNL     1      -3.547  14.124  21.387  0.00  0.00    +0.000 OA
ATOM     23  C   UNL     1      -2.918  13.071  21.434  0.00  0.00    +0.000 C 
ATOM     24  N   UNL     1      -3.035  12.100  20.466  0.00  0.00    +0.000 N 
ATOM     25  H   UNL     1      -2.714  11.157  20.645  0.00  0.00    +0.000 HD
BRANCH  24  26
ATOM     26  C   UNL     1      -3.906  12.328  19.333  0.00  0.00    +0.000 C 
BRANCH  26  27
ATOM     27  C   UNL     1      -3.517  11.500  18.136  0.00  0.00    +0.000 A 
ATOM     28  C   UNL     1      -2.421  10.605  18.205  0.00  0.00    +0.000 A 
ATOM     29  C   UNL     1      -2.010   9.877  17.082  0.00  0.00    +0.000 A 
ATOM     30  C   UNL     1      -2.697  10.074  15.905  0.00  0.00    +0.000 A 
ATOM     31  C   UNL     1      -3.758  10.943  15.826  0.00  0.00    +0.000 A 
ATOM     32  C   UNL     1      -4.194  11.665  16.917  0.00  0.00    +0.000 A 
ATOM     33  O   UNL     1      -4.287  11.002  14.574  0.00  0.00    +0.000 OA
ATOM     34  C   UNL     1      -3.406  10.107  13.863  0.00  0.00    +0.000 C 
ATOM     35  O   UNL     1      -2.428   9.473  14.714  0.00  0.00    +0.000 OA
ENDBRANCH  26  27
ENDBRANCH  24  26
ENDBRANCH   1  23
TORSDOF 7
ENDMDL
MODEL 4
REMARK VINA RESULT:      -8.6      2.727      4.732
REMARK  Name = 
REMARK  7 active torsions:
REMARK  status: ('A' for Active; 'I' for Inactive)
REMARK    1  A    between atoms: C_2  and  C_14
REMARK    2  A    between atoms: N_3  and  C_4
REMARK    3  A    between atoms: C_4  and  C_5
REMARK    4  A    between atoms: N_18  and  C_19
REMARK    5  A    between atoms: C_22  and  O_23
REMARK    6  A    between atoms: O_23  and  C_24
REMARK    7  A    between atoms: C_24  and  C_25
REMARK                            x       y       z     vdW  Elec       q    Type
REMARK                         _______ _______ _______ _____ _____    ______ ____
ROOT
ATOM      1  C   UNL     1      -1.872  12.627  23.251  0.00  0.00    +0.000 C 
ATOM      2  C   UNL     1      -0.972  13.612  22.530  0.00  0.00    +0.000 C 
ATOM      3  C   UNL     1      -0.188  12.756  21.571  0.00  0.00    +0.000 C 
ATOM      4  O   UNL     1       0.489  13.245  20.677  0.00  0.00    +0.000 OA
ATOM      5  N   UNL     1      -0.342  11.419  21.951  0.00  0.00    +0.000 N 
ATOM      6  C   UNL     1      -1.156  11.297  23.130  0.00  0.00    +0.000 C 
ENDROOT
BRANCH   5   7
ATOM      7  C   UNL     1       0.332  10.319  21.366  0.00  0.00    +0.000 A 
ATOM      8  C   UNL     1       0.516  10.265  19.989  0.00  0.00    +0.000 A 
ATOM      9  C   UNL     1       1.194   9.207  19.405  0.00  0.00    +0.000 A 
ATOM     10  C   UNL     1       1.718   8.187  20.175  0.00  0.00    +0.000 A 
ATOM     11  C   UNL     1       1.514   8.193  21.559  0.00  0.00    +0.000 A 
ATOM     12  C   UNL     1       0.836   9.264  22.150  0.00  0.00    +0.000 A 
BRANCH  10  13
ATOM     13  O   UNL     1       2.451   7.171  19.622  0.00  0.00    +0.000 OA
BRANCH  13  14
ATOM     14  C   UNL     1       2.439   7.167  18.179  0.00  0.00    +0.000 C 
BRANCH  14  15
ATOM     15  C   UNL     1       3.438   6.167  17.669  0.00  0.00    +0.000 A 
ATOM     16  C   UNL     1       4.728   6.609  17.328  0.00  0.00    +0.000 A 
ATOM     17  C   UNL     1       5.675   5.725  16.811  0.00  0.00    +0.000 A 
ATOM     18  C   UNL     1       5.349   4.383  16.649  0.00  0.00    +0.000 A 
ATOM     19  C   UNL     1       4.092   3.917  17.024  0.00  0.00    +0.000 A 
ATOM     20  C   UNL     1       3.140   4.800  17.544  0.00  0.00    +0.000 A 
ATOM     21 CL   UNL     1       1.616   4.136  18.019  0.00  0.00    +0.000 Cl
ENDBRANCH  14  15
ENDBRANCH  13  14
ENDBRANCH  10  13
ENDBRANCH   5   7
BRANCH   1  23
ATOM     22  O   UNL     1      -4.242  12.180  23.221  0.00  0.00    +0.000 OA
ATOM     23  C   UNL     1      -3.242  12.540  22.607  0.00  0.00    +0.000 C 
ATOM     24  N   UNL     1      -3.289  12.920  21.285  0.00  0.00    +0.000 N 
ATOM     25  H   UNL     1      -2.440  12.968  20.736  0.00  0.00    +0.000 HD
BRANCH  24  26
ATOM     26  C   UNL     1      -4.559  12.927  20.592  0.00  0.00    +0.000 C 
BRANCH  26  27
ATOM     27  C   UNL     1      -4.450  12.380  19.192  0.00  0.00    +0.000 A 
ATOM     28  C   UNL     1      -5.584  12.346  18.343  0.00  0.00    +0.000 A 
ATOM     29  C   UNL     1      -5.512  11.783  17.063  0.00  0.00    +0.000 A 
ATOM     30  C   UNL     1      -4.306  11.250  16.665  0.00  0.00    +0.000 A 
ATOM     31  C   UNL     1      -3.203  11.273  17.482  0.00  0.00    +0.000 A 
ATOM     32  C   UNL     1      -3.239  11.831  18.743  0.00  0.00    +0.000 A 
ATOM     33  O   UNL     1      -2.120  10.683  16.908  0.00  0.00    +0.000 OA
ATOM     34  C   UNL     1      -2.683  10.242  15.655  0.00  0.00    +0.000 C 
ATOM     35  O   UNL     1      -4.056  10.646  15.471  0.00  0.00    +0.000 OA
ENDBRANCH  26  27
ENDBRANCH  24  26
ENDBRANCH   1  23
TORSDOF 7
ENDMDL
MODEL 5
REMARK VINA RESULT:      -8.4      4.315      7.728
REMARK  Name = 
REMARK  7 active torsions:
REMARK  status: ('A' for Active; 'I' for Inactive)
REMARK    1  A    between atoms: C_2  and  C_14
REMARK    2  A    between atoms: N_3  and  C_4
REMARK    3  A    between atoms: C_4  and  C_5
REMARK    4  A    between atoms: N_18  and  C_19
REMARK    5  A    between atoms: C_22  and  O_23
REMARK    6  A    between atoms: O_23  and  C_24
REMARK    7  A    between atoms: C_24  and  C_25
REMARK                            x       y       z     vdW  Elec       q    Type
REMARK                         _______ _______ _______ _____ _____    ______ ____
ROOT
ATOM      1  C   UNL     1       2.492   4.237  18.264  0.00  0.00    +0.000 C 
ATOM      2  C   UNL     1       3.409   3.104  18.685  0.00  0.00    +0.000 C 
ATOM      3  C   UNL     1       4.740   3.774  18.901  0.00  0.00    +0.000 C 
ATOM      4  O   UNL     1       5.669   3.198  19.450  0.00  0.00    +0.000 OA
ATOM      5  N   UNL     1       4.690   5.047  18.322  0.00  0.00    +0.000 N 
ATOM      6  C   UNL     1       3.421   5.288  17.690  0.00  0.00    +0.000 C 
ENDROOT
BRANCH   5   7
ATOM      7  C   UNL     1       5.782   5.941  18.216  0.00  0.00    +0.000 A 
ATOM      8  C   UNL     1       5.694   7.057  17.391  0.00  0.00    +0.000 A 
ATOM      9  C   UNL     1       6.747   7.953  17.295  0.00  0.00    +0.000 A 
ATOM     10  C   UNL     1       7.902   7.773  18.028  0.00  0.00    +0.000 A 
ATOM     11  C   UNL     1       8.037   6.639  18.837  0.00  0.00    +0.000 A 
ATOM     12  C   UNL     1       6.972   5.737  18.939  0.00  0.00    +0.000 A 
BRANCH  10  13
ATOM     13  O   UNL     1       8.923   8.686  18.000  0.00  0.00    +0.000 OA
BRANCH  13  14
ATOM     14  C   UNL     1       8.498  10.039  18.270  0.00  0.00    +0.000 C 
BRANCH  14  15
ATOM     15  C   UNL     1       9.686  10.871  18.663  0.00  0.00    +0.000 A 
ATOM     16  C   UNL     1      10.547  11.342  17.657  0.00  0.00    +0.000 A 
ATOM     17  C   UNL     1      11.685  12.082  17.976  0.00  0.00    +0.000 A 
ATOM     18  C   UNL     1      11.963  12.378  19.306  0.00  0.00    +0.000 A 
ATOM     19  C   UNL     1      11.098  11.960  20.313  0.00  0.00    +0.000 A 
ATOM     20  C   UNL     1       9.955  11.219  19.997  0.00  0.00    +0.000 A 
ATOM     21 CL   UNL     1       8.913  10.768  21.300  0.00  0.00    +0.000 Cl
ENDBRANCH  14  15
ENDBRANCH  13  14
ENDBRANCH  10  13
ENDBRANCH   5   7
BRANCH   1  23
ATOM     22  O   UNL     1       0.879   4.165  20.056  0.00  0.00    +0.000 OA
ATOM     23  C   UNL     1       1.726   4.807  19.442  0.00  0.00    +0.000 C 
ATOM     24  N   UNL     1       2.066   6.094  19.789  0.00  0.00    +0.000 N 
ATOM     25  H   UNL     1       2.566   6.685  19.137  0.00  0.00    +0.000 HD
BRANCH  24  26
ATOM     26  C   UNL     1       1.433   6.713  20.934  0.00  0.00    +0.000 C 
BRANCH  26  27
ATOM     27  C   UNL     1       1.115   8.166  20.697  0.00  0.00    +0.000 A 
ATOM     28  C   UNL     1       1.399   8.770  19.447  0.00  0.00    +0.000 A 
ATOM     29  C   UNL     1       1.167  10.135  19.234  0.00  0.00    +0.000 A 
ATOM     30  C   UNL     1       0.669  10.871  20.286  0.00  0.00    +0.000 A 
ATOM     31  C   UNL     1       0.395  10.297  21.503  0.00  0.00    +0.000 A 
ATOM     32  C   UNL     1       0.602   8.954  21.739  0.00  0.00    +0.000 A 
ATOM     33  O   UNL     1      -0.074  11.197  22.408  0.00  0.00    +0.000 OA
ATOM     34  C   UNL     1      -0.017  12.414  21.635  0.00  0.00    +0.000 C 
ATOM     35  O   UNL     1       0.402  12.206  20.270  0.00  0.00    +0.000 OA
ENDBRANCH  26  27
ENDBRANCH  24  26
ENDBRANCH   1  23
TORSDOF 7
ENDMDL
MODEL 6
REMARK VINA RESULT:      -8.4      0.662      1.056
REMARK  Name = 
REMARK  7 active torsions:
REMARK  status: ('A' for Active; 'I' for Inactive)
REMARK    1  A    between atoms: C_2  and  C_14
REMARK    2  A    between atoms: N_3  and  C_4
REMARK    3  A    between atoms: C_4  and  C_5
REMARK    4  A    between atoms: N_18  and  C_19
REMARK    5  A    between atoms: C_22  and  O_23
REMARK    6  A    between atoms: O_23  and  C_24
REMARK    7  A    between atoms: C_24  and  C_25
REMARK                            x       y       z     vdW  Elec       q    Type
REMARK                         _______ _______ _______ _____ _____    ______ ____
ROOT
ATOM      1  C   UNL     1       0.247  12.945  20.302  0.00  0.00    +0.000 C 
ATOM      2  C   UNL     1      -0.797  12.635  19.246  0.00  0.00    +0.000 C 
ATOM      3  C   UNL     1      -0.534  11.198  18.884  0.00  0.00    +0.000 C 
ATOM      4  O   UNL     1      -1.322  10.548  18.211  0.00  0.00    +0.000 OA
ATOM      5  N   UNL     1       0.724  10.843  19.384  0.00  0.00    +0.000 N 
ATOM      6  C   UNL     1       1.361  11.952  20.040  0.00  0.00    +0.000 C 
ENDROOT
BRANCH   5   7
ATOM      7  C   UNL     1       1.378   9.609  19.152  0.00  0.00    +0.000 A 
ATOM      8  C   UNL     1       1.425   8.645  20.153  0.00  0.00    +0.000 A 
ATOM      9  C   UNL     1       2.042   7.423  19.933  0.00  0.00    +0.000 A 
ATOM     10  C   UNL     1       2.611   7.124  18.711  0.00  0.00    +0.000 A 
ATOM     11  C   UNL     1       2.615   8.090  17.697  0.00  0.00    +0.000 A 
ATOM     12  C   UNL     1       1.987   9.320  17.917  0.00  0.00    +0.000 A 
BRANCH  10  13
ATOM     13  O   UNL     1       3.162   5.896  18.453  0.00  0.00    +0.000 OA
BRANCH  13  14
ATOM     14  C   UNL     1       4.593   5.856  18.630  0.00  0.00    +0.000 C 
BRANCH  14  15
ATOM     15  C   UNL     1       5.240   5.333  17.379  0.00  0.00    +0.000 A 
ATOM     16  C   UNL     1       4.589   4.325  16.647  0.00  0.00    +0.000 A 
ATOM     17  C   UNL     1       5.171   3.779  15.504  0.00  0.00    +0.000 A 
ATOM     18  C   UNL     1       6.403   4.252  15.066  0.00  0.00    +0.000 A 
ATOM     19  C   UNL     1       7.043   5.282  15.750  0.00  0.00    +0.000 A 
ATOM     20  C   UNL     1       6.462   5.833  16.897  0.00  0.00    +0.000 A 
ATOM     21 CL   UNL     1       7.301   7.132  17.668  0.00  0.00    +0.000 Cl
ENDBRANCH  14  15
ENDBRANCH  13  14
ENDBRANCH  10  13
ENDBRANCH   5   7
BRANCH   1  23
ATOM     22  O   UNL     1      -0.114  11.735  22.356  0.00  0.00    +0.000 OA
ATOM     23  C   UNL     1      -0.297  12.759  21.704  0.00  0.00    +0.000 C 
ATOM     24  N   UNL     1      -0.993  13.835  22.206  0.00  0.00    +0.000 N 
ATOM     25  H   UNL     1      -1.346  14.551  21.585  0.00  0.00    +0.000 HD
BRANCH  24  26
ATOM     26  C   UNL     1      -1.508  13.780  23.558  0.00  0.00    +0.000 C 
BRANCH  26  27
ATOM     27  C   UNL     1      -3.003  13.953  23.609  0.00  0.00    +0.000 A 
ATOM     28  C   UNL     1      -3.575  15.245  23.715  0.00  0.00    +0.000 A 
ATOM     29  C   UNL     1      -4.961  15.416  23.827  0.00  0.00    +0.000 A 
ATOM     30  C   UNL     1      -5.746  14.284  23.846  0.00  0.00    +0.000 A 
ATOM     31  C   UNL     1      -5.201  13.027  23.749  0.00  0.00    +0.000 A 
ATOM     32  C   UNL     1      -3.842  12.827  23.626  0.00  0.00    +0.000 A 
ATOM     33  O   UNL     1      -6.143  12.048  23.804  0.00  0.00    +0.000 OA
ATOM     34  C   UNL     1      -7.339  12.832  23.996  0.00  0.00    +0.000 C 
ATOM     35  O   UNL     1      -7.100  14.255  23.969  0.00  0.00    +0.000 OA
ENDBRANCH  26  27
ENDBRANCH  24  26
ENDBRANCH   1  23
TORSDOF 7
ENDMDL
MODEL 7
REMARK VINA RESULT:      -8.3      1.373      1.683
REMARK  Name = 
REMARK  7 active torsions:
REMARK  status: ('A' for Active; 'I' for Inactive)
REMARK    1  A    between atoms: C_2  and  C_14
REMARK    2  A    between atoms: N_3  and  C_4
REMARK    3  A    between atoms: C_4  and  C_5
REMARK    4  A    between atoms: N_18  and  C_19
REMARK    5  A    between atoms: C_22  and  O_23
REMARK    6  A    between atoms: O_23  and  C_24
REMARK    7  A    between atoms: C_24  and  C_25
REMARK                            x       y       z     vdW  Elec       q    Type
REMARK                         _______ _______ _______ _____ _____    ______ ____
ROOT
ATOM      1  C   UNL     1       0.433  12.723  20.180  0.00  0.00    +0.000 C 
ATOM      2  C   UNL     1      -0.565  12.447  19.071  0.00  0.00    +0.000 C 
ATOM      3  C   UNL     1      -0.415  10.974  18.803  0.00  0.00    +0.000 C 
ATOM      4  O   UNL     1      -1.216  10.360  18.111  0.00  0.00    +0.000 OA
ATOM      5  N   UNL     1       0.768  10.536  19.408  0.00  0.00    +0.000 N 
ATOM      6  C   UNL     1       1.463  11.619  20.049  0.00  0.00    +0.000 C 
ENDROOT
BRANCH   5   7
ATOM      7  C   UNL     1       1.316   9.236  19.287  0.00  0.00    +0.000 A 
ATOM      8  C   UNL     1       1.888   8.828  18.087  0.00  0.00    +0.000 A 
ATOM      9  C   UNL     1       2.449   7.567  17.961  0.00  0.00    +0.000 A 
ATOM     10  C   UNL     1       2.471   6.690  19.027  0.00  0.00    +0.000 A 
ATOM     11  C   UNL     1       1.868   7.056  20.235  0.00  0.00    +0.000 A 
ATOM     12  C   UNL     1       1.307   8.331  20.365  0.00  0.00    +0.000 A 
BRANCH  10  13
ATOM     13  O   UNL     1       3.084   5.467  18.941  0.00  0.00    +0.000 OA
BRANCH  13  14
ATOM     14  C   UNL     1       4.486   5.497  19.284  0.00  0.00    +0.000 C 
BRANCH  14  15
ATOM     15  C   UNL     1       5.311   5.260  18.051  0.00  0.00    +0.000 A 
ATOM     16  C   UNL     1       6.318   6.182  17.720  0.00  0.00    +0.000 A 
ATOM     17  C   UNL     1       7.081   6.027  16.563  0.00  0.00    +0.000 A 
ATOM     18  C   UNL     1       6.859   4.933  15.734  0.00  0.00    +0.000 A 
ATOM     19  C   UNL     1       5.897   3.983  16.069  0.00  0.00    +0.000 A 
ATOM     20  C   UNL     1       5.131   4.135  17.229  0.00  0.00    +0.000 A 
ATOM     21 CL   UNL     1       3.984   2.894  17.593  0.00  0.00    +0.000 Cl
ENDBRANCH  14  15
ENDBRANCH  13  14
ENDBRANCH  10  13
ENDBRANCH   5   7
BRANCH   1  23
ATOM     22  O   UNL     1      -0.012  11.756  22.345  0.00  0.00    +0.000 OA
ATOM     23  C   UNL     1      -0.218  12.668  21.549  0.00  0.00    +0.000 C 
ATOM     24  N   UNL     1      -1.039  13.731  21.845  0.00  0.00    +0.000 N 
ATOM     25  H   UNL     1      -1.391  14.327  21.107  0.00  0.00    +0.000 HD
BRANCH  24  26
ATOM     26  C   UNL     1      -1.665  13.804  23.148  0.00  0.00    +0.000 C 
BRANCH  26  27
ATOM     27  C   UNL     1      -3.119  13.411  23.107  0.00  0.00    +0.000 A 
ATOM     28  C   UNL     1      -3.819  13.118  24.303  0.00  0.00    +0.000 A 
ATOM     29  C   UNL     1      -5.152  12.691  24.275  0.00  0.00    +0.000 A 
ATOM     30  C   UNL     1      -5.753  12.549  23.043  0.00  0.00    +0.000 A 
ATOM     31  C   UNL     1      -5.082  12.825  21.877  0.00  0.00    +0.000 A 
ATOM     32  C   UNL     1      -3.773  13.259  21.874  0.00  0.00    +0.000 A 
ATOM     33  O   UNL     1      -5.847  12.607  20.774  0.00  0.00    +0.000 OA
ATOM     34  C   UNL     1      -7.061  12.115  21.378  0.00  0.00    +0.000 C 
ATOM     35  O   UNL     1      -7.028  12.127  22.821  0.00  0.00    +0.000 OA
ENDBRANCH  26  27
ENDBRANCH  24  26
ENDBRANCH   1  23
TORSDOF 7
ENDMDL
MODEL 8
REMARK VINA RESULT:      -8.2      1.477      1.751
REMARK  Name = 
REMARK  7 active torsions:
REMARK  status: ('A' for Active; 'I' for Inactive)
REMARK    1  A    between atoms: C_2  and  C_14
REMARK    2  A    between atoms: N_3  and  C_4
REMARK    3  A    between atoms: C_4  and  C_5
REMARK    4  A    between atoms: N_18  and  C_19
REMARK    5  A    between atoms: C_22  and  O_23
REMARK    6  A    between atoms: O_23  and  C_24
REMARK    7  A    between atoms: C_24  and  C_25
REMARK                            x       y       z     vdW  Elec       q    Type
REMARK                         _______ _______ _______ _____ _____    ______ ____
ROOT
ATOM      1  C   UNL     1       0.467  13.447  19.332  0.00  0.00    +0.000 C 
ATOM      2  C   UNL     1      -0.737  12.976  18.538  0.00  0.00    +0.000 C 
ATOM      3  C   UNL     1      -0.648  11.474  18.596  0.00  0.00    +0.000 C 
ATOM      4  O   UNL     1      -1.574  10.760  18.238  0.00  0.00    +0.000 OA
ATOM      5  N   UNL     1       0.633  11.128  19.039  0.00  0.00    +0.000 N 
ATOM      6  C   UNL     1       1.447  12.293  19.259  0.00  0.00    +0.000 C 
ENDROOT
BRANCH   5   7
ATOM      7  C   UNL     1       1.143   9.809  19.117  0.00  0.00    +0.000 A 
ATOM      8  C   UNL     1       1.684   9.202  17.989  0.00  0.00    +0.000 A 
ATOM      9  C   UNL     1       2.208   7.920  18.056  0.00  0.00    +0.000 A 
ATOM     10  C   UNL     1       2.222   7.220  19.246  0.00  0.00    +0.000 A 
ATOM     11  C   UNL     1       1.649   7.789  20.389  0.00  0.00    +0.000 A 
ATOM     12  C   UNL     1       1.126   9.085  20.323  0.00  0.00    +0.000 A 
BRANCH  10  13
ATOM     13  O   UNL     1       2.800   5.981  19.346  0.00  0.00    +0.000 OA
BRANCH  13  14
ATOM     14  C   UNL     1       4.239   6.004  19.252  0.00  0.00    +0.000 C 
BRANCH  14  15
ATOM     15  C   UNL     1       4.665   5.488  17.907  0.00  0.00    +0.000 A 
ATOM     16  C   UNL     1       5.140   6.399  16.949  0.00  0.00    +0.000 A 
ATOM     17  C   UNL     1       5.506   5.973  15.672  0.00  0.00    +0.000 A 
ATOM     18  C   UNL     1       5.420   4.624  15.347  0.00  0.00    +0.000 A 
ATOM     19  C   UNL     1       4.996   3.698  16.297  0.00  0.00    +0.000 A 
ATOM     20  C   UNL     1       4.629   4.122  17.578  0.00  0.00    +0.000 A 
ATOM     21 CL   UNL     1       4.148   2.908  18.710  0.00  0.00    +0.000 Cl
ENDBRANCH  14  15
ENDBRANCH  13  14
ENDBRANCH  10  13
ENDBRANCH   5   7
BRANCH   1  23
ATOM     22  O   UNL     1       0.806  13.367  21.718  0.00  0.00    +0.000 OA
ATOM     23  C   UNL     1       0.110  13.737  20.776  0.00  0.00    +0.000 C 
ATOM     24  N   UNL     1      -1.040  14.469  20.956  0.00  0.00    +0.000 N 
ATOM     25  H   UNL     1      -1.720  14.546  20.210  0.00  0.00    +0.000 HD
BRANCH  24  26
ATOM     26  C   UNL     1      -1.440  14.847  22.294  0.00  0.00    +0.000 C 
BRANCH  26  27
ATOM     27  C   UNL     1      -2.737  14.201  22.709  0.00  0.00    +0.000 A 
ATOM     28  C   UNL     1      -2.829  13.495  23.933  0.00  0.00    +0.000 A 
ATOM     29  C   UNL     1      -4.009  12.835  24.301  0.00  0.00    +0.000 A 
ATOM     30  C   UNL     1      -5.069  12.884  23.423  0.00  0.00    +0.000 A 
ATOM     31  C   UNL     1      -4.989  13.562  22.231  0.00  0.00    +0.000 A 
ATOM     32  C   UNL     1      -3.845  14.230  21.847  0.00  0.00    +0.000 A 
ATOM     33  O   UNL     1      -6.136  13.475  21.506  0.00  0.00    +0.000 OA
ATOM     34  C   UNL     1      -6.931  12.623  22.358  0.00  0.00    +0.000 C 
ATOM     35  O   UNL     1      -6.280  12.290  23.601  0.00  0.00    +0.000 OA
ENDBRANCH  26  27
ENDBRANCH  24  26
ENDBRANCH   1  23
TORSDOF 7
ENDMDL
MODEL 9
REMARK VINA RESULT:      -8.2      3.317      5.917
REMARK  Name = 
REMARK  7 active torsions:
REMARK  status: ('A' for Active; 'I' for Inactive)
REMARK    1  A    between atoms: C_2  and  C_14
REMARK    2  A    between atoms: N_3  and  C_4
REMARK    3  A    between atoms: C_4  and  C_5
REMARK    4  A    between atoms: N_18  and  C_19
REMARK    5  A    between atoms: C_22  and  O_23
REMARK    6  A    between atoms: O_23  and  C_24
REMARK    7  A    between atoms: C_24  and  C_25
REMARK                            x       y       z     vdW  Elec       q    Type
REMARK                         _______ _______ _______ _____ _____    ______ ____
ROOT
ATOM      1  C   UNL     1      -2.420  12.988  21.104  0.00  0.00    +0.000 C 
ATOM      2  C   UNL     1      -2.059  12.367  22.441  0.00  0.00    +0.000 C 
ATOM      3  C   UNL     1      -0.892  11.470  22.123  0.00  0.00    +0.000 C 
ATOM      4  O   UNL     1      -0.207  10.968  23.003  0.00  0.00    +0.000 OA
ATOM      5  N   UNL     1      -0.829  11.307  20.735  0.00  0.00    +0.000 N 
ATOM      6  C   UNL     1      -1.898  12.006  20.074  0.00  0.00    +0.000 C 
ENDROOT
BRANCH   5   7
ATOM      7  C   UNL     1       0.061  10.444  20.052  0.00  0.00    +0.000 A 
ATOM      8  C   UNL     1       0.459  10.738  18.753  0.00  0.00    +0.000 A 
ATOM      9  C   UNL     1       1.348   9.915  18.079  0.00  0.00    +0.000 A 
ATOM     10  C   UNL     1       1.875   8.792  18.686  0.00  0.00    +0.000 A 
ATOM     11  C   UNL     1       1.462   8.447  19.978  0.00  0.00    +0.000 A 
ATOM     12  C   UNL     1       0.570   9.282  20.660  0.00  0.00    +0.000 A 
BRANCH  10  13
ATOM     13  O   UNL     1       2.808   8.006  18.062  0.00  0.00    +0.000 OA
BRANCH  13  14
ATOM     14  C   UNL     1       2.821   6.640  18.527  0.00  0.00    +0.000 C 
BRANCH  14  15
ATOM     15  C   UNL     1       3.711   5.815  17.643  0.00  0.00    +0.000 A 
ATOM     16  C   UNL     1       4.676   6.464  16.854  0.00  0.00    +0.000 A 
ATOM     17  C   UNL     1       5.496   5.744  15.986  0.00  0.00    +0.000 A 
ATOM     18  C   UNL     1       5.374   4.361  15.913  0.00  0.00    +0.000 A 
ATOM     19  C   UNL     1       4.456   3.694  16.720  0.00  0.00    +0.000 A 
ATOM     20  C   UNL     1       3.633   4.413  17.592  0.00  0.00    +0.000 A 
ATOM     21 CL   UNL     1       2.545   3.509  18.585  0.00  0.00    +0.000 Cl
ENDBRANCH  14  15
ENDBRANCH  13  14
ENDBRANCH  10  13
ENDBRANCH   5   7
BRANCH   1  23
ATOM     22  O   UNL     1      -1.600  15.134  21.838  0.00  0.00    +0.000 OA
ATOM     23  C   UNL     1      -1.760  14.340  20.916  0.00  0.00    +0.000 C 
ATOM     24  N   UNL     1      -1.330  14.604  19.636  0.00  0.00    +0.000 N 
ATOM     25  H   UNL     1      -1.686  14.067  18.855  0.00  0.00    +0.000 HD
BRANCH  24  26
ATOM     26  C   UNL     1      -0.638  15.844  19.360  0.00  0.00    +0.000 C 
BRANCH  26  27
ATOM     27  C   UNL     1       0.821  15.630  19.053  0.00  0.00    +0.000 A 
ATOM     28  C   UNL     1       1.312  14.334  18.758  0.00  0.00    +0.000 A 
ATOM     29  C   UNL     1       2.676  14.111  18.534  0.00  0.00    +0.000 A 
ATOM     30  C   UNL     1       3.525  15.191  18.626  0.00  0.00    +0.000 A 
ATOM     31  C   UNL     1       3.061  16.450  18.917  0.00  0.00    +0.000 A 
ATOM     32  C   UNL     1       1.722  16.704  19.131  0.00  0.00    +0.000 A 
ATOM     33  O   UNL     1       4.060  17.371  18.976  0.00  0.00    +0.000 OA
ATOM     34  C   UNL     1       5.213  16.536  18.738  0.00  0.00    +0.000 C 
ATOM     35  O   UNL     1       4.875  15.161  18.461  0.00  0.00    +0.000 OA
ENDBRANCH  26  27
ENDBRANCH  24  26
ENDBRANCH   1  23
TORSDOF 7
ENDMDL
