MODEL 1
REMARK VINA RESULT:      -7.0      0.000      0.000
REMARK  Name = 
REMARK  8 active torsions:
REMARK  status: ('A' for Active; 'I' for Inactive)
REMARK    1  A    between atoms: C_1  and  C_2
REMARK    2  A    between atoms: C_2  and  N_3
REMARK    3  A    between atoms: C_5  and  C_6
REMARK    4  A    between atoms: C_6  and  N_7
REMARK    5  A    between atoms: C_8  and  C_10
REMARK    6  A    between atoms: C_16  and  O_17
REMARK    7  A    between atoms: O_17  and  C_18
REMARK    8  A    between atoms: C_19  and  C_20
REMARK                            x       y       z     vdW  Elec       q    Type
REMARK                         _______ _______ _______ _____ _____    ______ ____
ROOT
ATOM      1  N   UNL     1       5.879   5.146  16.453  0.00  0.00    +0.000 N 
ATOM      2  C   UNL     1       5.838   4.845  17.800  0.00  0.00    +0.000 C 
ATOM      3  O   UNL     1       6.833   4.525  18.439  0.00  0.00    +0.000 OA
ATOM      4  H   UNL     1       5.056   5.487  15.975  0.00  0.00    +0.000 HD
ENDROOT
BRANCH   2   5
ATOM      5  C   UNL     1       4.494   4.887  18.442  0.00  0.00    +0.000 A 
ATOM      6  C   UNL     1       4.202   3.862  19.365  0.00  0.00    +0.000 A 
ATOM      7  C   UNL     1       3.025   3.889  20.110  0.00  0.00    +0.000 A 
ATOM      8 CL   UNL     1       2.710   2.641  21.251  0.00  0.00    +0.000 Cl
ATOM      9  C   UNL     1       2.124   4.934  19.962  0.00  0.00    +0.000 A 
ATOM     10  C   UNL     1       2.408   5.958  19.056  0.00  0.00    +0.000 A 
ATOM     11  C   UNL     1       3.581   5.946  18.283  0.00  0.00    +0.000 A 
BRANCH  11  12
ATOM     12  O   UNL     1       3.718   7.070  17.516  0.00  0.00    +0.000 OA
ATOM     13  C   UNL     1       2.776   8.115  17.723  0.00  0.00    +0.000 C 
ENDBRANCH  11  12
ENDBRANCH   2   5
BRANCH   1  14
ATOM     14  C   UNL     1       7.117   5.126  15.707  0.00  0.00    +0.000 C 
BRANCH  14  17
ATOM     15  N   UNL     1       6.012   3.476  12.640  0.00  0.00    +0.000 N 
ATOM     16  C   UNL     1       5.896   3.638  13.989  0.00  0.00    +0.000 A 
ATOM     17  C   UNL     1       6.846   4.577  14.352  0.00  0.00    +0.000 A 
ATOM     18  C   UNL     1       7.488   4.913  13.125  0.00  0.00    +0.000 A 
ATOM     19  C   UNL     1       8.589   5.879  12.882  0.00  0.00    +0.000 C 
ATOM     20  N   UNL     1       6.977   4.228  12.091  0.00  0.00    +0.000 NA
BRANCH  15  22
ATOM     21  C   UNL     1       4.012   3.344  11.207  0.00  0.00    +0.000 C 
ATOM     22  C   UNL     1       5.207   2.614  11.793  0.00  0.00    +0.000 C 
ENDBRANCH  15  22
ENDBRANCH  14  17
ENDBRANCH   1  14
TORSDOF 5
ENDMDL
MODEL 2
REMARK VINA RESULT:      -6.9      3.314      7.029
REMARK  Name = 
REMARK  8 active torsions:
REMARK  status: ('A' for Active; 'I' for Inactive)
REMARK    1  A    between atoms: C_1  and  C_2
REMARK    2  A    between atoms: C_2  and  N_3
REMARK    3  A    between atoms: C_5  and  C_6
REMARK    4  A    between atoms: C_6  and  N_7
REMARK    5  A    between atoms: C_8  and  C_10
REMARK    6  A    between atoms: C_16  and  O_17
REMARK    7  A    between atoms: O_17  and  C_18
REMARK    8  A    between atoms: C_19  and  C_20
REMARK                            x       y       z     vdW  Elec       q    Type
REMARK                         _______ _______ _______ _____ _____    ______ ____
ROOT
ATOM      1  N   UNL     1       5.014   3.506  18.516  0.00  0.00    +0.000 N 
ATOM      2  C   UNL     1       4.543   3.530  17.218  0.00  0.00    +0.000 C 
ATOM      3  O   UNL     1       3.396   3.219  16.922  0.00  0.00    +0.000 OA
ATOM      4  H   UNL     1       5.939   3.849  18.736  0.00  0.00    +0.000 HD
ENDROOT
BRANCH   2   5
ATOM      5  C   UNL     1       5.527   3.919  16.169  0.00  0.00    +0.000 A 
ATOM      6  C   UNL     1       5.250   3.496  14.854  0.00  0.00    +0.000 A 
ATOM      7  C   UNL     1       6.041   3.919  13.788  0.00  0.00    +0.000 A 
ATOM      8 CL   UNL     1       5.660   3.411  12.189  0.00  0.00    +0.000 Cl
ATOM      9  C   UNL     1       7.112   4.774  14.005  0.00  0.00    +0.000 A 
ATOM     10  C   UNL     1       7.391   5.205  15.303  0.00  0.00    +0.000 A 
ATOM     11  C   UNL     1       6.616   4.781  16.396  0.00  0.00    +0.000 A 
BRANCH  11  12
ATOM     12  O   UNL     1       6.995   5.372  17.570  0.00  0.00    +0.000 OA
ATOM     13  C   UNL     1       6.937   6.792  17.631  0.00  0.00    +0.000 C 
ENDBRANCH  11  12
ENDBRANCH   2   5
BRANCH   1  14
ATOM     14  C   UNL     1       4.167   3.131  19.625  0.00  0.00    +0.000 C 
BRANCH  14  17
ATOM     15  N   UNL     1       2.299   6.242  20.056  0.00  0.00    +0.000 N 
ATOM     16  C   UNL     1       3.403   5.595  19.584  0.00  0.00    +0.000 A 
ATOM     17  C   UNL     1       3.250   4.262  19.927  0.00  0.00    +0.000 A 
ATOM     18  C   UNL     1       2.004   4.223  20.616  0.00  0.00    +0.000 A 
ATOM     19  C   UNL     1       1.305   3.056  21.214  0.00  0.00    +0.000 C 
ATOM     20  N   UNL     1       1.438   5.436  20.695  0.00  0.00    +0.000 NA
BRANCH  15  22
ATOM     21  C   UNL     1       2.271   8.161  18.511  0.00  0.00    +0.000 C 
ATOM     22  C   UNL     1       1.988   7.653  19.913  0.00  0.00    +0.000 C 
ENDBRANCH  15  22
ENDBRANCH  14  17
ENDBRANCH   1  14
TORSDOF 5
ENDMDL
MODEL 3
REMARK VINA RESULT:      -6.9      2.624      3.984
REMARK  Name = 
REMARK  8 active torsions:
REMARK  status: ('A' for Active; 'I' for Inactive)
REMARK    1  A    between atoms: C_1  and  C_2
REMARK    2  A    between atoms: C_2  and  N_3
REMARK    3  A    between atoms: C_5  and  C_6
REMARK    4  A    between atoms: C_6  and  N_7
REMARK    5  A    between atoms: C_8  and  C_10
REMARK    6  A    between atoms: C_16  and  O_17
REMARK    7  A    between atoms: O_17  and  C_18
REMARK    8  A    between atoms: C_19  and  C_20
REMARK                            x       y       z     vdW  Elec       q    Type
REMARK                         _______ _______ _______ _____ _____    ______ ____
ROOT
ATOM      1  N   UNL     1       4.716   5.086  18.896  0.00  0.00    +0.000 N 
ATOM      2  C   UNL     1       3.438   5.349  18.445  0.00  0.00    +0.000 C 
ATOM      3  O   UNL     1       2.912   4.719  17.536  0.00  0.00    +0.000 OA
ATOM      4  H   UNL     1       5.089   5.568  19.702  0.00  0.00    +0.000 HD
ENDROOT
BRANCH   2   5
ATOM      5  C   UNL     1       2.731   6.485  19.101  0.00  0.00    +0.000 A 
ATOM      6  C   UNL     1       2.631   7.680  18.359  0.00  0.00    +0.000 A 
ATOM      7  C   UNL     1       1.878   8.752  18.834  0.00  0.00    +0.000 A 
ATOM      8 CL   UNL     1       1.750  10.187  17.894  0.00  0.00    +0.000 Cl
ATOM      9  C   UNL     1       1.206   8.656  20.045  0.00  0.00    +0.000 A 
ATOM     10  C   UNL     1       1.292   7.474  20.783  0.00  0.00    +0.000 A 
ATOM     11  C   UNL     1       2.056   6.385  20.331  0.00  0.00    +0.000 A 
BRANCH  11  12
ATOM     12  O   UNL     1       1.953   5.294  21.150  0.00  0.00    +0.000 OA
ATOM     13  C   UNL     1       1.197   4.190  20.668  0.00  0.00    +0.000 C 
ENDBRANCH  11  12
ENDBRANCH   2   5
BRANCH   1  14
ATOM     14  C   UNL     1       5.516   4.022  18.333  0.00  0.00    +0.000 C 
BRANCH  14  17
ATOM     15  N   UNL     1       6.841   4.856  15.031  0.00  0.00    +0.000 N 
ATOM     16  C   UNL     1       6.055   4.059  15.810  0.00  0.00    +0.000 A 
ATOM     17  C   UNL     1       6.186   4.529  17.106  0.00  0.00    +0.000 A 
ATOM     18  C   UNL     1       7.091   5.623  16.988  0.00  0.00    +0.000 A 
ATOM     19  C   UNL     1       7.605   6.526  18.048  0.00  0.00    +0.000 C 
ATOM     20  N   UNL     1       7.490   5.806  15.721  0.00  0.00    +0.000 NA
BRANCH  15  22
ATOM     21  C   UNL     1       6.224   3.622  12.990  0.00  0.00    +0.000 C 
ATOM     22  C   UNL     1       7.010   4.774  13.591  0.00  0.00    +0.000 C 
ENDBRANCH  15  22
ENDBRANCH  14  17
ENDBRANCH   1  14
TORSDOF 5
ENDMDL
MODEL 4
REMARK VINA RESULT:      -6.7      1.327      1.346
REMARK  Name = 
REMARK  8 active torsions:
REMARK  status: ('A' for Active; 'I' for Inactive)
REMARK    1  A    between atoms: C_1  and  C_2
REMARK    2  A    between atoms: C_2  and  N_3
REMARK    3  A    between atoms: C_5  and  C_6
REMARK    4  A    between atoms: C_6  and  N_7
REMARK    5  A    between atoms: C_8  and  C_10
REMARK    6  A    between atoms: C_16  and  O_17
REMARK    7  A    between atoms: O_17  and  C_18
REMARK    8  A    between atoms: C_19  and  C_20
REMARK                            x       y       z     vdW  Elec       q    Type
REMARK                         _______ _______ _______ _____ _____    ______ ____
ROOT
ATOM      1  N   UNL     1       5.902   4.856  16.395  0.00  0.00    +0.000 N 
ATOM      2  C   UNL     1       4.877   5.766  16.568  0.00  0.00    +0.000 C 
ATOM      3  O   UNL     1       4.882   6.877  16.054  0.00  0.00    +0.000 OA
ATOM      4  H   UNL     1       5.828   3.918  16.764  0.00  0.00    +0.000 HD
ENDROOT
BRANCH   2   5
ATOM      5  C   UNL     1       3.764   5.338  17.462  0.00  0.00    +0.000 A 
ATOM      6  C   UNL     1       3.541   3.951  17.574  0.00  0.00    +0.000 A 
ATOM      7  C   UNL     1       2.611   3.450  18.483  0.00  0.00    +0.000 A 
ATOM      8 CL   UNL     1       2.382   1.751  18.620  0.00  0.00    +0.000 Cl
ATOM      9  C   UNL     1       1.893   4.313  19.299  0.00  0.00    +0.000 A 
ATOM     10  C   UNL     1       2.111   5.689  19.201  0.00  0.00    +0.000 A 
ATOM     11  C   UNL     1       3.035   6.218  18.283  0.00  0.00    +0.000 A 
BRANCH  11  12
ATOM     12  O   UNL     1       3.164   7.575  18.391  0.00  0.00    +0.000 OA
ATOM     13  C   UNL     1       2.110   8.372  17.863  0.00  0.00    +0.000 C 
ENDBRANCH  11  12
ENDBRANCH   2   5
BRANCH   1  14
ATOM     14  C   UNL     1       7.048   5.153  15.566  0.00  0.00    +0.000 C 
BRANCH  14  17
ATOM     15  N   UNL     1       6.048   3.428  12.504  0.00  0.00    +0.000 N 
ATOM     16  C   UNL     1       5.896   3.613  13.846  0.00  0.00    +0.000 A 
ATOM     17  C   UNL     1       6.821   4.575  14.215  0.00  0.00    +0.000 A 
ATOM     18  C   UNL     1       7.487   4.899  12.998  0.00  0.00    +0.000 A 
ATOM     19  C   UNL     1       8.578   5.879  12.765  0.00  0.00    +0.000 C 
ATOM     20  N   UNL     1       7.014   4.187  11.965  0.00  0.00    +0.000 NA
BRANCH  15  22
ATOM     21  C   UNL     1       4.024   3.202  11.119  0.00  0.00    +0.000 C 
ATOM     22  C   UNL     1       5.279   2.537  11.655  0.00  0.00    +0.000 C 
ENDBRANCH  15  22
ENDBRANCH  14  17
ENDBRANCH   1  14
TORSDOF 5
ENDMDL
MODEL 5
REMARK VINA RESULT:      -6.7      2.131      3.166
REMARK  Name = 
REMARK  8 active torsions:
REMARK  status: ('A' for Active; 'I' for Inactive)
REMARK    1  A    between atoms: C_1  and  C_2
REMARK    2  A    between atoms: C_2  and  N_3
REMARK    3  A    between atoms: C_5  and  C_6
REMARK    4  A    between atoms: C_6  and  N_7
REMARK    5  A    between atoms: C_8  and  C_10
REMARK    6  A    between atoms: C_16  and  O_17
REMARK    7  A    between atoms: O_17  and  C_18
REMARK    8  A    between atoms: C_19  and  C_20
REMARK                            x       y       z     vdW  Elec       q    Type
REMARK                         _______ _______ _______ _____ _____    ______ ____
ROOT
ATOM      1  N   UNL     1       6.070   3.902  14.751  0.00  0.00    +0.000 N 
ATOM      2  C   UNL     1       6.375   4.847  15.710  0.00  0.00    +0.000 C 
ATOM      3  O   UNL     1       7.280   5.661  15.575  0.00  0.00    +0.000 OA
ATOM      4  H   UNL     1       5.265   3.300  14.857  0.00  0.00    +0.000 HD
ENDROOT
BRANCH   2   5
ATOM      5  C   UNL     1       5.563   4.802  16.959  0.00  0.00    +0.000 A 
ATOM      6  C   UNL     1       4.167   4.695  16.801  0.00  0.00    +0.000 A 
ATOM      7  C   UNL     1       3.337   4.516  17.906  0.00  0.00    +0.000 A 
ATOM      8 CL   UNL     1       1.639   4.358  17.680  0.00  0.00    +0.000 Cl
ATOM      9  C   UNL     1       3.876   4.431  19.182  0.00  0.00    +0.000 A 
ATOM     10  C   UNL     1       5.259   4.528  19.349  0.00  0.00    +0.000 A 
ATOM     11  C   UNL     1       6.115   4.722  18.251  0.00  0.00    +0.000 A 
BRANCH  11  12
ATOM     12  O   UNL     1       7.436   4.713  18.606  0.00  0.00    +0.000 OA
ATOM     13  C   UNL     1       7.954   5.895  19.206  0.00  0.00    +0.000 C 
ENDBRANCH  11  12
ENDBRANCH   2   5
BRANCH   1  14
ATOM     14  C   UNL     1       6.792   3.826  13.502  0.00  0.00    +0.000 C 
BRANCH  14  17
ATOM     15  N   UNL     1       4.163   3.018  11.097  0.00  0.00    +0.000 N 
ATOM     16  C   UNL     1       4.596   3.769  12.148  0.00  0.00    +0.000 A 
ATOM     17  C   UNL     1       5.871   3.321  12.450  0.00  0.00    +0.000 A 
ATOM     18  C   UNL     1       6.104   2.280  11.505  0.00  0.00    +0.000 A 
ATOM     19  C   UNL     1       7.309   1.430  11.333  0.00  0.00    +0.000 C 
ATOM     20  N   UNL     1       5.052   2.099  10.693  0.00  0.00    +0.000 NA
BRANCH  15  22
ATOM     21  C   UNL     1       2.839   4.368   9.517  0.00  0.00    +0.000 C 
ATOM     22  C   UNL     1       2.892   3.137  10.405  0.00  0.00    +0.000 C 
ENDBRANCH  15  22
ENDBRANCH  14  17
ENDBRANCH   1  14
TORSDOF 5
ENDMDL
MODEL 6
REMARK VINA RESULT:      -6.7      2.470      3.500
REMARK  Name = 
REMARK  8 active torsions:
REMARK  status: ('A' for Active; 'I' for Inactive)
REMARK    1  A    between atoms: C_1  and  C_2
REMARK    2  A    between atoms: C_2  and  N_3
REMARK    3  A    between atoms: C_5  and  C_6
REMARK    4  A    between atoms: C_6  and  N_7
REMARK    5  A    between atoms: C_8  and  C_10
REMARK    6  A    between atoms: C_16  and  O_17
REMARK    7  A    between atoms: O_17  and  C_18
REMARK    8  A    between atoms: C_19  and  C_20
REMARK                            x       y       z     vdW  Elec       q    Type
REMARK                         _______ _______ _______ _____ _____    ______ ____
ROOT
ATOM      1  N   UNL     1       4.214   4.439  17.407  0.00  0.00    +0.000 N 
ATOM      2  C   UNL     1       4.083   4.486  18.782  0.00  0.00    +0.000 C 
ATOM      3  O   UNL     1       4.603   3.665  19.526  0.00  0.00    +0.000 OA
ATOM      4  H   UNL     1       3.842   5.178  16.828  0.00  0.00    +0.000 HD
ENDROOT
BRANCH   2   5
ATOM      5  C   UNL     1       3.227   5.579  19.323  0.00  0.00    +0.000 A 
ATOM      6  C   UNL     1       3.140   6.755  18.549  0.00  0.00    +0.000 A 
ATOM      7  C   UNL     1       2.265   7.779  18.907  0.00  0.00    +0.000 A 
ATOM      8 CL   UNL     1       2.157   9.188  17.927  0.00  0.00    +0.000 Cl
ATOM      9  C   UNL     1       1.458   7.653  20.028  0.00  0.00    +0.000 A 
ATOM     10  C   UNL     1       1.531   6.489  20.797  0.00  0.00    +0.000 A 
ATOM     11  C   UNL     1       2.415   5.449  20.464  0.00  0.00    +0.000 A 
BRANCH  11  12
ATOM     12  O   UNL     1       2.285   4.365  21.288  0.00  0.00    +0.000 OA
ATOM     13  C   UNL     1       1.259   3.431  20.975  0.00  0.00    +0.000 C 
ENDBRANCH  11  12
ENDBRANCH   2   5
BRANCH   1  14
ATOM     14  C   UNL     1       5.002   3.419  16.754  0.00  0.00    +0.000 C 
BRANCH  14  17
ATOM     15  N   UNL     1       7.087   4.742  14.061  0.00  0.00    +0.000 N 
ATOM     16  C   UNL     1       6.087   3.908  14.465  0.00  0.00    +0.000 A 
ATOM     17  C   UNL     1       5.965   4.079  15.833  0.00  0.00    +0.000 A 
ATOM     18  C   UNL     1       6.958   5.050  16.150  0.00  0.00    +0.000 A 
ATOM     19  C   UNL     1       7.295   5.643  17.469  0.00  0.00    +0.000 C 
ATOM     20  N   UNL     1       7.641   5.439  15.064  0.00  0.00    +0.000 NA
BRANCH  15  22
ATOM     21  C   UNL     1       6.966   3.930  11.738  0.00  0.00    +0.000 C 
ATOM     22  C   UNL     1       7.563   4.938  12.703  0.00  0.00    +0.000 C 
ENDBRANCH  15  22
ENDBRANCH  14  17
ENDBRANCH   1  14
TORSDOF 5
ENDMDL
MODEL 7
REMARK VINA RESULT:      -6.6      1.941      2.682
REMARK  Name = 
REMARK  8 active torsions:
REMARK  status: ('A' for Active; 'I' for Inactive)
REMARK    1  A    between atoms: C_1  and  C_2
REMARK    2  A    between atoms: C_2  and  N_3
REMARK    3  A    between atoms: C_5  and  C_6
REMARK    4  A    between atoms: C_6  and  N_7
REMARK    5  A    between atoms: C_8  and  C_10
REMARK    6  A    between atoms: C_16  and  O_17
REMARK    7  A    between atoms: O_17  and  C_18
REMARK    8  A    between atoms: C_19  and  C_20
REMARK                            x       y       z     vdW  Elec       q    Type
REMARK                         _______ _______ _______ _____ _____    ______ ____
ROOT
ATOM      1  N   UNL     1       6.070   5.156  16.264  0.00  0.00    +0.000 N 
ATOM      2  C   UNL     1       5.726   6.348  16.871  0.00  0.00    +0.000 C 
ATOM      3  O   UNL     1       6.449   7.336  16.850  0.00  0.00    +0.000 OA
ATOM      4  H   UNL     1       5.415   4.387  16.229  0.00  0.00    +0.000 HD
ENDROOT
BRANCH   2   5
ATOM      5  C   UNL     1       4.428   6.362  17.603  0.00  0.00    +0.000 A 
ATOM      6  C   UNL     1       3.711   7.576  17.594  0.00  0.00    +0.000 A 
ATOM      7  C   UNL     1       2.430   7.650  18.139  0.00  0.00    +0.000 A 
ATOM      8 CL   UNL     1       1.567   9.136  18.087  0.00  0.00    +0.000 Cl
ATOM      9  C   UNL     1       1.837   6.524  18.692  0.00  0.00    +0.000 A 
ATOM     10  C   UNL     1       2.536   5.315  18.699  0.00  0.00    +0.000 A 
ATOM     11  C   UNL     1       3.833   5.219  18.168  0.00  0.00    +0.000 A 
BRANCH  11  12
ATOM     12  O   UNL     1       4.319   3.940  18.195  0.00  0.00    +0.000 OA
ATOM     13  C   UNL     1       4.397   3.303  19.464  0.00  0.00    +0.000 C 
ENDBRANCH  11  12
ENDBRANCH   2   5
BRANCH   1  14
ATOM     14  C   UNL     1       7.309   5.004  15.537  0.00  0.00    +0.000 C 
BRANCH  14  17
ATOM     15  N   UNL     1       6.137   3.420  12.460  0.00  0.00    +0.000 N 
ATOM     16  C   UNL     1       6.076   3.527  13.817  0.00  0.00    +0.000 A 
ATOM     17  C   UNL     1       7.001   4.494  14.174  0.00  0.00    +0.000 A 
ATOM     18  C   UNL     1       7.572   4.901  12.934  0.00  0.00    +0.000 A 
ATOM     19  C   UNL     1       8.619   5.923  12.681  0.00  0.00    +0.000 C 
ATOM     20  N   UNL     1       7.044   4.233  11.898  0.00  0.00    +0.000 NA
BRANCH  15  22
ATOM     21  C   UNL     1       4.015   3.202  11.227  0.00  0.00    +0.000 C 
ATOM     22  C   UNL     1       5.332   2.554  11.617  0.00  0.00    +0.000 C 
ENDBRANCH  15  22
ENDBRANCH  14  17
ENDBRANCH   1  14
TORSDOF 5
ENDMDL
MODEL 8
REMARK VINA RESULT:      -6.6      1.646      2.438
REMARK  Name = 
REMARK  8 active torsions:
REMARK  status: ('A' for Active; 'I' for Inactive)
REMARK    1  A    between atoms: C_1  and  C_2
REMARK    2  A    between atoms: C_2  and  N_3
REMARK    3  A    between atoms: C_5  and  C_6
REMARK    4  A    between atoms: C_6  and  N_7
REMARK    5  A    between atoms: C_8  and  C_10
REMARK    6  A    between atoms: C_16  and  O_17
REMARK    7  A    between atoms: O_17  and  C_18
REMARK    8  A    between atoms: C_19  and  C_20
REMARK                            x       y       z     vdW  Elec       q    Type
REMARK                         _______ _______ _______ _____ _____    ______ ____
ROOT
ATOM      1  N   UNL     1       5.723   5.044  16.430  0.00  0.00    +0.000 N 
ATOM      2  C   UNL     1       5.677   4.745  17.778  0.00  0.00    +0.000 C 
ATOM      3  O   UNL     1       6.678   4.495  18.437  0.00  0.00    +0.000 OA
ATOM      4  H   UNL     1       4.888   5.326  15.935  0.00  0.00    +0.000 HD
ENDROOT
BRANCH   2   5
ATOM      5  C   UNL     1       4.321   4.698  18.394  0.00  0.00    +0.000 A 
ATOM      6  C   UNL     1       3.846   5.895  18.968  0.00  0.00    +0.000 A 
ATOM      7  C   UNL     1       2.542   5.985  19.451  0.00  0.00    +0.000 A 
ATOM      8 CL   UNL     1       1.980   7.467  20.117  0.00  0.00    +0.000 Cl
ATOM      9  C   UNL     1       1.686   4.895  19.367  0.00  0.00    +0.000 A 
ATOM     10  C   UNL     1       2.144   3.707  18.794  0.00  0.00    +0.000 A 
ATOM     11  C   UNL     1       3.459   3.589  18.312  0.00  0.00    +0.000 A 
BRANCH  11  12
ATOM     12  O   UNL     1       3.694   2.379  17.718  0.00  0.00    +0.000 OA
ATOM     13  C   UNL     1       3.673   1.230  18.556  0.00  0.00    +0.000 C 
ENDBRANCH  11  12
ENDBRANCH   2   5
BRANCH   1  14
ATOM     14  C   UNL     1       6.973   5.105  15.708  0.00  0.00    +0.000 C 
BRANCH  14  17
ATOM     15  N   UNL     1       5.998   3.451  12.599  0.00  0.00    +0.000 N 
ATOM     16  C   UNL     1       5.820   3.621  13.940  0.00  0.00    +0.000 A 
ATOM     17  C   UNL     1       6.762   4.552  14.344  0.00  0.00    +0.000 A 
ATOM     18  C   UNL     1       7.465   4.875  13.148  0.00  0.00    +0.000 A 
ATOM     19  C   UNL     1       8.587   5.828  12.954  0.00  0.00    +0.000 C 
ATOM     20  N   UNL     1       6.997   4.191  12.093  0.00  0.00    +0.000 NA
BRANCH  15  22
ATOM     21  C   UNL     1       6.054   1.447  11.167  0.00  0.00    +0.000 C 
ATOM     22  C   UNL     1       5.225   2.594  11.719  0.00  0.00    +0.000 C 
ENDBRANCH  15  22
ENDBRANCH  14  17
ENDBRANCH   1  14
TORSDOF 5
ENDMDL
MODEL 9
REMARK VINA RESULT:      -6.5      3.171      6.887
REMARK  Name = 
REMARK  8 active torsions:
REMARK  status: ('A' for Active; 'I' for Inactive)
REMARK    1  A    between atoms: C_1  and  C_2
REMARK    2  A    between atoms: C_2  and  N_3
REMARK    3  A    between atoms: C_5  and  C_6
REMARK    4  A    between atoms: C_6  and  N_7
REMARK    5  A    between atoms: C_8  and  C_10
REMARK    6  A    between atoms: C_16  and  O_17
REMARK    7  A    between atoms: O_17  and  C_18
REMARK    8  A    between atoms: C_19  and  C_20
REMARK                            x       y       z     vdW  Elec       q    Type
REMARK                         _______ _______ _______ _____ _____    ______ ____
ROOT
ATOM      1  N   UNL     1       3.615   3.813  17.040  0.00  0.00    +0.000 N 
ATOM      2  C   UNL     1       4.976   3.904  17.261  0.00  0.00    +0.000 C 
ATOM      3  O   UNL     1       5.475   3.817  18.375  0.00  0.00    +0.000 OA
ATOM      4  H   UNL     1       3.244   3.806  16.100  0.00  0.00    +0.000 HD
ENDROOT
BRANCH   2   5
ATOM      5  C   UNL     1       5.820   4.162  16.060  0.00  0.00    +0.000 A 
ATOM      6  C   UNL     1       5.347   3.650  14.834  0.00  0.00    +0.000 A 
ATOM      7  C   UNL     1       5.999   3.950  13.639  0.00  0.00    +0.000 A 
ATOM      8 CL   UNL     1       5.382   3.337  12.155  0.00  0.00    +0.000 Cl
ATOM      9  C   UNL     1       7.121   4.766  13.637  0.00  0.00    +0.000 A 
ATOM     10  C   UNL     1       7.593   5.284  14.845  0.00  0.00    +0.000 A 
ATOM     11  C   UNL     1       6.961   4.985  16.064  0.00  0.00    +0.000 A 
BRANCH  11  12
ATOM     12  O   UNL     1       7.520   5.646  17.123  0.00  0.00    +0.000 OA
ATOM     13  C   UNL     1       7.074   6.975  17.367  0.00  0.00    +0.000 C 
ENDBRANCH  11  12
ENDBRANCH   2   5
BRANCH   1  14
ATOM     14  C   UNL     1       2.685   3.581  18.121  0.00  0.00    +0.000 C 
BRANCH  14  17
ATOM     15  N   UNL     1       2.121   6.997  19.293  0.00  0.00    +0.000 N 
ATOM     16  C   UNL     1       2.418   6.144  18.272  0.00  0.00    +0.000 A 
ATOM     17  C   UNL     1       2.435   4.872  18.818  0.00  0.00    +0.000 A 
ATOM     18  C   UNL     1       2.135   5.082  20.195  0.00  0.00    +0.000 A 
ATOM     19  C   UNL     1       2.006   4.082  21.284  0.00  0.00    +0.000 C 
ATOM     20  N   UNL     1       1.956   6.382  20.473  0.00  0.00    +0.000 NA
BRANCH  15  22
ATOM     21  C   UNL     1       1.896   8.919  17.769  0.00  0.00    +0.000 C 
ATOM     22  C   UNL     1       1.962   8.437  19.207  0.00  0.00    +0.000 C 
ENDBRANCH  15  22
ENDBRANCH  14  17
ENDBRANCH   1  14
TORSDOF 5
ENDMDL
