MODEL 1
REMARK VINA RESULT:      -7.7      0.000      0.000
REMARK  Name = 
REMARK  7 active torsions:
REMARK  status: ('A' for Active; 'I' for Inactive)
REMARK    1  A    between atoms: C_1  and  S_2
REMARK    2  A    between atoms: S_2  and  C_3
REMARK    3  A    between atoms: N_13  and  C_14
REMARK    4  A    between atoms: C_14  and  C_15
REMARK    5  A    between atoms: C_15  and  C_16
REMARK    6  A    between atoms: C_16  and  N_17
REMARK    7  A    between atoms: C_24  and  N_25
REMARK                            x       y       z     vdW  Elec       q    Type
REMARK                         _______ _______ _______ _____ _____    ______ ____
ROOT
ATOM      1  C   UNL     1       0.555   9.200  19.947  0.00  0.00    +0.000 A 
ATOM      2  C   UNL     1       0.574   8.173  20.909  0.00  0.00    +0.000 A 
ATOM      3  C   UNL     1       1.434   7.066  20.788  0.00  0.00    +0.000 A 
ATOM      4  C   UNL     1       2.295   6.995  19.708  0.00  0.00    +0.000 A 
ATOM      5  C   UNL     1       2.291   8.063  18.806  0.00  0.00    +0.000 A 
ATOM      6  C   UNL     1       1.443   9.154  18.877  0.00  0.00    +0.000 A 
ATOM      7  C   UNL     1       3.333   7.822  17.816  0.00  0.00    +0.000 C 
ATOM      8  O   UNL     1       3.605   8.524  16.875  0.00  0.00    +0.000 OA
ATOM      9  C   UNL     1       3.915   6.521  18.181  0.00  0.00    +0.000 A 
ATOM     10  C   UNL     1       3.262   6.001  19.230  0.00  0.00    +0.000 A 
ATOM     11  N   UNL     1       3.494   4.692  19.647  0.00  0.00    +0.000 N 
ATOM     12  C   UNL     1       4.215   3.798  18.824  0.00  0.00    +0.000 A 
ATOM     13  O   UNL     1       4.403   2.610  19.070  0.00  0.00    +0.000 OA
ATOM     14  C   UNL     1       4.838   4.369  17.605  0.00  0.00    +0.000 A 
ATOM     15  C   UNL     1       5.507   3.584  16.663  0.00  0.00    +0.000 A 
ATOM     16  C   UNL     1       6.336   4.224  15.729  0.00  0.00    +0.000 A 
ATOM     17  C   UNL     1       6.789   5.507  16.048  0.00  0.00    +0.000 A 
ATOM     18  C   UNL     1       5.936   6.348  16.737  0.00  0.00    +0.000 A 
ATOM     19  C   UNL     1       4.912   5.761  17.482  0.00  0.00    +0.000 A 
ENDROOT
BRANCH  16  20
ATOM     20  N   UNL     1       5.892   4.145  14.312  0.00  0.00    +0.000 N 
ATOM     21  O   UNL     1       4.689   4.328  14.074  0.00  0.00    +0.000 OA
ATOM     22  O   UNL     1       6.774   3.978  13.457  0.00  0.00    +0.000 OA
ENDBRANCH  16  20
BRANCH   1  24
ATOM     23  C   UNL     1      -1.169  10.758  18.465  0.00  0.00    +0.000 C 
ATOM     24  S   UNL     1      -0.565  10.570  20.164  0.00  0.00    +0.000 S 
ENDBRANCH   1  24
BRANCH  11  25
ATOM     25  C   UNL     1       3.062   4.190  20.941  0.00  0.00    +0.000 C 
BRANCH  25  26
ATOM     26  C   UNL     1       1.619   3.703  20.978  0.00  0.00    +0.000 C 
BRANCH  26  27
ATOM     27  C   UNL     1       1.411   2.353  20.302  0.00  0.00    +0.000 C 
BRANCH  27  28
ATOM     28  N   UNL     1       0.411   2.522  19.237  0.00  0.00    +0.000 NA
ATOM     29  N   UNL     1       0.779   3.198  18.270  0.00  0.00    +0.000 NA
ATOM     30  N   UNL     1       1.110   3.851  17.374  0.00  0.00    +0.000 NA
ENDBRANCH  27  28
ENDBRANCH  26  27
ENDBRANCH  25  26
ENDBRANCH  11  25
TORSDOF 6
ENDMDL
MODEL 2
REMARK VINA RESULT:      -7.6      5.220      7.725
REMARK  Name = 
REMARK  7 active torsions:
REMARK  status: ('A' for Active; 'I' for Inactive)
REMARK    1  A    between atoms: C_1  and  S_2
REMARK    2  A    between atoms: S_2  and  C_3
REMARK    3  A    between atoms: N_13  and  C_14
REMARK    4  A    between atoms: C_14  and  C_15
REMARK    5  A    between atoms: C_15  and  C_16
REMARK    6  A    between atoms: C_16  and  N_17
REMARK    7  A    between atoms: C_24  and  N_25
REMARK                            x       y       z     vdW  Elec       q    Type
REMARK                         _______ _______ _______ _____ _____    ______ ____
ROOT
ATOM      1  C   UNL     1      -4.941  12.155  18.045  0.00  0.00    +0.000 A 
ATOM      2  C   UNL     1      -4.614  12.774  19.266  0.00  0.00    +0.000 A 
ATOM      3  C   UNL     1      -3.418  12.478  19.945  0.00  0.00    +0.000 A 
ATOM      4  C   UNL     1      -2.532  11.574  19.389  0.00  0.00    +0.000 A 
ATOM      5  C   UNL     1      -2.862  11.026  18.145  0.00  0.00    +0.000 A 
ATOM      6  C   UNL     1      -4.039  11.271  17.462  0.00  0.00    +0.000 A 
ATOM      7  C   UNL     1      -1.752  10.185  17.714  0.00  0.00    +0.000 C 
ATOM      8  O   UNL     1      -1.694   9.540  16.698  0.00  0.00    +0.000 OA
ATOM      9  C   UNL     1      -0.773  10.250  18.809  0.00  0.00    +0.000 A 
ATOM     10  C   UNL     1      -1.257  10.990  19.817  0.00  0.00    +0.000 A 
ATOM     11  N   UNL     1      -0.604  11.046  21.047  0.00  0.00    +0.000 N 
ATOM     12  C   UNL     1       0.423  10.126  21.353  0.00  0.00    +0.000 A 
ATOM     13  O   UNL     1       1.001  10.049  22.433  0.00  0.00    +0.000 OA
ATOM     14  C   UNL     1       0.870   9.236  20.254  0.00  0.00    +0.000 A 
ATOM     15  C   UNL     1       1.817   8.227  20.440  0.00  0.00    +0.000 A 
ATOM     16  C   UNL     1       2.417   7.658  19.307  0.00  0.00    +0.000 A 
ATOM     17  C   UNL     1       2.379   8.398  18.122  0.00  0.00    +0.000 A 
ATOM     18  C   UNL     1       1.252   9.155  17.862  0.00  0.00    +0.000 A 
ATOM     19  C   UNL     1       0.461   9.529  18.949  0.00  0.00    +0.000 A 
ENDROOT
BRANCH  16  20
ATOM     20  N   UNL     1       2.102   6.226  19.060  0.00  0.00    +0.000 N 
ATOM     21  O   UNL     1       1.684   5.555  20.016  0.00  0.00    +0.000 OA
ATOM     22  O   UNL     1       2.207   5.822  17.893  0.00  0.00    +0.000 OA
ENDBRANCH  16  20
BRANCH   1  24
ATOM     23  C   UNL     1      -7.554  12.739  18.695  0.00  0.00    +0.000 C 
ATOM     24  S   UNL     1      -6.477  12.576  17.245  0.00  0.00    +0.000 S 
ENDBRANCH   1  24
BRANCH  11  25
ATOM     25  C   UNL     1      -0.899  12.058  22.049  0.00  0.00    +0.000 C 
BRANCH  25  26
ATOM     26  C   UNL     1      -1.960  11.649  23.064  0.00  0.00    +0.000 C 
BRANCH  26  27
ATOM     27  C   UNL     1      -2.851  12.800  23.515  0.00  0.00    +0.000 C 
BRANCH  27  28
ATOM     28  N   UNL     1      -4.101  12.235  24.042  0.00  0.00    +0.000 NA
ATOM     29  N   UNL     1      -5.075  12.309  23.285  0.00  0.00    +0.000 NA
ATOM     30  N   UNL     1      -5.995  12.398  22.589  0.00  0.00    +0.000 NA
ENDBRANCH  27  28
ENDBRANCH  26  27
ENDBRANCH  25  26
ENDBRANCH  11  25
TORSDOF 6
ENDMDL
MODEL 3
REMARK VINA RESULT:      -7.1      5.324      8.081
REMARK  Name = 
REMARK  7 active torsions:
REMARK  status: ('A' for Active; 'I' for Inactive)
REMARK    1  A    between atoms: C_1  and  S_2
REMARK    2  A    between atoms: S_2  and  C_3
REMARK    3  A    between atoms: N_13  and  C_14
REMARK    4  A    between atoms: C_14  and  C_15
REMARK    5  A    between atoms: C_15  and  C_16
REMARK    6  A    between atoms: C_16  and  N_17
REMARK    7  A    between atoms: C_24  and  N_25
REMARK                            x       y       z     vdW  Elec       q    Type
REMARK                         _______ _______ _______ _____ _____    ______ ____
ROOT
ATOM      1  C   UNL     1      -4.923  12.206  18.191  0.00  0.00    +0.000 A 
ATOM      2  C   UNL     1      -4.589  12.788  19.427  0.00  0.00    +0.000 A 
ATOM      3  C   UNL     1      -3.390  12.471  20.092  0.00  0.00    +0.000 A 
ATOM      4  C   UNL     1      -2.509  11.580  19.506  0.00  0.00    +0.000 A 
ATOM      5  C   UNL     1      -2.846  11.069  18.249  0.00  0.00    +0.000 A 
ATOM      6  C   UNL     1      -4.026  11.336  17.578  0.00  0.00    +0.000 A 
ATOM      7  C   UNL     1      -1.741  10.238  17.788  0.00  0.00    +0.000 C 
ATOM      8  O   UNL     1      -1.690   9.622  16.755  0.00  0.00    +0.000 OA
ATOM      9  C   UNL     1      -0.756  10.269  18.880  0.00  0.00    +0.000 A 
ATOM     10  C   UNL     1      -1.233  10.982  19.912  0.00  0.00    +0.000 A 
ATOM     11  N   UNL     1      -0.575  11.001  21.140  0.00  0.00    +0.000 N 
ATOM     12  C   UNL     1       0.452  10.070  21.414  0.00  0.00    +0.000 A 
ATOM     13  O   UNL     1       1.035   9.961  22.489  0.00  0.00    +0.000 OA
ATOM     14  C   UNL     1       0.891   9.210  20.288  0.00  0.00    +0.000 A 
ATOM     15  C   UNL     1       1.837   8.194  20.441  0.00  0.00    +0.000 A 
ATOM     16  C   UNL     1       2.430   7.656  19.289  0.00  0.00    +0.000 A 
ATOM     17  C   UNL     1       2.388   8.429  18.126  0.00  0.00    +0.000 A 
ATOM     18  C   UNL     1       1.262   9.196  17.893  0.00  0.00    +0.000 A 
ATOM     19  C   UNL     1       0.476   9.541  18.994  0.00  0.00    +0.000 A 
ENDROOT
BRANCH  16  20
ATOM     20  N   UNL     1       2.109   6.232  19.003  0.00  0.00    +0.000 N 
ATOM     21  O   UNL     1       1.727   5.527  19.949  0.00  0.00    +0.000 OA
ATOM     22  O   UNL     1       2.173   5.870  17.820  0.00  0.00    +0.000 OA
ENDBRANCH  16  20
BRANCH   1  24
ATOM     23  C   UNL     1      -7.535  12.764  18.868  0.00  0.00    +0.000 C 
ATOM     24  S   UNL     1      -6.462  12.653  17.411  0.00  0.00    +0.000 S 
ENDBRANCH   1  24
BRANCH  11  25
ATOM     25  C   UNL     1      -0.862  11.985  22.171  0.00  0.00    +0.000 C 
BRANCH  25  26
ATOM     26  C   UNL     1      -0.194  13.337  21.957  0.00  0.00    +0.000 C 
BRANCH  26  27
ATOM     27  C   UNL     1      -0.998  14.511  22.502  0.00  0.00    +0.000 C 
BRANCH  27  28
ATOM     28  N   UNL     1      -1.025  14.408  23.969  0.00  0.00    +0.000 NA
ATOM     29  N   UNL     1      -0.528  15.365  24.574  0.00  0.00    +0.000 NA
ATOM     30  N   UNL     1      -0.041  16.246  25.144  0.00  0.00    +0.000 NA
ENDBRANCH  27  28
ENDBRANCH  26  27
ENDBRANCH  25  26
ENDBRANCH  11  25
TORSDOF 6
ENDMDL
MODEL 4
REMARK VINA RESULT:      -6.9      5.874     10.019
REMARK  Name = 
REMARK  7 active torsions:
REMARK  status: ('A' for Active; 'I' for Inactive)
REMARK    1  A    between atoms: C_1  and  S_2
REMARK    2  A    between atoms: S_2  and  C_3
REMARK    3  A    between atoms: N_13  and  C_14
REMARK    4  A    between atoms: C_14  and  C_15
REMARK    5  A    between atoms: C_15  and  C_16
REMARK    6  A    between atoms: C_16  and  N_17
REMARK    7  A    between atoms: C_24  and  N_25
REMARK                            x       y       z     vdW  Elec       q    Type
REMARK                         _______ _______ _______ _____ _____    ______ ____
ROOT
ATOM      1  C   UNL     1       2.102   7.795  19.014  0.00  0.00    +0.000 A 
ATOM      2  C   UNL     1       1.452   8.239  17.847  0.00  0.00    +0.000 A 
ATOM      3  C   UNL     1       0.498   9.272  17.882  0.00  0.00    +0.000 A 
ATOM      4  C   UNL     1       0.207   9.881  19.089  0.00  0.00    +0.000 A 
ATOM      5  C   UNL     1       0.916   9.456  20.216  0.00  0.00    +0.000 A 
ATOM      6  C   UNL     1       1.840   8.426  20.226  0.00  0.00    +0.000 A 
ATOM      7  C   UNL     1       0.519  10.292  21.342  0.00  0.00    +0.000 C 
ATOM      8  O   UNL     1       0.913  10.201  22.477  0.00  0.00    +0.000 OA
ATOM      9  C   UNL     1      -0.499  11.206  20.801  0.00  0.00    +0.000 A 
ATOM     10  C   UNL     1      -0.740  10.917  19.514  0.00  0.00    +0.000 A 
ATOM     11  N   UNL     1      -1.799  11.510  18.829  0.00  0.00    +0.000 N 
ATOM     12  C   UNL     1      -2.799  12.216  19.534  0.00  0.00    +0.000 A 
ATOM     13  O   UNL     1      -3.805  12.705  19.029  0.00  0.00    +0.000 OA
ATOM     14  C   UNL     1      -2.568  12.429  20.984  0.00  0.00    +0.000 A 
ATOM     15  C   UNL     1      -3.511  13.039  21.815  0.00  0.00    +0.000 A 
ATOM     16  C   UNL     1      -3.095  13.492  23.076  0.00  0.00    +0.000 A 
ATOM     17  C   UNL     1      -1.727  13.715  23.257  0.00  0.00    +0.000 A 
ATOM     18  C   UNL     1      -0.839  12.864  22.626  0.00  0.00    +0.000 A 
ATOM     19  C   UNL     1      -1.294  12.173  21.502  0.00  0.00    +0.000 A 
ENDROOT
BRANCH  16  20
ATOM     20  N   UNL     1      -3.688  12.788  24.243  0.00  0.00    +0.000 N 
ATOM     21  O   UNL     1      -3.899  11.571  24.135  0.00  0.00    +0.000 OA
ATOM     22  O   UNL     1      -3.857  13.455  25.274  0.00  0.00    +0.000 OA
ENDBRANCH  16  20
BRANCH   1  24
ATOM     23  C   UNL     1       2.184   5.044  18.883  0.00  0.00    +0.000 C 
ATOM     24  S   UNL     1       3.296   6.477  18.892  0.00  0.00    +0.000 S 
ENDBRANCH   1  24
BRANCH  11  25
ATOM     25  C   UNL     1      -1.915  11.480  17.380  0.00  0.00    +0.000 C 
BRANCH  25  26
ATOM     26  C   UNL     1      -2.797  10.361  16.841  0.00  0.00    +0.000 C 
BRANCH  26  27
ATOM     27  C   UNL     1      -3.565  10.740  15.581  0.00  0.00    +0.000 C 
BRANCH  27  28
ATOM     28  N   UNL     1      -2.916  10.091  14.433  0.00  0.00    +0.000 NA
ATOM     29  N   UNL     1      -3.614   9.995  13.417  0.00  0.00    +0.000 NA
ATOM     30  N   UNL     1      -4.271   9.882  12.471  0.00  0.00    +0.000 NA
ENDBRANCH  27  28
ENDBRANCH  26  27
ENDBRANCH  25  26
ENDBRANCH  11  25
TORSDOF 6
ENDMDL
MODEL 5
REMARK VINA RESULT:      -6.8      6.016     10.110
REMARK  Name = 
REMARK  7 active torsions:
REMARK  status: ('A' for Active; 'I' for Inactive)
REMARK    1  A    between atoms: C_1  and  S_2
REMARK    2  A    between atoms: S_2  and  C_3
REMARK    3  A    between atoms: N_13  and  C_14
REMARK    4  A    between atoms: C_14  and  C_15
REMARK    5  A    between atoms: C_15  and  C_16
REMARK    6  A    between atoms: C_16  and  N_17
REMARK    7  A    between atoms: C_24  and  N_25
REMARK                            x       y       z     vdW  Elec       q    Type
REMARK                         _______ _______ _______ _____ _____    ______ ____
ROOT
ATOM      1  C   UNL     1       2.312   7.460  18.764  0.00  0.00    +0.000 A 
ATOM      2  C   UNL     1       2.717   8.568  17.998  0.00  0.00    +0.000 A 
ATOM      3  C   UNL     1       2.213   9.859  18.245  0.00  0.00    +0.000 A 
ATOM      4  C   UNL     1       1.314  10.046  19.279  0.00  0.00    +0.000 A 
ATOM      5  C   UNL     1       0.982   8.933  20.057  0.00  0.00    +0.000 A 
ATOM      6  C   UNL     1       1.435   7.646  19.828  0.00  0.00    +0.000 A 
ATOM      7  C   UNL     1       0.106   9.379  21.133  0.00  0.00    +0.000 C 
ATOM      8  O   UNL     1      -0.392   8.688  21.985  0.00  0.00    +0.000 OA
ATOM      9  C   UNL     1      -0.080  10.820  20.904  0.00  0.00    +0.000 A 
ATOM     10  C   UNL     1       0.554  11.194  19.783  0.00  0.00    +0.000 A 
ATOM     11  N   UNL     1       0.372  12.466  19.243  0.00  0.00    +0.000 N 
ATOM     12  C   UNL     1      -0.678  13.293  19.701  0.00  0.00    +0.000 A 
ATOM     13  O   UNL     1      -0.963  14.392  19.236  0.00  0.00    +0.000 OA
ATOM     14  C   UNL     1      -1.444  12.808  20.876  0.00  0.00    +0.000 A 
ATOM     15  C   UNL     1      -2.556  13.485  21.380  0.00  0.00    +0.000 A 
ATOM     16  C   UNL     1      -3.016  13.151  22.662  0.00  0.00    +0.000 A 
ATOM     17  C   UNL     1      -2.116  12.510  23.518  0.00  0.00    +0.000 A 
ATOM     18  C   UNL     1      -1.223  11.608  22.970  0.00  0.00    +0.000 A 
ATOM     19  C   UNL     1      -0.931  11.735  21.611  0.00  0.00    +0.000 A 
ENDROOT
BRANCH  16  20
ATOM     20  N   UNL     1      -4.361  12.520  22.722  0.00  0.00    +0.000 N 
ATOM     21  O   UNL     1      -4.940  12.295  21.649  0.00  0.00    +0.000 OA
ATOM     22  O   UNL     1      -4.777  12.190  23.842  0.00  0.00    +0.000 OA
ENDBRANCH  16  20
BRANCH   1  24
ATOM     23  C   UNL     1       2.073   4.839  19.581  0.00  0.00    +0.000 C 
ATOM     24  S   UNL     1       2.989   5.854  18.390  0.00  0.00    +0.000 S 
ENDBRANCH   1  24
BRANCH  11  25
ATOM     25  C   UNL     1       1.256  13.026  18.234  0.00  0.00    +0.000 C 
BRANCH  25  26
ATOM     26  C   UNL     1       2.675  13.296  18.718  0.00  0.00    +0.000 C 
BRANCH  26  27
ATOM     27  C   UNL     1       2.772  14.434  19.727  0.00  0.00    +0.000 C 
BRANCH  27  28
ATOM     28  N   UNL     1       2.773  13.852  21.077  0.00  0.00    +0.000 NA
ATOM     29  N   UNL     1       1.904  14.289  21.841  0.00  0.00    +0.000 NA
ATOM     30  N   UNL     1       1.108  14.712  22.566  0.00  0.00    +0.000 NA
ENDBRANCH  27  28
ENDBRANCH  26  27
ENDBRANCH  25  26
ENDBRANCH  11  25
TORSDOF 6
ENDMDL
MODEL 6
REMARK VINA RESULT:      -6.8      3.430      6.613
REMARK  Name = 
REMARK  7 active torsions:
REMARK  status: ('A' for Active; 'I' for Inactive)
REMARK    1  A    between atoms: C_1  and  S_2
REMARK    2  A    between atoms: S_2  and  C_3
REMARK    3  A    between atoms: N_13  and  C_14
REMARK    4  A    between atoms: C_14  and  C_15
REMARK    5  A    between atoms: C_15  and  C_16
REMARK    6  A    between atoms: C_16  and  N_17
REMARK    7  A    between atoms: C_24  and  N_25
REMARK                            x       y       z     vdW  Elec       q    Type
REMARK                         _______ _______ _______ _____ _____    ______ ____
ROOT
ATOM      1  C   UNL     1       5.679   5.057  17.040  0.00  0.00    +0.000 A 
ATOM      2  C   UNL     1       5.167   4.268  18.086  0.00  0.00    +0.000 A 
ATOM      3  C   UNL     1       4.115   4.720  18.903  0.00  0.00    +0.000 A 
ATOM      4  C   UNL     1       3.557   5.962  18.661  0.00  0.00    +0.000 A 
ATOM      5  C   UNL     1       4.051   6.692  17.576  0.00  0.00    +0.000 A 
ATOM      6  C   UNL     1       5.100   6.293  16.767  0.00  0.00    +0.000 A 
ATOM      7  C   UNL     1       3.260   7.910  17.453  0.00  0.00    +0.000 C 
ATOM      8  O   UNL     1       3.413   8.786  16.641  0.00  0.00    +0.000 OA
ATOM      9  C   UNL     1       2.299   7.857  18.565  0.00  0.00    +0.000 A 
ATOM     10  C   UNL     1       2.521   6.768  19.316  0.00  0.00    +0.000 A 
ATOM     11  N   UNL     1       1.873   6.589  20.536  0.00  0.00    +0.000 N 
ATOM     12  C   UNL     1       1.178   7.661  21.139  0.00  0.00    +0.000 A 
ATOM     13  O   UNL     1       0.644   7.621  22.244  0.00  0.00    +0.000 OA
ATOM     14  C   UNL     1       1.039   8.901  20.337  0.00  0.00    +0.000 A 
ATOM     15  C   UNL     1       0.449  10.061  20.841  0.00  0.00    +0.000 A 
ATOM     16  C   UNL     1       0.064  11.062  19.936  0.00  0.00    +0.000 A 
ATOM     17  C   UNL     1      -0.118  10.684  18.603  0.00  0.00    +0.000 A 
ATOM     18  C   UNL     1       0.721   9.719  18.078  0.00  0.00    +0.000 A 
ATOM     19  C   UNL     1       1.348   8.852  18.973  0.00  0.00    +0.000 A 
ENDROOT
BRANCH  16  20
ATOM     20  N   UNL     1       0.809  12.345  20.036  0.00  0.00    +0.000 N 
ATOM     21  O   UNL     1       1.698  12.428  20.897  0.00  0.00    +0.000 OA
ATOM     22  O   UNL     1       0.541  13.216  19.197  0.00  0.00    +0.000 OA
ENDBRANCH  16  20
BRANCH   1  24
ATOM     23  C   UNL     1       6.094   3.875  14.585  0.00  0.00    +0.000 C 
ATOM     24  S   UNL     1       7.016   4.420  16.049  0.00  0.00    +0.000 S 
ENDBRANCH   1  24
BRANCH  11  25
ATOM     25  C   UNL     1       1.832   5.309  21.225  0.00  0.00    +0.000 C 
BRANCH  25  26
ATOM     26  C   UNL     1       1.078   4.215  20.479  0.00  0.00    +0.000 C 
BRANCH  26  27
ATOM     27  C   UNL     1       1.297   2.821  21.053  0.00  0.00    +0.000 C 
BRANCH  27  28
ATOM     28  N   UNL     1       2.465   2.868  21.943  0.00  0.00    +0.000 NA
ATOM     29  N   UNL     1       3.511   2.410  21.467  0.00  0.00    +0.000 NA
ATOM     30  N   UNL     1       4.485   1.961  21.035  0.00  0.00    +0.000 NA
ENDBRANCH  27  28
ENDBRANCH  26  27
ENDBRANCH  25  26
ENDBRANCH  11  25
TORSDOF 6
ENDMDL
MODEL 7
REMARK VINA RESULT:      -6.7      4.622      7.649
REMARK  Name = 
REMARK  7 active torsions:
REMARK  status: ('A' for Active; 'I' for Inactive)
REMARK    1  A    between atoms: C_1  and  S_2
REMARK    2  A    between atoms: S_2  and  C_3
REMARK    3  A    between atoms: N_13  and  C_14
REMARK    4  A    between atoms: C_14  and  C_15
REMARK    5  A    between atoms: C_15  and  C_16
REMARK    6  A    between atoms: C_16  and  N_17
REMARK    7  A    between atoms: C_24  and  N_25
REMARK                            x       y       z     vdW  Elec       q    Type
REMARK                         _______ _______ _______ _____ _____    ______ ____
ROOT
ATOM      1  C   UNL     1      -5.008  12.169  18.182  0.00  0.00    +0.000 A 
ATOM      2  C   UNL     1      -4.647  12.797  19.389  0.00  0.00    +0.000 A 
ATOM      3  C   UNL     1      -3.430  12.512  20.033  0.00  0.00    +0.000 A 
ATOM      4  C   UNL     1      -2.557  11.606  19.457  0.00  0.00    +0.000 A 
ATOM      5  C   UNL     1      -2.922  11.048  18.229  0.00  0.00    +0.000 A 
ATOM      6  C   UNL     1      -4.120  11.284  17.578  0.00  0.00    +0.000 A 
ATOM      7  C   UNL     1      -1.822  10.209  17.770  0.00  0.00    +0.000 C 
ATOM      8  O   UNL     1      -1.792   9.557  16.757  0.00  0.00    +0.000 OA
ATOM      9  C   UNL     1      -0.811  10.286  18.835  0.00  0.00    +0.000 A 
ATOM     10  C   UNL     1      -1.267  11.031  19.852  0.00  0.00    +0.000 A 
ATOM     11  N   UNL     1      -0.579  11.099  21.061  0.00  0.00    +0.000 N 
ATOM     12  C   UNL     1       0.461  10.185  21.343  0.00  0.00    +0.000 A 
ATOM     13  O   UNL     1       1.071  10.117  22.406  0.00  0.00    +0.000 OA
ATOM     14  C   UNL     1       0.878   9.288  20.237  0.00  0.00    +0.000 A 
ATOM     15  C   UNL     1       1.835   8.284  20.402  0.00  0.00    +0.000 A 
ATOM     16  C   UNL     1       2.403   7.709  19.255  0.00  0.00    +0.000 A 
ATOM     17  C   UNL     1       2.327   8.441  18.067  0.00  0.00    +0.000 A 
ATOM     18  C   UNL     1       1.189   9.192  17.836  0.00  0.00    +0.000 A 
ATOM     19  C   UNL     1       0.429   9.571  18.942  0.00  0.00    +0.000 A 
ENDROOT
BRANCH  16  20
ATOM     20  N   UNL     1       2.087   6.274  19.028  0.00  0.00    +0.000 N 
ATOM     21  O   UNL     1       2.217   5.832  17.877  0.00  0.00    +0.000 OA
ATOM     22  O   UNL     1       1.789   5.601  20.024  0.00  0.00    +0.000 OA
ENDBRANCH  16  20
BRANCH   1  24
ATOM     23  C   UNL     1      -7.440  13.276  18.855  0.00  0.00    +0.000 C 
ATOM     24  S   UNL     1      -6.569  12.578  17.426  0.00  0.00    +0.000 S 
ENDBRANCH   1  24
BRANCH  11  25
ATOM     25  C   UNL     1      -0.848  12.116  22.065  0.00  0.00    +0.000 C 
BRANCH  25  26
ATOM     26  C   UNL     1      -0.026  13.389  21.908  0.00  0.00    +0.000 C 
BRANCH  26  27
ATOM     27  C   UNL     1       0.907  13.371  20.703  0.00  0.00    +0.000 C 
BRANCH  27  28
ATOM     28  N   UNL     1       2.286  13.221  21.191  0.00  0.00    +0.000 NA
ATOM     29  N   UNL     1       3.122  13.949  20.643  0.00  0.00    +0.000 NA
ATOM     30  N   UNL     1       3.911  14.610  20.115  0.00  0.00    +0.000 NA
ENDBRANCH  27  28
ENDBRANCH  26  27
ENDBRANCH  25  26
ENDBRANCH  11  25
TORSDOF 6
ENDMDL
MODEL 8
REMARK VINA RESULT:      -6.7      3.376      6.579
REMARK  Name = 
REMARK  7 active torsions:
REMARK  status: ('A' for Active; 'I' for Inactive)
REMARK    1  A    between atoms: C_1  and  S_2
REMARK    2  A    between atoms: S_2  and  C_3
REMARK    3  A    between atoms: N_13  and  C_14
REMARK    4  A    between atoms: C_14  and  C_15
REMARK    5  A    between atoms: C_15  and  C_16
REMARK    6  A    between atoms: C_16  and  N_17
REMARK    7  A    between atoms: C_24  and  N_25
REMARK                            x       y       z     vdW  Elec       q    Type
REMARK                         _______ _______ _______ _____ _____    ______ ____
ROOT
ATOM      1  C   UNL     1       6.064   4.891  15.391  0.00  0.00    +0.000 A 
ATOM      2  C   UNL     1       5.372   3.713  15.727  0.00  0.00    +0.000 A 
ATOM      3  C   UNL     1       4.282   3.728  16.617  0.00  0.00    +0.000 A 
ATOM      4  C   UNL     1       3.868   4.932  17.158  0.00  0.00    +0.000 A 
ATOM      5  C   UNL     1       4.542   6.088  16.754  0.00  0.00    +0.000 A 
ATOM      6  C   UNL     1       5.633   6.110  15.904  0.00  0.00    +0.000 A 
ATOM      7  C   UNL     1       3.882   7.233  17.369  0.00  0.00    +0.000 C 
ATOM      8  O   UNL     1       4.202   8.389  17.259  0.00  0.00    +0.000 OA
ATOM      9  C   UNL     1       2.805   6.660  18.190  0.00  0.00    +0.000 A 
ATOM     10  C   UNL     1       2.844   5.321  18.133  0.00  0.00    +0.000 A 
ATOM     11  N   UNL     1       2.053   4.540  18.974  0.00  0.00    +0.000 N 
ATOM     12  C   UNL     1       1.396   5.124  20.080  0.00  0.00    +0.000 A 
ATOM     13  O   UNL     1       0.742   4.507  20.917  0.00  0.00    +0.000 OA
ATOM     14  C   UNL     1       1.458   6.602  20.189  0.00  0.00    +0.000 A 
ATOM     15  C   UNL     1       0.923   7.299  21.274  0.00  0.00    +0.000 A 
ATOM     16  C   UNL     1       0.732   8.684  21.148  0.00  0.00    +0.000 A 
ATOM     17  C   UNL     1       0.662   9.205  19.853  0.00  0.00    +0.000 A 
ATOM     18  C   UNL     1       1.464   8.641  18.879  0.00  0.00    +0.000 A 
ATOM     19  C   UNL     1       1.909   7.334  19.086  0.00  0.00    +0.000 A 
ENDROOT
BRANCH  16  20
ATOM     20  N   UNL     1       1.574   9.535  22.029  0.00  0.00    +0.000 N 
ATOM     21  O   UNL     1       2.218   8.973  22.928  0.00  0.00    +0.000 OA
ATOM     22  O   UNL     1       1.634  10.741  21.753  0.00  0.00    +0.000 OA
ENDBRANCH  16  20
BRANCH   1  24
ATOM     23  C   UNL     1       6.669   3.870  12.904  0.00  0.00    +0.000 C 
ATOM     24  S   UNL     1       7.439   4.794  14.261  0.00  0.00    +0.000 S 
ENDBRANCH   1  24
BRANCH  11  25
ATOM     25  C   UNL     1       1.821   3.123  18.745  0.00  0.00    +0.000 C 
BRANCH  25  26
ATOM     26  C   UNL     1       2.679   2.198  19.600  0.00  0.00    +0.000 C 
BRANCH  26  27
ATOM     27  C   UNL     1       3.794   2.917  20.350  0.00  0.00    +0.000 C 
BRANCH  27  28
ATOM     28  N   UNL     1       5.040   2.161  20.154  0.00  0.00    +0.000 NA
ATOM     29  N   UNL     1       5.409   1.491  21.125  0.00  0.00    +0.000 NA
ATOM     30  N   UNL     1       5.770   0.882  22.040  0.00  0.00    +0.000 NA
ENDBRANCH  27  28
ENDBRANCH  26  27
ENDBRANCH  25  26
ENDBRANCH  11  25
TORSDOF 6
ENDMDL
MODEL 9
REMARK VINA RESULT:      -6.7      3.352      6.557
REMARK  Name = 
REMARK  7 active torsions:
REMARK  status: ('A' for Active; 'I' for Inactive)
REMARK    1  A    between atoms: C_1  and  S_2
REMARK    2  A    between atoms: S_2  and  C_3
REMARK    3  A    between atoms: N_13  and  C_14
REMARK    4  A    between atoms: C_14  and  C_15
REMARK    5  A    between atoms: C_15  and  C_16
REMARK    6  A    between atoms: C_16  and  N_17
REMARK    7  A    between atoms: C_24  and  N_25
REMARK                            x       y       z     vdW  Elec       q    Type
REMARK                         _______ _______ _______ _____ _____    ______ ____
ROOT
ATOM      1  C   UNL     1       5.644   5.258  16.987  0.00  0.00    +0.000 A 
ATOM      2  C   UNL     1       5.118   4.427  17.993  0.00  0.00    +0.000 A 
ATOM      3  C   UNL     1       4.054   4.845  18.812  0.00  0.00    +0.000 A 
ATOM      4  C   UNL     1       3.497   6.095  18.611  0.00  0.00    +0.000 A 
ATOM      5  C   UNL     1       4.005   6.868  17.563  0.00  0.00    +0.000 A 
ATOM      6  C   UNL     1       5.067   6.503  16.755  0.00  0.00    +0.000 A 
ATOM      7  C   UNL     1       3.214   8.089  17.477  0.00  0.00    +0.000 C 
ATOM      8  O   UNL     1       3.377   8.996  16.702  0.00  0.00    +0.000 OA
ATOM      9  C   UNL     1       2.237   7.990  18.572  0.00  0.00    +0.000 A 
ATOM     10  C   UNL     1       2.450   6.873  19.282  0.00  0.00    +0.000 A 
ATOM     11  N   UNL     1       1.785   6.645  20.485  0.00  0.00    +0.000 N 
ATOM     12  C   UNL     1       1.079   7.691  21.119  0.00  0.00    +0.000 A 
ATOM     13  O   UNL     1       0.528   7.608  22.213  0.00  0.00    +0.000 OA
ATOM     14  C   UNL     1       0.949   8.962  20.364  0.00  0.00    +0.000 A 
ATOM     15  C   UNL     1       0.349  10.101  20.906  0.00  0.00    +0.000 A 
ATOM     16  C   UNL     1      -0.024  11.136  20.035  0.00  0.00    +0.000 A 
ATOM     17  C   UNL     1      -0.187  10.810  18.686  0.00  0.00    +0.000 A 
ATOM     18  C   UNL     1       0.662   9.868  18.135  0.00  0.00    +0.000 A 
ATOM     19  C   UNL     1       1.278   8.967  19.005  0.00  0.00    +0.000 A 
ENDROOT
BRANCH  16  20
ATOM     20  N   UNL     1       0.717  12.415  20.197  0.00  0.00    +0.000 N 
ATOM     21  O   UNL     1       0.313  13.398  19.559  0.00  0.00    +0.000 OA
ATOM     22  O   UNL     1       1.642  12.426  21.021  0.00  0.00    +0.000 OA
ENDBRANCH  16  20
BRANCH   1  24
ATOM     23  C   UNL     1       6.077   3.941  14.606  0.00  0.00    +0.000 C 
ATOM     24  S   UNL     1       6.997   4.663  15.992  0.00  0.00    +0.000 S 
ENDBRANCH   1  24
BRANCH  11  25
ATOM     25  C   UNL     1       1.736   5.339  21.122  0.00  0.00    +0.000 C 
BRANCH  25  26
ATOM     26  C   UNL     1       0.859   4.320  20.405  0.00  0.00    +0.000 C 
BRANCH  26  27
ATOM     27  C   UNL     1       1.338   2.882  20.562  0.00  0.00    +0.000 C 
BRANCH  27  28
ATOM     28  N   UNL     1       1.284   2.233  19.244  0.00  0.00    +0.000 NA
ATOM     29  N   UNL     1       2.355   1.763  18.844  0.00  0.00    +0.000 NA
ATOM     30  N   UNL     1       3.360   1.343  18.454  0.00  0.00    +0.000 NA
ENDBRANCH  27  28
ENDBRANCH  26  27
ENDBRANCH  25  26
ENDBRANCH  11  25
TORSDOF 6
ENDMDL
