MODEL 1
REMARK VINA RESULT:      -8.9      0.000      0.000
REMARK  Name = 
REMARK  7 active torsions:
REMARK  status: ('A' for Active; 'I' for Inactive)
REMARK    1  A    between atoms: C_2  and  C_4
REMARK    2  A    between atoms: C_8  and  C_9
REMARK    3  A    between atoms: C_9  and  C_10
REMARK    4  A    between atoms: C_10  and  N_11
REMARK    5  A    between atoms: C_10  and  C_25
REMARK    6  A    between atoms: N_11  and  S_12
REMARK    7  A    between atoms: S_12  and  C_15
REMARK                            x       y       z     vdW  Elec       q    Type
REMARK                         _______ _______ _______ _____ _____    ______ ____
ROOT
ATOM      1  C   UNL     1       2.929   7.240  18.203  0.00  0.00    +0.000 C 
ENDROOT
BRANCH   1   2
ATOM      2  C   UNL     1       2.039   8.494  18.209  0.00  0.00    +0.000 C 
ATOM      3  O   UNL     1       1.585   8.938  17.154  0.00  0.00    +0.000 OA
ATOM      4  N   UNL     1       1.700   9.081  19.427  0.00  0.00    +0.000 N 
ATOM      5  C   UNL     1       0.718  10.178  19.450  0.00  0.00    +0.000 C 
ATOM      6  C   UNL     1      -0.475   9.833  20.367  0.00  0.00    +0.000 C 
ATOM      7  N   UNL     1      -0.019   9.351  21.674  0.00  0.00    +0.000 N 
ATOM      8  C   UNL     1      -0.518   9.838  22.860  0.00  0.00    +0.000 C 
ATOM      9  O   UNL     1      -0.176   9.480  23.976  0.00  0.00    +0.000 OA
ATOM     10  C   UNL     1       0.992   8.294  21.661  0.00  0.00    +0.000 C 
ATOM     11  C   UNL     1       2.173   8.695  20.764  0.00  0.00    +0.000 C 
ENDBRANCH   1   2
BRANCH   1  12
ATOM     12  N   UNL     1       4.079   7.276  17.272  0.00  0.00    +0.000 NA
ATOM     13  H   UNL     1       4.213   8.153  16.763  0.00  0.00    +0.000 HD
BRANCH  12  14
ATOM     14  S   UNL     1       5.549   6.554  17.599  0.00  0.00    +0.000 S 
ATOM     15  O   UNL     1       6.531   7.609  17.464  0.00  0.00    +0.000 OA
ATOM     16  O   UNL     1       5.454   5.784  18.817  0.00  0.00    +0.000 OA
BRANCH  14  17
ATOM     17  C   UNL     1       5.788   5.437  16.258  0.00  0.00    +0.000 A 
ATOM     18  C   UNL     1       5.002   4.289  16.162  0.00  0.00    +0.000 A 
ATOM     19  C   UNL     1       5.098   3.497  15.019  0.00  0.00    +0.000 A 
ATOM     20  C   UNL     1       5.961   3.856  13.967  0.00  0.00    +0.000 A 
ATOM     21  C   UNL     1       5.994   3.136  12.766  0.00  0.00    +0.000 A 
ATOM     22  C   UNL     1       6.851   3.519  11.731  0.00  0.00    +0.000 A 
ATOM     23  C   UNL     1       7.722   4.592  11.903  0.00  0.00    +0.000 A 
ATOM     24  C   UNL     1       7.700   5.320  13.089  0.00  0.00    +0.000 A 
ATOM     25  C   UNL     1       6.798   4.988  14.108  0.00  0.00    +0.000 A 
ATOM     26  C   UNL     1       6.689   5.784  15.250  0.00  0.00    +0.000 A 
ENDBRANCH  14  17
ENDBRANCH  12  14
ENDBRANCH   1  12
BRANCH   1  27
ATOM     27  C   UNL     1       2.075   5.950  18.048  0.00  0.00    +0.000 C 
BRANCH  27  32
ATOM     28  C   UNL     1       3.375   2.878  19.866  0.00  0.00    +0.000 A 
ATOM     29  C   UNL     1       2.541   2.842  20.990  0.00  0.00    +0.000 A 
ATOM     30  C   UNL     1       1.629   3.871  21.216  0.00  0.00    +0.000 A 
ATOM     31  C   UNL     1       1.520   4.915  20.299  0.00  0.00    +0.000 A 
ATOM     32  C   UNL     1       2.330   4.950  19.157  0.00  0.00    +0.000 A 
ATOM     33  C   UNL     1       3.300   3.956  18.977  0.00  0.00    +0.000 A 
BRANCH  28  35
ATOM     34  N   UNL     1       5.216   1.398  20.283  0.00  0.00    +0.000 NA
ATOM     35  C   UNL     1       4.214   1.693  19.525  0.00  0.00    +0.000 C 
ATOM     36  N   UNL     1       3.903   0.900  18.459  0.00  0.00    +0.000 N 
ATOM     37  H   UNL     1       5.651   0.527  19.972  0.00  0.00    +0.000 HD
ATOM     38  H   UNL     1       4.621   0.240  18.179  0.00  0.00    +0.000 HD
ATOM     39  H   UNL     1       3.505   1.376  17.658  0.00  0.00    +0.000 HD
ENDBRANCH  28  35
ENDBRANCH  27  32
ENDBRANCH   1  27
TORSDOF 7
ENDMDL
MODEL 2
REMARK VINA RESULT:      -8.8      4.538      8.192
REMARK  Name = 
REMARK  7 active torsions:
REMARK  status: ('A' for Active; 'I' for Inactive)
REMARK    1  A    between atoms: C_2  and  C_4
REMARK    2  A    between atoms: C_8  and  C_9
REMARK    3  A    between atoms: C_9  and  C_10
REMARK    4  A    between atoms: C_10  and  N_11
REMARK    5  A    between atoms: C_10  and  C_25
REMARK    6  A    between atoms: N_11  and  S_12
REMARK    7  A    between atoms: S_12  and  C_15
REMARK                            x       y       z     vdW  Elec       q    Type
REMARK                         _______ _______ _______ _____ _____    ______ ____
ROOT
ATOM      1  C   UNL     1      -0.670  11.768  20.633  0.00  0.00    +0.000 C 
ENDROOT
BRANCH   1   2
ATOM      2  C   UNL     1      -0.485  12.726  21.822  0.00  0.00    +0.000 C 
ATOM      3  O   UNL     1       0.613  13.240  22.040  0.00  0.00    +0.000 OA
ATOM      4  N   UNL     1      -1.588  13.056  22.607  0.00  0.00    +0.000 N 
ATOM      5  C   UNL     1      -1.452  14.096  23.642  0.00  0.00    +0.000 C 
ATOM      6  C   UNL     1      -2.469  15.236  23.415  0.00  0.00    +0.000 C 
ATOM      7  N   UNL     1      -3.821  14.709  23.207  0.00  0.00    +0.000 N 
ATOM      8  C   UNL     1      -4.918  15.193  23.880  0.00  0.00    +0.000 C 
ATOM      9  O   UNL     1      -6.065  14.794  23.753  0.00  0.00    +0.000 OA
ATOM     10  C   UNL     1      -3.958  13.642  22.216  0.00  0.00    +0.000 C 
ATOM     11  C   UNL     1      -2.951  12.516  22.500  0.00  0.00    +0.000 C 
ENDBRANCH   1   2
BRANCH   1  12
ATOM     12  N   UNL     1       0.457  10.844  20.376  0.00  0.00    +0.000 NA
ATOM     13  H   UNL     1       1.359  11.283  20.185  0.00  0.00    +0.000 HD
BRANCH  12  14
ATOM     14  S   UNL     1       0.666   9.402  21.193  0.00  0.00    +0.000 S 
ATOM     15  O   UNL     1       1.621   9.691  22.242  0.00  0.00    +0.000 OA
ATOM     16  O   UNL     1      -0.622   8.827  21.505  0.00  0.00    +0.000 OA
BRANCH  14  17
ATOM     17  C   UNL     1       1.467   8.357  20.024  0.00  0.00    +0.000 A 
ATOM     18  C   UNL     1       1.758   8.837  18.747  0.00  0.00    +0.000 A 
ATOM     19  C   UNL     1       2.525   8.053  17.887  0.00  0.00    +0.000 A 
ATOM     20  C   UNL     1       3.016   6.802  18.302  0.00  0.00    +0.000 A 
ATOM     21  C   UNL     1       3.878   6.046  17.497  0.00  0.00    +0.000 A 
ATOM     22  C   UNL     1       4.363   4.812  17.936  0.00  0.00    +0.000 A 
ATOM     23  C   UNL     1       3.952   4.294  19.162  0.00  0.00    +0.000 A 
ATOM     24  C   UNL     1       3.099   5.033  19.976  0.00  0.00    +0.000 A 
ATOM     25  C   UNL     1       2.659   6.302  19.577  0.00  0.00    +0.000 A 
ATOM     26  C   UNL     1       1.901   7.096  20.438  0.00  0.00    +0.000 A 
ENDBRANCH  14  17
ENDBRANCH  12  14
ENDBRANCH   1  12
BRANCH   1  27
ATOM     27  C   UNL     1      -1.112  12.541  19.359  0.00  0.00    +0.000 C 
BRANCH  27  32
ATOM     28  C   UNL     1      -4.199  10.970  17.797  0.00  0.00    +0.000 A 
ATOM     29  C   UNL     1      -3.643   9.896  17.093  0.00  0.00    +0.000 A 
ATOM     30  C   UNL     1      -2.260   9.740  17.034  0.00  0.00    +0.000 A 
ATOM     31  C   UNL     1      -1.431  10.634  17.712  0.00  0.00    +0.000 A 
ATOM     32  C   UNL     1      -1.976  11.699  18.443  0.00  0.00    +0.000 A 
ATOM     33  C   UNL     1      -3.363  11.896  18.431  0.00  0.00    +0.000 A 
BRANCH  28  35
ATOM     34  N   UNL     1      -6.381  11.824  17.285  0.00  0.00    +0.000 NA
ATOM     35  C   UNL     1      -5.673  11.031  18.017  0.00  0.00    +0.000 C 
ATOM     36  N   UNL     1      -6.276  10.229  18.941  0.00  0.00    +0.000 N 
ATOM     37  H   UNL     1      -7.374  11.707  17.496  0.00  0.00    +0.000 HD
ATOM     38  H   UNL     1      -7.236  10.464  19.167  0.00  0.00    +0.000 HD
ATOM     39  H   UNL     1      -5.736  10.036  19.776  0.00  0.00    +0.000 HD
ENDBRANCH  28  35
ENDBRANCH  27  32
ENDBRANCH   1  27
TORSDOF 7
ENDMDL
MODEL 3
REMARK VINA RESULT:      -8.7      1.072      1.176
REMARK  Name = 
REMARK  7 active torsions:
REMARK  status: ('A' for Active; 'I' for Inactive)
REMARK    1  A    between atoms: C_2  and  C_4
REMARK    2  A    between atoms: C_8  and  C_9
REMARK    3  A    between atoms: C_9  and  C_10
REMARK    4  A    between atoms: C_10  and  N_11
REMARK    5  A    between atoms: C_10  and  C_25
REMARK    6  A    between atoms: N_11  and  S_12
REMARK    7  A    between atoms: S_12  and  C_15
REMARK                            x       y       z     vdW  Elec       q    Type
REMARK                         _______ _______ _______ _____ _____    ______ ____
ROOT
ATOM      1  C   UNL     1       2.848   6.721  19.470  0.00  0.00    +0.000 C 
ENDROOT
BRANCH   1   2
ATOM      2  C   UNL     1       2.093   7.915  18.862  0.00  0.00    +0.000 C 
ATOM      3  O   UNL     1       1.853   7.948  17.655  0.00  0.00    +0.000 OA
ATOM      4  N   UNL     1       1.627   8.924  19.703  0.00  0.00    +0.000 N 
ATOM      5  C   UNL     1       0.763   9.982  19.151  0.00  0.00    +0.000 C 
ATOM      6  C   UNL     1      -0.584  10.043  19.900  0.00  0.00    +0.000 C 
ATOM      7  N   UNL     1      -0.385  10.069  21.353  0.00  0.00    +0.000 N 
ATOM      8  C   UNL     1      -1.012  10.978  22.172  0.00  0.00    +0.000 C 
ATOM      9  O   UNL     1      -0.884  11.052  23.384  0.00  0.00    +0.000 OA
ATOM     10  C   UNL     1       0.509   9.051  21.905  0.00  0.00    +0.000 C 
ATOM     11  C   UNL     1       1.848   9.050  21.151  0.00  0.00    +0.000 C 
ENDBRANCH   1   2
BRANCH   1  12
ATOM     12  N   UNL     1       3.593   5.879  18.508  0.00  0.00    +0.000 NA
ATOM     13  H   UNL     1       3.123   5.695  17.620  0.00  0.00    +0.000 HD
BRANCH  12  14
ATOM     14  S   UNL     1       5.246   5.977  18.290  0.00  0.00    +0.000 S 
ATOM     15  O   UNL     1       5.515   7.374  18.024  0.00  0.00    +0.000 OA
ATOM     16  O   UNL     1       5.921   5.287  19.364  0.00  0.00    +0.000 OA
BRANCH  14  17
ATOM     17  C   UNL     1       5.536   5.090  16.797  0.00  0.00    +0.000 A 
ATOM     18  C   UNL     1       4.736   3.995  16.473  0.00  0.00    +0.000 A 
ATOM     19  C   UNL     1       4.879   3.399  15.220  0.00  0.00    +0.000 A 
ATOM     20  C   UNL     1       5.803   3.903  14.287  0.00  0.00    +0.000 A 
ATOM     21  C   UNL     1       5.888   3.391  12.986  0.00  0.00    +0.000 A 
ATOM     22  C   UNL     1       6.806   3.916  12.073  0.00  0.00    +0.000 A 
ATOM     23  C   UNL     1       7.685   4.922  12.463  0.00  0.00    +0.000 A 
ATOM     24  C   UNL     1       7.613   5.446  13.751  0.00  0.00    +0.000 A 
ATOM     25  C   UNL     1       6.652   4.974  14.655  0.00  0.00    +0.000 A 
ATOM     26  C   UNL     1       6.496   5.574  15.906  0.00  0.00    +0.000 A 
ENDBRANCH  14  17
ENDBRANCH  12  14
ENDBRANCH   1  12
BRANCH   1  27
ATOM     27  C   UNL     1       1.920   5.889  20.400  0.00  0.00    +0.000 C 
BRANCH  27  32
ATOM     28  C   UNL     1       2.951   2.343  19.508  0.00  0.00    +0.000 A 
ATOM     29  C   UNL     1       1.824   1.887  18.814  0.00  0.00    +0.000 A 
ATOM     30  C   UNL     1       0.688   2.689  18.725  0.00  0.00    +0.000 A 
ATOM     31  C   UNL     1       0.690   3.962  19.295  0.00  0.00    +0.000 A 
ATOM     32  C   UNL     1       1.821   4.439  19.971  0.00  0.00    +0.000 A 
ATOM     33  C   UNL     1       2.930   3.598  20.126  0.00  0.00    +0.000 A 
BRANCH  28  35
ATOM     34  N   UNL     1       5.146   1.809  20.318  0.00  0.00    +0.000 NA
ATOM     35  C   UNL     1       4.225   1.570  19.445  0.00  0.00    +0.000 C 
ATOM     36  N   UNL     1       4.403   0.590  18.513  0.00  0.00    +0.000 N 
ATOM     37  H   UNL     1       5.925   1.160  20.198  0.00  0.00    +0.000 HD
ATOM     38  H   UNL     1       5.353   0.250  18.408  0.00  0.00    +0.000 HD
ATOM     39  H   UNL     1       3.968   0.754  17.613  0.00  0.00    +0.000 HD
ENDBRANCH  28  35
ENDBRANCH  27  32
ENDBRANCH   1  27
TORSDOF 7
ENDMDL
MODEL 4
REMARK VINA RESULT:      -8.4      1.980      8.444
REMARK  Name = 
REMARK  7 active torsions:
REMARK  status: ('A' for Active; 'I' for Inactive)
REMARK    1  A    between atoms: C_2  and  C_4
REMARK    2  A    between atoms: C_8  and  C_9
REMARK    3  A    between atoms: C_9  and  C_10
REMARK    4  A    between atoms: C_10  and  N_11
REMARK    5  A    between atoms: C_10  and  C_25
REMARK    6  A    between atoms: N_11  and  S_12
REMARK    7  A    between atoms: S_12  and  C_15
REMARK                            x       y       z     vdW  Elec       q    Type
REMARK                         _______ _______ _______ _____ _____    ______ ____
ROOT
ATOM      1  C   UNL     1       3.105   6.889  17.935  0.00  0.00    +0.000 C 
ENDROOT
BRANCH   1   2
ATOM      2  C   UNL     1       4.581   6.515  18.150  0.00  0.00    +0.000 C 
ATOM      3  O   UNL     1       5.010   6.305  19.285  0.00  0.00    +0.000 OA
ATOM      4  N   UNL     1       5.409   6.352  17.041  0.00  0.00    +0.000 N 
ATOM      5  C   UNL     1       6.775   5.835  17.230  0.00  0.00    +0.000 C 
ATOM      6  C   UNL     1       7.001   4.554  16.398  0.00  0.00    +0.000 C 
ATOM      7  N   UNL     1       6.571   4.740  15.008  0.00  0.00    +0.000 N 
ATOM      8  C   UNL     1       7.358   4.394  13.935  0.00  0.00    +0.000 C 
ATOM      9  O   UNL     1       7.058   4.528  12.759  0.00  0.00    +0.000 OA
ATOM     10  C   UNL     1       5.234   5.299  14.811  0.00  0.00    +0.000 C 
ATOM     11  C   UNL     1       5.065   6.587  15.631  0.00  0.00    +0.000 C 
ENDBRANCH   1   2
BRANCH   1  12
ATOM     12  N   UNL     1       2.571   7.931  18.841  0.00  0.00    +0.000 NA
ATOM     13  H   UNL     1       3.202   8.241  19.584  0.00  0.00    +0.000 HD
BRANCH  12  14
ATOM     14  S   UNL     1       1.607   9.193  18.323  0.00  0.00    +0.000 S 
ATOM     15  O   UNL     1       2.514  10.298  18.095  0.00  0.00    +0.000 OA
ATOM     16  O   UNL     1       0.724   8.734  17.276  0.00  0.00    +0.000 OA
BRANCH  14  17
ATOM     17  C   UNL     1       0.630   9.594  19.731  0.00  0.00    +0.000 A 
ATOM     18  C   UNL     1       0.794   8.880  20.917  0.00  0.00    +0.000 A 
ATOM     19  C   UNL     1       0.125   9.307  22.064  0.00  0.00    +0.000 A 
ATOM     20  C   UNL     1      -0.692  10.452  22.033  0.00  0.00    +0.000 A 
ATOM     21  C   UNL     1      -1.286  10.962  23.194  0.00  0.00    +0.000 A 
ATOM     22  C   UNL     1      -2.083  12.108  23.141  0.00  0.00    +0.000 A 
ATOM     23  C   UNL     1      -2.339  12.728  21.920  0.00  0.00    +0.000 A 
ATOM     24  C   UNL     1      -1.754  12.237  20.757  0.00  0.00    +0.000 A 
ATOM     25  C   UNL     1      -0.898  11.128  20.807  0.00  0.00    +0.000 A 
ATOM     26  C   UNL     1      -0.217  10.703  19.666  0.00  0.00    +0.000 A 
ENDBRANCH  14  17
ENDBRANCH  12  14
ENDBRANCH   1  12
BRANCH   1  27
ATOM     27  C   UNL     1       2.209   5.620  17.891  0.00  0.00    +0.000 C 
BRANCH  27  32
ATOM     28  C   UNL     1       3.492   2.646  19.878  0.00  0.00    +0.000 A 
ATOM     29  C   UNL     1       2.679   2.696  21.017  0.00  0.00    +0.000 A 
ATOM     30  C   UNL     1       1.789   3.753  21.193  0.00  0.00    +0.000 A 
ATOM     31  C   UNL     1       1.680   4.740  20.214  0.00  0.00    +0.000 A 
ATOM     32  C   UNL     1       2.469   4.687  19.057  0.00  0.00    +0.000 A 
ATOM     33  C   UNL     1       3.419   3.667  18.923  0.00  0.00    +0.000 A 
BRANCH  28  35
ATOM     34  N   UNL     1       4.044   0.732  18.541  0.00  0.00    +0.000 NA
ATOM     35  C   UNL     1       4.304   1.427  19.597  0.00  0.00    +0.000 C 
ATOM     36  N   UNL     1       5.340   1.074  20.412  0.00  0.00    +0.000 N 
ATOM     37  H   UNL     1       4.722  -0.025  18.440  0.00  0.00    +0.000 HD
ATOM     38  H   UNL     1       5.713   0.142  20.270  0.00  0.00    +0.000 HD
ATOM     39  H   UNL     1       5.213   1.275  21.397  0.00  0.00    +0.000 HD
ENDBRANCH  28  35
ENDBRANCH  27  32
ENDBRANCH   1  27
TORSDOF 7
ENDMDL
MODEL 5
REMARK VINA RESULT:      -8.4      0.786      1.464
REMARK  Name = 
REMARK  7 active torsions:
REMARK  status: ('A' for Active; 'I' for Inactive)
REMARK    1  A    between atoms: C_2  and  C_4
REMARK    2  A    between atoms: C_8  and  C_9
REMARK    3  A    between atoms: C_9  and  C_10
REMARK    4  A    between atoms: C_10  and  N_11
REMARK    5  A    between atoms: C_10  and  C_25
REMARK    6  A    between atoms: N_11  and  S_12
REMARK    7  A    between atoms: S_12  and  C_15
REMARK                            x       y       z     vdW  Elec       q    Type
REMARK                         _______ _______ _______ _____ _____    ______ ____
ROOT
ATOM      1  C   UNL     1       2.874   6.592  18.206  0.00  0.00    +0.000 C 
ENDROOT
BRANCH   1   2
ATOM      2  C   UNL     1       2.391   8.048  18.095  0.00  0.00    +0.000 C 
ATOM      3  O   UNL     1       2.334   8.601  16.996  0.00  0.00    +0.000 OA
ATOM      4  N   UNL     1       1.957   8.709  19.242  0.00  0.00    +0.000 N 
ATOM      5  C   UNL     1       1.340  10.042  19.118  0.00  0.00    +0.000 C 
ATOM      6  C   UNL     1      -0.079  10.052  19.724  0.00  0.00    +0.000 C 
ATOM      7  N   UNL     1      -0.088   9.463  21.067  0.00  0.00    +0.000 N 
ATOM      8  C   UNL     1      -0.691  10.074  22.141  0.00  0.00    +0.000 C 
ATOM      9  O   UNL     1      -0.729   9.636  23.280  0.00  0.00    +0.000 OA
ATOM     10  C   UNL     1       0.564   8.162  21.210  0.00  0.00    +0.000 C 
ATOM     11  C   UNL     1       1.984   8.207  20.624  0.00  0.00    +0.000 C 
ENDBRANCH   1   2
BRANCH   1  12
ATOM     12  N   UNL     1       3.755   6.126  17.113  0.00  0.00    +0.000 NA
ATOM     13  H   UNL     1       3.505   6.442  16.173  0.00  0.00    +0.000 HD
BRANCH  12  14
ATOM     14  S   UNL     1       5.413   5.986  17.265  0.00  0.00    +0.000 S 
ATOM     15  O   UNL     1       5.896   7.340  17.441  0.00  0.00    +0.000 OA
ATOM     16  O   UNL     1       5.730   4.958  18.228  0.00  0.00    +0.000 OA
BRANCH  14  17
ATOM     17  C   UNL     1       5.946   5.439  15.679  0.00  0.00    +0.000 A 
ATOM     18  C   UNL     1       7.268   5.638  15.283  0.00  0.00    +0.000 A 
ATOM     19  C   UNL     1       7.712   5.066  14.092  0.00  0.00    +0.000 A 
ATOM     20  C   UNL     1       6.848   4.283  13.305  0.00  0.00    +0.000 A 
ATOM     21  C   UNL     1       7.299   3.610  12.163  0.00  0.00    +0.000 A 
ATOM     22  C   UNL     1       6.425   2.829  11.404  0.00  0.00    +0.000 A 
ATOM     23  C   UNL     1       5.077   2.753  11.747  0.00  0.00    +0.000 A 
ATOM     24  C   UNL     1       4.611   3.412  12.881  0.00  0.00    +0.000 A 
ATOM     25  C   UNL     1       5.492   4.144  13.688  0.00  0.00    +0.000 A 
ATOM     26  C   UNL     1       5.056   4.709  14.887  0.00  0.00    +0.000 A 
ENDBRANCH  14  17
ENDBRANCH  12  14
ENDBRANCH   1  12
BRANCH   1  27
ATOM     27  C   UNL     1       1.683   5.627  18.466  0.00  0.00    +0.000 C 
BRANCH  27  32
ATOM     28  C   UNL     1       3.297   2.602  20.103  0.00  0.00    +0.000 A 
ATOM     29  C   UNL     1       2.409   2.343  21.154  0.00  0.00    +0.000 A 
ATOM     30  C   UNL     1       1.346   3.209  21.399  0.00  0.00    +0.000 A 
ATOM     31  C   UNL     1       1.144   4.312  20.571  0.00  0.00    +0.000 A 
ATOM     32  C   UNL     1       2.011   4.569  19.500  0.00  0.00    +0.000 A 
ATOM     33  C   UNL     1       3.124   3.741  19.308  0.00  0.00    +0.000 A 
BRANCH  28  35
ATOM     34  N   UNL     1       4.248   1.031  18.559  0.00  0.00    +0.000 NA
ATOM     35  C   UNL     1       4.318   1.583  19.724  0.00  0.00    +0.000 C 
ATOM     36  N   UNL     1       5.342   1.271  20.570  0.00  0.00    +0.000 N 
ATOM     37  H   UNL     1       5.048   0.414  18.411  0.00  0.00    +0.000 HD
ATOM     38  H   UNL     1       5.874   0.442  20.329  0.00  0.00    +0.000 HD
ATOM     39  H   UNL     1       5.118   1.292  21.558  0.00  0.00    +0.000 HD
ENDBRANCH  28  35
ENDBRANCH  27  32
ENDBRANCH   1  27
TORSDOF 7
ENDMDL
MODEL 6
REMARK VINA RESULT:      -8.2      4.157      7.456
REMARK  Name = 
REMARK  7 active torsions:
REMARK  status: ('A' for Active; 'I' for Inactive)
REMARK    1  A    between atoms: C_2  and  C_4
REMARK    2  A    between atoms: C_8  and  C_9
REMARK    3  A    between atoms: C_9  and  C_10
REMARK    4  A    between atoms: C_10  and  N_11
REMARK    5  A    between atoms: C_10  and  C_25
REMARK    6  A    between atoms: N_11  and  S_12
REMARK    7  A    between atoms: S_12  and  C_15
REMARK                            x       y       z     vdW  Elec       q    Type
REMARK                         _______ _______ _______ _____ _____    ______ ____
ROOT
ATOM      1  C   UNL     1       0.514  10.869  19.507  0.00  0.00    +0.000 C 
ENDROOT
BRANCH   1   2
ATOM      2  C   UNL     1       1.060  12.254  19.122  0.00  0.00    +0.000 C 
ATOM      3  O   UNL     1       1.879  12.367  18.209  0.00  0.00    +0.000 OA
ATOM      4  N   UNL     1       0.569  13.383  19.774  0.00  0.00    +0.000 N 
ATOM      5  C   UNL     1       0.964  14.721  19.299  0.00  0.00    +0.000 C 
ATOM      6  C   UNL     1      -0.274  15.563  18.927  0.00  0.00    +0.000 C 
ATOM      7  N   UNL     1      -1.279  15.532  19.994  0.00  0.00    +0.000 N 
ATOM      8  C   UNL     1      -1.875  16.670  20.486  0.00  0.00    +0.000 C 
ATOM      9  O   UNL     1      -2.712  16.708  21.374  0.00  0.00    +0.000 OA
ATOM     10  C   UNL     1      -1.643  14.211  20.506  0.00  0.00    +0.000 C 
ATOM     11  C   UNL     1      -0.383  13.422  20.894  0.00  0.00    +0.000 C 
ENDBRANCH   1   2
BRANCH   1  12
ATOM     12  N   UNL     1       1.358  10.084  20.435  0.00  0.00    +0.000 NA
ATOM     13  H   UNL     1       2.034  10.619  20.983  0.00  0.00    +0.000 HD
BRANCH  12  14
ATOM     14  S   UNL     1       0.792   8.779  21.310  0.00  0.00    +0.000 S 
ATOM     15  O   UNL     1       1.352   8.935  22.635  0.00  0.00    +0.000 OA
ATOM     16  O   UNL     1      -0.634   8.647  21.122  0.00  0.00    +0.000 OA
BRANCH  14  17
ATOM     17  C   UNL     1       1.576   7.389  20.566  0.00  0.00    +0.000 A 
ATOM     18  C   UNL     1       1.249   6.100  20.985  0.00  0.00    +0.000 A 
ATOM     19  C   UNL     1       1.763   5.009  20.285  0.00  0.00    +0.000 A 
ATOM     20  C   UNL     1       2.587   5.201  19.162  0.00  0.00    +0.000 A 
ATOM     21  C   UNL     1       3.027   4.125  18.379  0.00  0.00    +0.000 A 
ATOM     22  C   UNL     1       3.835   4.342  17.261  0.00  0.00    +0.000 A 
ATOM     23  C   UNL     1       4.257   5.630  16.941  0.00  0.00    +0.000 A 
ATOM     24  C   UNL     1       3.827   6.711  17.704  0.00  0.00    +0.000 A 
ATOM     25  C   UNL     1       2.962   6.514  18.789  0.00  0.00    +0.000 A 
ATOM     26  C   UNL     1       2.435   7.602  19.486  0.00  0.00    +0.000 A 
ENDBRANCH  14  17
ENDBRANCH  12  14
ENDBRANCH   1  12
BRANCH   1  27
ATOM     27  C   UNL     1       0.104  10.061  18.243  0.00  0.00    +0.000 C 
BRANCH  27  32
ATOM     28  C   UNL     1      -3.014  10.330  16.089  0.00  0.00    +0.000 A 
ATOM     29  C   UNL     1      -3.849  11.111  16.898  0.00  0.00    +0.000 A 
ATOM     30  C   UNL     1      -3.445  11.463  18.184  0.00  0.00    +0.000 A 
ATOM     31  C   UNL     1      -2.191  11.069  18.650  0.00  0.00    +0.000 A 
ATOM     32  C   UNL     1      -1.336  10.308  17.841  0.00  0.00    +0.000 A 
ATOM     33  C   UNL     1      -1.780   9.890  16.580  0.00  0.00    +0.000 A 
BRANCH  28  35
ATOM     34  N   UNL     1      -2.409   9.916  13.805  0.00  0.00    +0.000 NA
ATOM     35  C   UNL     1      -3.361  10.112  14.655  0.00  0.00    +0.000 C 
ATOM     36  N   UNL     1      -4.662  10.070  14.249  0.00  0.00    +0.000 N 
ATOM     37  H   UNL     1      -2.796   9.710  12.882  0.00  0.00    +0.000 HD
ATOM     38  H   UNL     1      -4.811  10.114  13.247  0.00  0.00    +0.000 HD
ATOM     39  H   UNL     1      -5.298  10.684  14.744  0.00  0.00    +0.000 HD
ENDBRANCH  28  35
ENDBRANCH  27  32
ENDBRANCH   1  27
TORSDOF 7
ENDMDL
MODEL 7
REMARK VINA RESULT:      -8.2      4.605      8.073
REMARK  Name = 
REMARK  7 active torsions:
REMARK  status: ('A' for Active; 'I' for Inactive)
REMARK    1  A    between atoms: C_2  and  C_4
REMARK    2  A    between atoms: C_8  and  C_9
REMARK    3  A    between atoms: C_9  and  C_10
REMARK    4  A    between atoms: C_10  and  N_11
REMARK    5  A    between atoms: C_10  and  C_25
REMARK    6  A    between atoms: N_11  and  S_12
REMARK    7  A    between atoms: S_12  and  C_15
REMARK                            x       y       z     vdW  Elec       q    Type
REMARK                         _______ _______ _______ _____ _____    ______ ____
ROOT
ATOM      1  C   UNL     1      -0.642  11.487  20.438  0.00  0.00    +0.000 C 
ENDROOT
BRANCH   1   2
ATOM      2  C   UNL     1      -0.343  12.482  21.572  0.00  0.00    +0.000 C 
ATOM      3  O   UNL     1       0.772  12.995  21.669  0.00  0.00    +0.000 OA
ATOM      4  N   UNL     1      -1.367  12.845  22.446  0.00  0.00    +0.000 N 
ATOM      5  C   UNL     1      -1.131  13.918  23.427  0.00  0.00    +0.000 C 
ATOM      6  C   UNL     1      -2.159  15.057  23.259  0.00  0.00    +0.000 C 
ATOM      7  N   UNL     1      -3.527  14.533  23.195  0.00  0.00    +0.000 N 
ATOM      8  C   UNL     1      -4.555  15.047  23.951  0.00  0.00    +0.000 C 
ATOM      9  O   UNL     1      -5.710  14.652  23.945  0.00  0.00    +0.000 OA
ATOM     10  C   UNL     1      -3.761  13.435  22.258  0.00  0.00    +0.000 C 
ATOM     11  C   UNL     1      -2.736  12.312  22.484  0.00  0.00    +0.000 C 
ENDBRANCH   1   2
BRANCH   1  12
ATOM     12  N   UNL     1       0.386  10.447  20.213  0.00  0.00    +0.000 NA
ATOM     13  H   UNL     1       1.266  10.771  19.806  0.00  0.00    +0.000 HD
BRANCH  12  14
ATOM     14  S   UNL     1       0.656   9.179  21.266  0.00  0.00    +0.000 S 
ATOM     15  O   UNL     1       1.648   9.664  22.202  0.00  0.00    +0.000 OA
ATOM     16  O   UNL     1      -0.607   8.657  21.735  0.00  0.00    +0.000 OA
BRANCH  14  17
ATOM     17  C   UNL     1       1.426   7.948  20.270  0.00  0.00    +0.000 A 
ATOM     18  C   UNL     1       1.987   8.299  19.043  0.00  0.00    +0.000 A 
ATOM     19  C   UNL     1       2.724   7.348  18.338  0.00  0.00    +0.000 A 
ATOM     20  C   UNL     1       2.916   6.057  18.863  0.00  0.00    +0.000 A 
ATOM     21  C   UNL     1       3.742   5.120  18.227  0.00  0.00    +0.000 A 
ATOM     22  C   UNL     1       3.927   3.848  18.773  0.00  0.00    +0.000 A 
ATOM     23  C   UNL     1       3.249   3.478  19.932  0.00  0.00    +0.000 A 
ATOM     24  C   UNL     1       2.429   4.396  20.579  0.00  0.00    +0.000 A 
ATOM     25  C   UNL     1       2.287   5.697  20.078  0.00  0.00    +0.000 A 
ATOM     26  C   UNL     1       1.560   6.657  20.784  0.00  0.00    +0.000 A 
ENDBRANCH  14  17
ENDBRANCH  12  14
ENDBRANCH   1  12
BRANCH   1  27
ATOM     27  C   UNL     1      -1.035  12.232  19.132  0.00  0.00    +0.000 C 
BRANCH  27  32
ATOM     28  C   UNL     1      -3.496  10.729  16.657  0.00  0.00    +0.000 A 
ATOM     29  C   UNL     1      -4.722  11.123  17.205  0.00  0.00    +0.000 A 
ATOM     30  C   UNL     1      -4.759  11.784  18.431  0.00  0.00    +0.000 A 
ATOM     31  C   UNL     1      -3.570  12.087  19.092  0.00  0.00    +0.000 A 
ATOM     32  C   UNL     1      -2.334  11.721  18.542  0.00  0.00    +0.000 A 
ATOM     33  C   UNL     1      -2.307  10.987  17.350  0.00  0.00    +0.000 A 
BRANCH  28  35
ATOM     34  N   UNL     1      -4.473  10.327  14.504  0.00  0.00    +0.000 NA
ATOM     35  C   UNL     1      -3.440  10.193  15.267  0.00  0.00    +0.000 C 
ATOM     36  N   UNL     1      -2.303   9.615  14.785  0.00  0.00    +0.000 N 
ATOM     37  H   UNL     1      -4.266   9.982  13.565  0.00  0.00    +0.000 HD
ATOM     38  H   UNL     1      -2.403   9.107  13.913  0.00  0.00    +0.000 HD
ATOM     39  H   UNL     1      -1.757   9.089  15.458  0.00  0.00    +0.000 HD
ENDBRANCH  28  35
ENDBRANCH  27  32
ENDBRANCH   1  27
TORSDOF 7
ENDMDL
MODEL 8
REMARK VINA RESULT:      -8.1      2.321      8.626
REMARK  Name = 
REMARK  7 active torsions:
REMARK  status: ('A' for Active; 'I' for Inactive)
REMARK    1  A    between atoms: C_2  and  C_4
REMARK    2  A    between atoms: C_8  and  C_9
REMARK    3  A    between atoms: C_9  and  C_10
REMARK    4  A    between atoms: C_10  and  N_11
REMARK    5  A    between atoms: C_10  and  C_25
REMARK    6  A    between atoms: N_11  and  S_12
REMARK    7  A    between atoms: S_12  and  C_15
REMARK                            x       y       z     vdW  Elec       q    Type
REMARK                         _______ _______ _______ _____ _____    ______ ____
ROOT
ATOM      1  C   UNL     1       2.604   6.999  18.116  0.00  0.00    +0.000 C 
ENDROOT
BRANCH   1   2
ATOM      2  C   UNL     1       3.911   6.312  18.550  0.00  0.00    +0.000 C 
ATOM      3  O   UNL     1       3.989   5.767  19.652  0.00  0.00    +0.000 OA
ATOM      4  N   UNL     1       4.978   6.257  17.656  0.00  0.00    +0.000 N 
ATOM      5  C   UNL     1       6.168   5.459  18.002  0.00  0.00    +0.000 C 
ATOM      6  C   UNL     1       6.447   4.388  16.926  0.00  0.00    +0.000 C 
ATOM      7  N   UNL     1       6.432   4.970  15.581  0.00  0.00    +0.000 N 
ATOM      8  C   UNL     1       7.429   4.739  14.661  0.00  0.00    +0.000 C 
ATOM      9  O   UNL     1       7.474   5.196  13.530  0.00  0.00    +0.000 OA
ATOM     10  C   UNL     1       5.278   5.802  15.244  0.00  0.00    +0.000 C 
ATOM     11  C   UNL     1       5.058   6.873  16.324  0.00  0.00    +0.000 C 
ENDBRANCH   1   2
BRANCH   1  12
ATOM     12  N   UNL     1       2.091   8.035  19.039  0.00  0.00    +0.000 NA
ATOM     13  H   UNL     1       2.668   8.226  19.861  0.00  0.00    +0.000 HD
BRANCH  12  14
ATOM     14  S   UNL     1       1.325   9.427  18.522  0.00  0.00    +0.000 S 
ATOM     15  O   UNL     1       2.380  10.402  18.347  0.00  0.00    +0.000 OA
ATOM     16  O   UNL     1       0.423   9.113  17.439  0.00  0.00    +0.000 OA
BRANCH  14  17
ATOM     17  C   UNL     1       0.365   9.931  19.910  0.00  0.00    +0.000 A 
ATOM     18  C   UNL     1       0.573   9.333  21.152  0.00  0.00    +0.000 A 
ATOM     19  C   UNL     1      -0.084   9.846  22.269  0.00  0.00    +0.000 A 
ATOM     20  C   UNL     1      -0.932  10.962  22.153  0.00  0.00    +0.000 A 
ATOM     21  C   UNL     1      -1.518  11.562  23.276  0.00  0.00    +0.000 A 
ATOM     22  C   UNL     1      -2.346  12.677  23.137  0.00  0.00    +0.000 A 
ATOM     23  C   UNL     1      -2.644  13.175  21.870  0.00  0.00    +0.000 A 
ATOM     24  C   UNL     1      -2.069  12.595  20.744  0.00  0.00    +0.000 A 
ATOM     25  C   UNL     1      -1.182  11.517  20.876  0.00  0.00    +0.000 A 
ATOM     26  C   UNL     1      -0.513  11.007  19.763  0.00  0.00    +0.000 A 
ENDBRANCH  14  17
ENDBRANCH  12  14
ENDBRANCH   1  12
BRANCH   1  27
ATOM     27  C   UNL     1       1.523   5.949  17.734  0.00  0.00    +0.000 C 
BRANCH  27  32
ATOM     28  C   UNL     1       2.233   2.888  19.869  0.00  0.00    +0.000 A 
ATOM     29  C   UNL     1       3.012   2.113  19.001  0.00  0.00    +0.000 A 
ATOM     30  C   UNL     1       3.219   2.531  17.688  0.00  0.00    +0.000 A 
ATOM     31  C   UNL     1       2.683   3.742  17.253  0.00  0.00    +0.000 A 
ATOM     32  C   UNL     1       1.923   4.540  18.120  0.00  0.00    +0.000 A 
ATOM     33  C   UNL     1       1.651   4.076  19.413  0.00  0.00    +0.000 A 
BRANCH  28  35
ATOM     34  N   UNL     1       3.243   2.158  21.920  0.00  0.00    +0.000 NA
ATOM     35  C   UNL     1       2.167   2.540  21.318  0.00  0.00    +0.000 C 
ATOM     36  N   UNL     1       1.001   2.669  22.015  0.00  0.00    +0.000 N 
ATOM     37  H   UNL     1       3.064   2.026  22.916  0.00  0.00    +0.000 HD
ATOM     38  H   UNL     1       0.986   2.234  22.931  0.00  0.00    +0.000 HD
ATOM     39  H   UNL     1       0.154   2.468  21.497  0.00  0.00    +0.000 HD
ENDBRANCH  28  35
ENDBRANCH  27  32
ENDBRANCH   1  27
TORSDOF 7
ENDMDL
MODEL 9
REMARK VINA RESULT:      -8.1      4.687      8.051
REMARK  Name = 
REMARK  7 active torsions:
REMARK  status: ('A' for Active; 'I' for Inactive)
REMARK    1  A    between atoms: C_2  and  C_4
REMARK    2  A    between atoms: C_8  and  C_9
REMARK    3  A    between atoms: C_9  and  C_10
REMARK    4  A    between atoms: C_10  and  N_11
REMARK    5  A    between atoms: C_10  and  C_25
REMARK    6  A    between atoms: N_11  and  S_12
REMARK    7  A    between atoms: S_12  and  C_15
REMARK                            x       y       z     vdW  Elec       q    Type
REMARK                         _______ _______ _______ _____ _____    ______ ____
ROOT
ATOM      1  C   UNL     1      -0.301  10.792  19.638  0.00  0.00    +0.000 C 
ENDROOT
BRANCH   1   2
ATOM      2  C   UNL     1      -0.470  12.311  19.812  0.00  0.00    +0.000 C 
ATOM      3  O   UNL     1      -1.293  12.755  20.614  0.00  0.00    +0.000 OA
ATOM      4  N   UNL     1       0.363  13.173  19.103  0.00  0.00    +0.000 N 
ATOM      5  C   UNL     1       0.318  14.618  19.389  0.00  0.00    +0.000 C 
ATOM      6  C   UNL     1       1.709  15.143  19.804  0.00  0.00    +0.000 C 
ATOM      7  N   UNL     1       2.744  14.707  18.862  0.00  0.00    +0.000 N 
ATOM      8  C   UNL     1       3.667  15.571  18.321  0.00  0.00    +0.000 C 
ATOM      9  O   UNL     1       4.548  15.269  17.531  0.00  0.00    +0.000 OA
ATOM     10  C   UNL     1       2.767  13.282  18.534  0.00  0.00    +0.000 C 
ATOM     11  C   UNL     1       1.371  12.811  18.096  0.00  0.00    +0.000 C 
ENDBRANCH   1   2
BRANCH   1  12
ATOM     12  N   UNL     1       0.884  10.200  20.299  0.00  0.00    +0.000 NA
ATOM     13  H   UNL     1       1.616  10.858  20.573  0.00  0.00    +0.000 HD
BRANCH  12  14
ATOM     14  S   UNL     1       0.792   8.936  21.386  0.00  0.00    +0.000 S 
ATOM     15  O   UNL     1       1.719   9.275  22.446  0.00  0.00    +0.000 OA
ATOM     16  O   UNL     1      -0.591   8.644  21.681  0.00  0.00    +0.000 OA
BRANCH  14  17
ATOM     17  C   UNL     1       1.470   7.566  20.511  0.00  0.00    +0.000 A 
ATOM     18  C   UNL     1       2.214   7.782  19.352  0.00  0.00    +0.000 A 
ATOM     19  C   UNL     1       2.869   6.704  18.757  0.00  0.00    +0.000 A 
ATOM     20  C   UNL     1       2.798   5.419  19.325  0.00  0.00    +0.000 A 
ATOM     21  C   UNL     1       3.534   4.345  18.809  0.00  0.00    +0.000 A 
ATOM     22  C   UNL     1       3.457   3.080  19.397  0.00  0.00    +0.000 A 
ATOM     23  C   UNL     1       2.603   2.861  20.476  0.00  0.00    +0.000 A 
ATOM     24  C   UNL     1       1.867   3.917  21.004  0.00  0.00    +0.000 A 
ATOM     25  C   UNL     1       1.987   5.205  20.465  0.00  0.00    +0.000 A 
ATOM     26  C   UNL     1       1.343   6.289  21.063  0.00  0.00    +0.000 A 
ENDBRANCH  14  17
ENDBRANCH  12  14
ENDBRANCH   1  12
BRANCH   1  27
ATOM     27  C   UNL     1      -0.414  10.387  18.141  0.00  0.00    +0.000 C 
BRANCH  27  32
ATOM     28  C   UNL     1      -3.365  10.279  15.750  0.00  0.00    +0.000 A 
ATOM     29  C   UNL     1      -4.322  11.023  16.451  0.00  0.00    +0.000 A 
ATOM     30  C   UNL     1      -4.051  11.469  17.742  0.00  0.00    +0.000 A 
ATOM     31  C   UNL     1      -2.810  11.209  18.321  0.00  0.00    +0.000 A 
ATOM     32  C   UNL     1      -1.833  10.488  17.620  0.00  0.00    +0.000 A 
ATOM     33  C   UNL     1      -2.140   9.973  16.355  0.00  0.00    +0.000 A 
BRANCH  28  35
ATOM     34  N   UNL     1      -4.785   9.887  13.857  0.00  0.00    +0.000 NA
ATOM     35  C   UNL     1      -3.578   9.964  14.308  0.00  0.00    +0.000 C 
ATOM     36  N   UNL     1      -2.519   9.808  13.462  0.00  0.00    +0.000 N 
ATOM     37  H   UNL     1      -4.777   9.739  12.846  0.00  0.00    +0.000 HD
ATOM     38  H   UNL     1      -2.736   9.407  12.556  0.00  0.00    +0.000 HD
ATOM     39  H   UNL     1      -1.693   9.382  13.866  0.00  0.00    +0.000 HD
ENDBRANCH  28  35
ENDBRANCH  27  32
ENDBRANCH   1  27
TORSDOF 7
ENDMDL
