MODEL 1
REMARK VINA RESULT:      -7.1      0.000      0.000
REMARK  Name = 
REMARK  7 active torsions:
REMARK  status: ('A' for Active; 'I' for Inactive)
REMARK    1  A    between atoms: C_1  and  C_2
REMARK    2  A    between atoms: C_2  and  C_3
REMARK    3  A    between atoms: C_3  and  C_4
REMARK    4  A    between atoms: C_7  and  C_8
REMARK    5  A    between atoms: C_8  and  O_9
REMARK    6  A    between atoms: O_9  and  C_10
REMARK    7  A    between atoms: N_12  and  C_13
REMARK                            x       y       z     vdW  Elec       q    Type
REMARK                         _______ _______ _______ _____ _____    ______ ____
ROOT
ATOM      1  O   UNL     1       6.188   6.316  17.317  0.00  0.00    +0.000 OA
ENDROOT
BRANCH   1   2
ATOM      2  C   UNL     1       7.000   5.476  16.633  0.00  0.00    +0.000 C 
ATOM      3  O   UNL     1       7.834   4.726  17.121  0.00  0.00    +0.000 OA
ATOM      4  N   UNL     1       6.731   5.559  15.302  0.00  0.00    +0.000 N 
ATOM      5  H   UNL     1       6.122   6.306  15.012  0.00  0.00    +0.000 HD
BRANCH   4   6
ATOM      6  C   UNL     1       7.207   4.538  14.342  0.00  0.00    +0.000 C 
ATOM      7  C   UNL     1       6.088   3.812  13.544  0.00  0.00    +0.000 C 
ATOM      8  N   UNL     1       6.833   4.137  12.318  0.00  0.00    +0.000 N 
ATOM      9  C   UNL     1       7.608   5.073  12.936  0.00  0.00    +0.000 C 
ATOM     10  O   UNL     1       8.238   5.991  12.476  0.00  0.00    +0.000 OA
ATOM     11  H   UNL     1       6.469   4.363  11.403  0.00  0.00    +0.000 HD
ENDBRANCH   4   6
ENDBRANCH   1   2
BRANCH   1  12
ATOM     12  C   UNL     1       4.864   6.462  16.777  0.00  0.00    +0.000 C 
BRANCH  12  16
ATOM     13  C   UNL     1       1.971   3.877  18.725  0.00  0.00    +0.000 A 
ATOM     14  C   UNL     1       2.884   3.368  17.794  0.00  0.00    +0.000 A 
ATOM     15  C   UNL     1       3.817   4.205  17.180  0.00  0.00    +0.000 A 
ATOM     16  C   UNL     1       3.846   5.578  17.461  0.00  0.00    +0.000 A 
ATOM     17  C   UNL     1       2.922   6.093  18.379  0.00  0.00    +0.000 A 
ATOM     18  C   UNL     1       1.992   5.251  19.003  0.00  0.00    +0.000 A 
BRANCH  13  19
ATOM     19  C   UNL     1       0.970   2.966  19.399  0.00  0.00    +0.000 C 
BRANCH  19  21
ATOM     20  C   UNL     1       2.387   2.653  21.469  0.00  0.00    +0.000 C 
ATOM     21  C   UNL     1       1.026   3.059  20.927  0.00  0.00    +0.000 C 
ENDBRANCH  19  21
ENDBRANCH  13  19
ENDBRANCH  12  16
ENDBRANCH   1  12
TORSDOF 6
ENDMDL
MODEL 2
REMARK VINA RESULT:      -7.0      2.825      6.582
REMARK  Name = 
REMARK  7 active torsions:
REMARK  status: ('A' for Active; 'I' for Inactive)
REMARK    1  A    between atoms: C_1  and  C_2
REMARK    2  A    between atoms: C_2  and  C_3
REMARK    3  A    between atoms: C_3  and  C_4
REMARK    4  A    between atoms: C_7  and  C_8
REMARK    5  A    between atoms: C_8  and  O_9
REMARK    6  A    between atoms: O_9  and  C_10
REMARK    7  A    between atoms: N_12  and  C_13
REMARK                            x       y       z     vdW  Elec       q    Type
REMARK                         _______ _______ _______ _____ _____    ______ ____
ROOT
ATOM      1  O   UNL     1       7.572   4.881  17.604  0.00  0.00    +0.000 OA
ENDROOT
BRANCH   1   2
ATOM      2  C   UNL     1       6.772   4.774  18.691  0.00  0.00    +0.000 C 
ATOM      3  O   UNL     1       6.852   5.446  19.711  0.00  0.00    +0.000 OA
ATOM      4  N   UNL     1       5.828   3.819  18.476  0.00  0.00    +0.000 N 
ATOM      5  H   UNL     1       5.948   3.244  17.658  0.00  0.00    +0.000 HD
BRANCH   4   6
ATOM      6  C   UNL     1       4.622   3.703  19.327  0.00  0.00    +0.000 C 
ATOM      7  C   UNL     1       3.329   3.271  18.580  0.00  0.00    +0.000 C 
ATOM      8  N   UNL     1       3.157   2.231  19.604  0.00  0.00    +0.000 N 
ATOM      9  C   UNL     1       4.439   2.337  20.051  0.00  0.00    +0.000 C 
ATOM     10  O   UNL     1       5.116   1.559  20.675  0.00  0.00    +0.000 OA
ATOM     11  H   UNL     1       2.776   1.301  19.497  0.00  0.00    +0.000 HD
ENDBRANCH   4   6
ENDBRANCH   1   2
BRANCH   1  12
ATOM     12  C   UNL     1       7.111   5.794  16.594  0.00  0.00    +0.000 C 
BRANCH  12  16
ATOM     13  C   UNL     1       5.823   3.797  12.960  0.00  0.00    +0.000 A 
ATOM     14  C   UNL     1       7.041   4.486  13.014  0.00  0.00    +0.000 A 
ATOM     15  C   UNL     1       7.451   5.116  14.190  0.00  0.00    +0.000 A 
ATOM     16  C   UNL     1       6.644   5.097  15.336  0.00  0.00    +0.000 A 
ATOM     17  C   UNL     1       5.417   4.425  15.279  0.00  0.00    +0.000 A 
ATOM     18  C   UNL     1       5.010   3.783  14.102  0.00  0.00    +0.000 A 
BRANCH  13  19
ATOM     19  C   UNL     1       5.388   3.104  11.690  0.00  0.00    +0.000 C 
BRANCH  19  21
ATOM     20  C   UNL     1       3.524   3.844  10.151  0.00  0.00    +0.000 C 
ATOM     21  C   UNL     1       3.873   3.176  11.470  0.00  0.00    +0.000 C 
ENDBRANCH  19  21
ENDBRANCH  13  19
ENDBRANCH  12  16
ENDBRANCH   1  12
TORSDOF 6
ENDMDL
MODEL 3
REMARK VINA RESULT:      -7.0      3.423      7.153
REMARK  Name = 
REMARK  7 active torsions:
REMARK  status: ('A' for Active; 'I' for Inactive)
REMARK    1  A    between atoms: C_1  and  C_2
REMARK    2  A    between atoms: C_2  and  C_3
REMARK    3  A    between atoms: C_3  and  C_4
REMARK    4  A    between atoms: C_7  and  C_8
REMARK    5  A    between atoms: C_8  and  O_9
REMARK    6  A    between atoms: O_9  and  C_10
REMARK    7  A    between atoms: N_12  and  C_13
REMARK                            x       y       z     vdW  Elec       q    Type
REMARK                         _______ _______ _______ _____ _____    ______ ____
ROOT
ATOM      1  O   UNL     1       5.025   5.716  19.350  0.00  0.00    +0.000 OA
ENDROOT
BRANCH   1   2
ATOM      2  C   UNL     1       3.684   5.852  19.481  0.00  0.00    +0.000 C 
ATOM      3  O   UNL     1       2.983   6.661  18.890  0.00  0.00    +0.000 OA
ATOM      4  N   UNL     1       3.210   4.923  20.354  0.00  0.00    +0.000 N 
ATOM      5  H   UNL     1       3.897   4.404  20.876  0.00  0.00    +0.000 HD
BRANCH   4   6
ATOM      6  C   UNL     1       1.768   4.600  20.449  0.00  0.00    +0.000 C 
ATOM      7  C   UNL     1       1.181   3.844  19.226  0.00  0.00    +0.000 C 
ATOM      8  N   UNL     1       0.630   2.862  20.172  0.00  0.00    +0.000 N 
ATOM      9  C   UNL     1       1.423   3.280  21.198  0.00  0.00    +0.000 C 
ATOM     10  O   UNL     1       1.752   2.715  22.211  0.00  0.00    +0.000 OA
ATOM     11  H   UNL     1       0.515   1.866  20.047  0.00  0.00    +0.000 HD
ENDBRANCH   4   6
ENDBRANCH   1   2
BRANCH   1  12
ATOM     12  C   UNL     1       5.469   4.415  18.932  0.00  0.00    +0.000 C 
BRANCH  12  16
ATOM     13  C   UNL     1       6.297   4.205  14.675  0.00  0.00    +0.000 A 
ATOM     14  C   UNL     1       5.037   3.869  15.184  0.00  0.00    +0.000 A 
ATOM     15  C   UNL     1       4.777   3.949  16.554  0.00  0.00    +0.000 A 
ATOM     16  C   UNL     1       5.777   4.343  17.453  0.00  0.00    +0.000 A 
ATOM     17  C   UNL     1       7.044   4.662  16.948  0.00  0.00    +0.000 A 
ATOM     18  C   UNL     1       7.301   4.592  15.573  0.00  0.00    +0.000 A 
BRANCH  13  19
ATOM     19  C   UNL     1       6.571   4.130  13.191  0.00  0.00    +0.000 C 
BRANCH  19  21
ATOM     20  C   UNL     1       5.861   2.250  11.659  0.00  0.00    +0.000 C 
ATOM     21  C   UNL     1       5.417   3.495  12.410  0.00  0.00    +0.000 C 
ENDBRANCH  19  21
ENDBRANCH  13  19
ENDBRANCH  12  16
ENDBRANCH   1  12
TORSDOF 6
ENDMDL
MODEL 4
REMARK VINA RESULT:      -6.9      2.644      3.886
REMARK  Name = 
REMARK  7 active torsions:
REMARK  status: ('A' for Active; 'I' for Inactive)
REMARK    1  A    between atoms: C_1  and  C_2
REMARK    2  A    between atoms: C_2  and  C_3
REMARK    3  A    between atoms: C_3  and  C_4
REMARK    4  A    between atoms: C_7  and  C_8
REMARK    5  A    between atoms: C_8  and  O_9
REMARK    6  A    between atoms: O_9  and  C_10
REMARK    7  A    between atoms: N_12  and  C_13
REMARK                            x       y       z     vdW  Elec       q    Type
REMARK                         _______ _______ _______ _____ _____    ______ ____
ROOT
ATOM      1  O   UNL     1       3.793   3.253  18.410  0.00  0.00    +0.000 OA
ENDROOT
BRANCH   1   2
ATOM      2  C   UNL     1       5.002   3.841  18.253  0.00  0.00    +0.000 C 
ATOM      3  O   UNL     1       5.765   4.168  19.152  0.00  0.00    +0.000 OA
ATOM      4  N   UNL     1       5.272   3.993  16.929  0.00  0.00    +0.000 N 
ATOM      5  H   UNL     1       4.514   3.811  16.291  0.00  0.00    +0.000 HD
BRANCH   4   6
ATOM      6  C   UNL     1       6.636   4.291  16.436  0.00  0.00    +0.000 C 
ATOM      7  C   UNL     1       6.795   4.273  14.890  0.00  0.00    +0.000 C 
ATOM      8  N   UNL     1       7.426   5.597  14.999  0.00  0.00    +0.000 N 
ATOM      9  C   UNL     1       6.975   5.801  16.269  0.00  0.00    +0.000 C 
ATOM     10  O   UNL     1       6.835   6.822  16.893  0.00  0.00    +0.000 OA
ATOM     11  H   UNL     1       7.372   6.374  14.355  0.00  0.00    +0.000 HD
ENDBRANCH   4   6
ENDBRANCH   1   2
BRANCH   1  12
ATOM     12  C   UNL     1       2.677   4.005  17.906  0.00  0.00    +0.000 C 
BRANCH  12  16
ATOM     13  C   UNL     1       1.737   7.449  20.378  0.00  0.00    +0.000 A 
ATOM     14  C   UNL     1       1.570   6.145  20.860  0.00  0.00    +0.000 A 
ATOM     15  C   UNL     1       1.884   5.044  20.061  0.00  0.00    +0.000 A 
ATOM     16  C   UNL     1       2.350   5.216  18.750  0.00  0.00    +0.000 A 
ATOM     17  C   UNL     1       2.501   6.519  18.259  0.00  0.00    +0.000 A 
ATOM     18  C   UNL     1       2.196   7.624  19.065  0.00  0.00    +0.000 A 
BRANCH  13  19
ATOM     19  C   UNL     1       1.410   8.639  21.249  0.00  0.00    +0.000 C 
BRANCH  19  21
ATOM     20  C   UNL     1      -0.338   9.405  22.907  0.00  0.00    +0.000 C 
ATOM     21  C   UNL     1      -0.086   8.747  21.560  0.00  0.00    +0.000 C 
ENDBRANCH  19  21
ENDBRANCH  13  19
ENDBRANCH  12  16
ENDBRANCH   1  12
TORSDOF 6
ENDMDL
MODEL 5
REMARK VINA RESULT:      -6.8      4.124      7.390
REMARK  Name = 
REMARK  7 active torsions:
REMARK  status: ('A' for Active; 'I' for Inactive)
REMARK    1  A    between atoms: C_1  and  C_2
REMARK    2  A    between atoms: C_2  and  C_3
REMARK    3  A    between atoms: C_3  and  C_4
REMARK    4  A    between atoms: C_7  and  C_8
REMARK    5  A    between atoms: C_8  and  O_9
REMARK    6  A    between atoms: O_9  and  C_10
REMARK    7  A    between atoms: N_12  and  C_13
REMARK                            x       y       z     vdW  Elec       q    Type
REMARK                         _______ _______ _______ _____ _____    ______ ____
ROOT
ATOM      1  O   UNL     1       5.637   3.755  19.585  0.00  0.00    +0.000 OA
ENDROOT
BRANCH   1   2
ATOM      2  C   UNL     1       4.744   2.762  19.806  0.00  0.00    +0.000 C 
ATOM      3  O   UNL     1       4.963   1.718  20.406  0.00  0.00    +0.000 OA
ATOM      4  N   UNL     1       3.535   3.105  19.285  0.00  0.00    +0.000 N 
ATOM      5  H   UNL     1       3.514   3.924  18.700  0.00  0.00    +0.000 HD
BRANCH   4   6
ATOM      6  C   UNL     1       2.292   2.389  19.652  0.00  0.00    +0.000 C 
ATOM      7  C   UNL     1       1.629   2.860  20.977  0.00  0.00    +0.000 C 
ATOM      8  N   UNL     1       0.369   2.989  20.230  0.00  0.00    +0.000 N 
ATOM      9  C   UNL     1       0.984   2.945  19.015  0.00  0.00    +0.000 C 
ATOM     10  O   UNL     1       0.607   3.319  17.934  0.00  0.00    +0.000 OA
ATOM     11  H   UNL     1      -0.368   3.670  20.355  0.00  0.00    +0.000 HD
ENDBRANCH   4   6
ENDBRANCH   1   2
BRANCH   1  12
ATOM     12  C   UNL     1       5.669   4.259  18.240  0.00  0.00    +0.000 C 
BRANCH  12  16
ATOM     13  C   UNL     1       7.740   8.058  17.868  0.00  0.00    +0.000 A 
ATOM     14  C   UNL     1       6.555   7.808  17.166  0.00  0.00    +0.000 A 
ATOM     15  C   UNL     1       5.891   6.587  17.299  0.00  0.00    +0.000 A 
ATOM     16  C   UNL     1       6.406   5.574  18.119  0.00  0.00    +0.000 A 
ATOM     17  C   UNL     1       7.601   5.814  18.809  0.00  0.00    +0.000 A 
ATOM     18  C   UNL     1       8.262   7.043  18.683  0.00  0.00    +0.000 A 
BRANCH  13  19
ATOM     19  C   UNL     1       8.449   9.385  17.733  0.00  0.00    +0.000 C 
BRANCH  19  21
ATOM     20  C   UNL     1       9.865  11.141  18.874  0.00  0.00    +0.000 C 
ATOM     21  C   UNL     1       9.081   9.851  19.049  0.00  0.00    +0.000 C 
ENDBRANCH  19  21
ENDBRANCH  13  19
ENDBRANCH  12  16
ENDBRANCH   1  12
TORSDOF 6
ENDMDL
MODEL 6
REMARK VINA RESULT:      -6.8      3.339      7.298
REMARK  Name = 
REMARK  7 active torsions:
REMARK  status: ('A' for Active; 'I' for Inactive)
REMARK    1  A    between atoms: C_1  and  C_2
REMARK    2  A    between atoms: C_2  and  C_3
REMARK    3  A    between atoms: C_3  and  C_4
REMARK    4  A    between atoms: C_7  and  C_8
REMARK    5  A    between atoms: C_8  and  O_9
REMARK    6  A    between atoms: O_9  and  C_10
REMARK    7  A    between atoms: N_12  and  C_13
REMARK                            x       y       z     vdW  Elec       q    Type
REMARK                         _______ _______ _______ _____ _____    ______ ____
ROOT
ATOM      1  O   UNL     1       5.638   3.959  18.776  0.00  0.00    +0.000 OA
ENDROOT
BRANCH   1   2
ATOM      2  C   UNL     1       4.595   4.604  19.349  0.00  0.00    +0.000 C 
ATOM      3  O   UNL     1       4.480   5.815  19.477  0.00  0.00    +0.000 OA
ATOM      4  N   UNL     1       3.656   3.701  19.742  0.00  0.00    +0.000 N 
ATOM      5  H   UNL     1       3.922   2.731  19.707  0.00  0.00    +0.000 HD
BRANCH   4   6
ATOM      6  C   UNL     1       2.275   4.107  20.090  0.00  0.00    +0.000 C 
ATOM      7  C   UNL     1       1.175   3.595  19.120  0.00  0.00    +0.000 C 
ATOM      8  N   UNL     1       0.454   3.091  20.298  0.00  0.00    +0.000 N 
ATOM      9  C   UNL     1       1.543   3.190  21.112  0.00  0.00    +0.000 C 
ATOM     10  O   UNL     1       1.787   2.645  22.158  0.00  0.00    +0.000 OA
ATOM     11  H   UNL     1      -0.114   2.259  20.379  0.00  0.00    +0.000 HD
ENDBRANCH   4   6
ENDBRANCH   1   2
BRANCH   1  12
ATOM     12  C   UNL     1       6.525   4.792  18.011  0.00  0.00    +0.000 C 
BRANCH  12  16
ATOM     13  C   UNL     1       6.361   4.050  13.736  0.00  0.00    +0.000 A 
ATOM     14  C   UNL     1       7.379   4.830  14.296  0.00  0.00    +0.000 A 
ATOM     15  C   UNL     1       7.429   5.055  15.673  0.00  0.00    +0.000 A 
ATOM     16  C   UNL     1       6.449   4.527  16.524  0.00  0.00    +0.000 A 
ATOM     17  C   UNL     1       5.419   3.761  15.964  0.00  0.00    +0.000 A 
ATOM     18  C   UNL     1       5.374   3.527  14.583  0.00  0.00    +0.000 A 
BRANCH  13  19
ATOM     19  C   UNL     1       6.316   3.797  12.247  0.00  0.00    +0.000 C 
BRANCH  19  21
ATOM     20  C   UNL     1       6.357   1.503  11.186  0.00  0.00    +0.000 C 
ATOM     21  C   UNL     1       5.505   2.548  11.887  0.00  0.00    +0.000 C 
ENDBRANCH  19  21
ENDBRANCH  13  19
ENDBRANCH  12  16
ENDBRANCH   1  12
TORSDOF 6
ENDMDL
MODEL 7
REMARK VINA RESULT:      -6.8      3.461      7.218
REMARK  Name = 
REMARK  7 active torsions:
REMARK  status: ('A' for Active; 'I' for Inactive)
REMARK    1  A    between atoms: C_1  and  C_2
REMARK    2  A    between atoms: C_2  and  C_3
REMARK    3  A    between atoms: C_3  and  C_4
REMARK    4  A    between atoms: C_7  and  C_8
REMARK    5  A    between atoms: C_8  and  O_9
REMARK    6  A    between atoms: O_9  and  C_10
REMARK    7  A    between atoms: N_12  and  C_13
REMARK                            x       y       z     vdW  Elec       q    Type
REMARK                         _______ _______ _______ _____ _____    ______ ____
ROOT
ATOM      1  O   UNL     1       3.797   6.442  18.490  0.00  0.00    +0.000 OA
ENDROOT
BRANCH   1   2
ATOM      2  C   UNL     1       2.926   6.339  19.521  0.00  0.00    +0.000 C 
ATOM      3  O   UNL     1       2.144   7.204  19.891  0.00  0.00    +0.000 OA
ATOM      4  N   UNL     1       3.018   5.102  20.080  0.00  0.00    +0.000 N 
ATOM      5  H   UNL     1       3.788   4.528  19.777  0.00  0.00    +0.000 HD
BRANCH   4   6
ATOM      6  C   UNL     1       1.980   4.576  20.994  0.00  0.00    +0.000 C 
ATOM      7  C   UNL     1       0.739   3.957  20.292  0.00  0.00    +0.000 C 
ATOM      8  N   UNL     1       0.929   2.768  21.136  0.00  0.00    +0.000 N 
ATOM      9  C   UNL     1       2.198   3.116  21.489  0.00  0.00    +0.000 C 
ATOM     10  O   UNL     1       3.102   2.443  21.915  0.00  0.00    +0.000 OA
ATOM     11  H   UNL     1       0.758   1.799  20.904  0.00  0.00    +0.000 HD
ENDBRANCH   4   6
ENDBRANCH   1   2
BRANCH   1  12
ATOM     12  C   UNL     1       4.826   5.440  18.457  0.00  0.00    +0.000 C 
BRANCH  12  16
ATOM     13  C   UNL     1       6.023   4.338  14.432  0.00  0.00    +0.000 A 
ATOM     14  C   UNL     1       5.634   3.367  15.362  0.00  0.00    +0.000 A 
ATOM     15  C   UNL     1       5.242   3.732  16.651  0.00  0.00    +0.000 A 
ATOM     16  C   UNL     1       5.251   5.075  17.053  0.00  0.00    +0.000 A 
ATOM     17  C   UNL     1       5.657   6.047  16.130  0.00  0.00    +0.000 A 
ATOM     18  C   UNL     1       6.041   5.682  14.833  0.00  0.00    +0.000 A 
BRANCH  13  19
ATOM     19  C   UNL     1       6.434   3.943  13.032  0.00  0.00    +0.000 C 
BRANCH  19  21
ATOM     20  C   UNL     1       5.701   2.066  11.506  0.00  0.00    +0.000 C 
ATOM     21  C   UNL     1       5.280   3.335  12.229  0.00  0.00    +0.000 C 
ENDBRANCH  19  21
ENDBRANCH  13  19
ENDBRANCH  12  16
ENDBRANCH   1  12
TORSDOF 6
ENDMDL
MODEL 8
REMARK VINA RESULT:      -6.8      1.235      1.736
REMARK  Name = 
REMARK  7 active torsions:
REMARK  status: ('A' for Active; 'I' for Inactive)
REMARK    1  A    between atoms: C_1  and  C_2
REMARK    2  A    between atoms: C_2  and  C_3
REMARK    3  A    between atoms: C_3  and  C_4
REMARK    4  A    between atoms: C_7  and  C_8
REMARK    5  A    between atoms: C_8  and  O_9
REMARK    6  A    between atoms: O_9  and  C_10
REMARK    7  A    between atoms: N_12  and  C_13
REMARK                            x       y       z     vdW  Elec       q    Type
REMARK                         _______ _______ _______ _____ _____    ______ ____
ROOT
ATOM      1  O   UNL     1       5.257   7.315  17.789  0.00  0.00    +0.000 OA
ENDROOT
BRANCH   1   2
ATOM      2  C   UNL     1       6.047   6.229  17.619  0.00  0.00    +0.000 C 
ATOM      3  O   UNL     1       6.422   5.469  18.501  0.00  0.00    +0.000 OA
ATOM      4  N   UNL     1       6.345   6.078  16.301  0.00  0.00    +0.000 N 
ATOM      5  H   UNL     1       6.092   6.840  15.692  0.00  0.00    +0.000 HD
BRANCH   4   6
ATOM      6  C   UNL     1       6.902   4.817  15.762  0.00  0.00    +0.000 C 
ATOM      7  C   UNL     1       5.856   3.702  15.484  0.00  0.00    +0.000 C 
ATOM      8  N   UNL     1       6.432   3.580  14.137  0.00  0.00    +0.000 N 
ATOM      9  C   UNL     1       7.090   4.770  14.218  0.00  0.00    +0.000 C 
ATOM     10  O   UNL     1       7.520   5.485  13.348  0.00  0.00    +0.000 OA
ATOM     11  H   UNL     1       5.961   3.365  13.269  0.00  0.00    +0.000 HD
ENDBRANCH   4   6
ENDBRANCH   1   2
BRANCH   1  12
ATOM     12  C   UNL     1       3.906   7.167  17.322  0.00  0.00    +0.000 C 
BRANCH  12  16
ATOM     13  C   UNL     1       1.617   4.301  19.647  0.00  0.00    +0.000 A 
ATOM     14  C   UNL     1       1.995   5.535  20.189  0.00  0.00    +0.000 A 
ATOM     15  C   UNL     1       2.723   6.454  19.431  0.00  0.00    +0.000 A 
ATOM     16  C   UNL     1       3.113   6.155  18.119  0.00  0.00    +0.000 A 
ATOM     17  C   UNL     1       2.752   4.913  17.580  0.00  0.00    +0.000 A 
ATOM     18  C   UNL     1       2.013   3.995  18.337  0.00  0.00    +0.000 A 
BRANCH  13  19
ATOM     19  C   UNL     1       0.818   3.313  20.465  0.00  0.00    +0.000 C 
BRANCH  19  21
ATOM     20  C   UNL     1       3.010   2.399  21.331  0.00  0.00    +0.000 C 
ATOM     21  C   UNL     1       1.588   2.802  21.687  0.00  0.00    +0.000 C 
ENDBRANCH  19  21
ENDBRANCH  13  19
ENDBRANCH  12  16
ENDBRANCH   1  12
TORSDOF 6
ENDMDL
MODEL 9
REMARK VINA RESULT:      -6.7      3.241      7.269
REMARK  Name = 
REMARK  7 active torsions:
REMARK  status: ('A' for Active; 'I' for Inactive)
REMARK    1  A    between atoms: C_1  and  C_2
REMARK    2  A    between atoms: C_2  and  C_3
REMARK    3  A    between atoms: C_3  and  C_4
REMARK    4  A    between atoms: C_7  and  C_8
REMARK    5  A    between atoms: C_8  and  O_9
REMARK    6  A    between atoms: O_9  and  C_10
REMARK    7  A    between atoms: N_12  and  C_13
REMARK                            x       y       z     vdW  Elec       q    Type
REMARK                         _______ _______ _______ _____ _____    ______ ____
ROOT
ATOM      1  O   UNL     1       5.368   4.739  18.391  0.00  0.00    +0.000 OA
ENDROOT
BRANCH   1   2
ATOM      2  C   UNL     1       4.229   5.262  18.902  0.00  0.00    +0.000 C 
ATOM      3  O   UNL     1       3.670   6.281  18.519  0.00  0.00    +0.000 OA
ATOM      4  N   UNL     1       3.764   4.465  19.901  0.00  0.00    +0.000 N 
ATOM      5  H   UNL     1       4.379   3.732  20.215  0.00  0.00    +0.000 HD
BRANCH   4   6
ATOM      6  C   UNL     1       2.383   4.584  20.421  0.00  0.00    +0.000 C 
ATOM      7  C   UNL     1       1.279   4.000  19.495  0.00  0.00    +0.000 C 
ATOM      8  N   UNL     1       0.783   3.251  20.659  0.00  0.00    +0.000 N 
ATOM      9  C   UNL     1       1.924   3.445  21.378  0.00  0.00    +0.000 C 
ATOM     10  O   UNL     1       2.367   2.837  22.319  0.00  0.00    +0.000 OA
ATOM     11  H   UNL     1       0.368   2.330  20.682  0.00  0.00    +0.000 HD
ENDBRANCH   4   6
ENDBRANCH   1   2
BRANCH   1  12
ATOM     12  C   UNL     1       6.099   5.609  17.511  0.00  0.00    +0.000 C 
BRANCH  12  16
ATOM     13  C   UNL     1       6.368   4.036  13.473  0.00  0.00    +0.000 A 
ATOM     14  C   UNL     1       5.313   3.677  14.320  0.00  0.00    +0.000 A 
ATOM     15  C   UNL     1       5.230   4.195  15.614  0.00  0.00    +0.000 A 
ATOM     16  C   UNL     1       6.212   5.067  16.104  0.00  0.00    +0.000 A 
ATOM     17  C   UNL     1       7.278   5.414  15.265  0.00  0.00    +0.000 A 
ATOM     18  C   UNL     1       7.356   4.902  13.963  0.00  0.00    +0.000 A 
BRANCH  13  19
ATOM     19  C   UNL     1       6.449   3.485  12.069  0.00  0.00    +0.000 C 
BRANCH  19  21
ATOM     20  C   UNL     1       4.108   3.345  11.125  0.00  0.00    +0.000 C 
ATOM     21  C   UNL     1       5.269   2.570  11.727  0.00  0.00    +0.000 C 
ENDBRANCH  19  21
ENDBRANCH  13  19
ENDBRANCH  12  16
ENDBRANCH   1  12
TORSDOF 6
ENDMDL
