MODEL 1
REMARK VINA RESULT:      -7.0      0.000      0.000
REMARK  Name = 
REMARK  14 active torsions:
REMARK  status: ('A' for Active; 'I' for Inactive)
REMARK    1  A    between atoms: C_1  and  C_2
REMARK    2  A    between atoms: C_2  and  N_3
REMARK    3  A    between atoms: N_3  and  C_4
REMARK    4  A    between atoms: N_3  and  C_6
REMARK    5  A    between atoms: C_4  and  C_5
REMARK    6  A    between atoms: C_6  and  C_7
REMARK    7  A    between atoms: C_7  and  N_8
REMARK    8  A    between atoms: N_8  and  C_9
REMARK    9  A    between atoms: N_16  and  C_17
REMARK   10  A    between atoms: C_17  and  C_18
REMARK   11  A    between atoms: C_18  and  N_19
REMARK   12  A    between atoms: N_19  and  C_20
REMARK   13  A    between atoms: C_20  and  C_21
REMARK   14  A    between atoms: C_21  and  O_22
REMARK                            x       y       z     vdW  Elec       q    Type
REMARK                         _______ _______ _______ _____ _____    ______ ____
ROOT
ATOM      1  C   UNL     1       4.985   5.239  17.337  0.00  0.00    +0.000 A 
ATOM      2  C   UNL     1       5.224   4.040  18.060  0.00  0.00    +0.000 A 
ATOM      3  C   UNL     1       4.534   3.663  19.225  0.00  0.00    +0.000 A 
ATOM      4  C   UNL     1       3.594   4.570  19.700  0.00  0.00    +0.000 A 
ATOM      5  C   UNL     1       3.367   5.758  19.042  0.00  0.00    +0.000 A 
ATOM      6  C   UNL     1       2.411   6.453  19.787  0.00  0.00    +0.000 A 
ATOM      7  N   UNL     1       2.012   5.759  20.859  0.00  0.00    +0.000 NA
ATOM      8  N   UNL     1       2.735   4.601  20.770  0.00  0.00    +0.000 N 
ATOM      9  C   UNL     1       2.006   7.775  19.352  0.00  0.00    +0.000 A 
ATOM     10  C   UNL     1       1.079   8.541  20.063  0.00  0.00    +0.000 A 
ATOM     11  C   UNL     1       0.745   9.822  19.612  0.00  0.00    +0.000 A 
ATOM     12  C   UNL     1       1.335  10.335  18.451  0.00  0.00    +0.000 A 
ATOM     13  C   UNL     1       2.252   9.573  17.726  0.00  0.00    +0.000 A 
ATOM     14  C   UNL     1       2.590   8.281  18.158  0.00  0.00    +0.000 A 
ATOM     15  C   UNL     1       3.574   7.454  17.331  0.00  0.00    +0.000 C 
ATOM     16  O   UNL     1       3.948   7.850  16.231  0.00  0.00    +0.000 OA
ATOM     17  C   UNL     1       4.023   6.124  17.866  0.00  0.00    +0.000 A 
ENDROOT
BRANCH   1  18
ATOM     18  N   UNL     1       5.771   5.575  16.226  0.00  0.00    +0.000 N 
ATOM     19  H   UNL     1       6.202   6.501  16.316  0.00  0.00    +0.000 HD
BRANCH  18  20
ATOM     20  C   UNL     1       5.331   5.168  14.891  0.00  0.00    +0.000 C 
BRANCH  20  21
ATOM     21  C   UNL     1       6.300   4.193  14.206  0.00  0.00    +0.000 C 
BRANCH  21  22
ATOM     22  N   UNL     1       6.211   4.168  12.722  0.00  0.00    +0.000 NA
BRANCH  22  24
ATOM     23  C   UNL     1       8.254   5.674  12.697  0.00  0.00    +0.000 C 
ATOM     24  C   UNL     1       7.552   4.428  12.166  0.00  0.00    +0.000 C 
ENDBRANCH  22  24
BRANCH  22  25
ATOM     25  C   UNL     1       5.575   2.952  12.181  0.00  0.00    +0.000 C 
ATOM     26  C   UNL     1       4.285   3.166  11.394  0.00  0.00    +0.000 C 
ENDBRANCH  22  25
ENDBRANCH  21  22
ENDBRANCH  20  21
ENDBRANCH  18  20
ENDBRANCH   1  18
BRANCH   8  27
ATOM     27  C   UNL     1       2.527   3.547  21.754  0.00  0.00    +0.000 C 
BRANCH  27  28
ATOM     28  C   UNL     1       1.602   2.450  21.218  0.00  0.00    +0.000 C 
BRANCH  28  29
ATOM     29  N   UNL     1       0.428   2.982  20.495  0.00  0.00    +0.000 NA
ATOM     30  H   UNL     1       0.331   3.977  20.702  0.00  0.00    +0.000 HD
BRANCH  29  31
ATOM     31  C   UNL     1       0.643   2.829  19.040  0.00  0.00    +0.000 C 
BRANCH  31  32
ATOM     32  C   UNL     1       1.596   1.677  18.704  0.00  0.00    +0.000 C 
BRANCH  32  33
ATOM     33  O   UNL     1       2.170   1.862  17.414  0.00  0.00    +0.000 OA
ATOM     34  H   UNL     1       3.129   1.927  17.558  0.00  0.00    +0.000 HD
ENDBRANCH  32  33
ENDBRANCH  31  32
ENDBRANCH  29  31
ENDBRANCH  28  29
ENDBRANCH  27  28
ENDBRANCH   8  27
TORSDOF 12
ENDMDL
MODEL 2
REMARK VINA RESULT:      -6.8      2.224      5.406
REMARK  Name = 
REMARK  14 active torsions:
REMARK  status: ('A' for Active; 'I' for Inactive)
REMARK    1  A    between atoms: C_1  and  C_2
REMARK    2  A    between atoms: C_2  and  N_3
REMARK    3  A    between atoms: N_3  and  C_4
REMARK    4  A    between atoms: N_3  and  C_6
REMARK    5  A    between atoms: C_4  and  C_5
REMARK    6  A    between atoms: C_6  and  C_7
REMARK    7  A    between atoms: C_7  and  N_8
REMARK    8  A    between atoms: N_8  and  C_9
REMARK    9  A    between atoms: N_16  and  C_17
REMARK   10  A    between atoms: C_17  and  C_18
REMARK   11  A    between atoms: C_18  and  N_19
REMARK   12  A    between atoms: N_19  and  C_20
REMARK   13  A    between atoms: C_20  and  C_21
REMARK   14  A    between atoms: C_21  and  O_22
REMARK                            x       y       z     vdW  Elec       q    Type
REMARK                         _______ _______ _______ _____ _____    ______ ____
ROOT
ATOM      1  C   UNL     1       5.635   5.411  16.812  0.00  0.00    +0.000 A 
ATOM      2  C   UNL     1       5.463   6.655  16.148  0.00  0.00    +0.000 A 
ATOM      3  C   UNL     1       4.504   7.619  16.502  0.00  0.00    +0.000 A 
ATOM      4  C   UNL     1       3.652   7.281  17.547  0.00  0.00    +0.000 A 
ATOM      5  C   UNL     1       3.771   6.067  18.186  0.00  0.00    +0.000 A 
ATOM      6  C   UNL     1       2.756   6.016  19.144  0.00  0.00    +0.000 A 
ATOM      7  N   UNL     1       2.024   7.137  19.156  0.00  0.00    +0.000 NA
ATOM      8  N   UNL     1       2.609   7.903  18.185  0.00  0.00    +0.000 N 
ATOM      9  C   UNL     1       2.605   4.819  19.948  0.00  0.00    +0.000 A 
ATOM     10  C   UNL     1       1.595   4.686  20.903  0.00  0.00    +0.000 A 
ATOM     11  C   UNL     1       1.480   3.498  21.631  0.00  0.00    +0.000 A 
ATOM     12  C   UNL     1       2.375   2.446  21.406  0.00  0.00    +0.000 A 
ATOM     13  C   UNL     1       3.397   2.573  20.464  0.00  0.00    +0.000 A 
ATOM     14  C   UNL     1       3.534   3.763  19.732  0.00  0.00    +0.000 A 
ATOM     15  C   UNL     1       4.678   3.891  18.728  0.00  0.00    +0.000 C 
ATOM     16  O   UNL     1       5.551   3.031  18.667  0.00  0.00    +0.000 OA
ATOM     17  C   UNL     1       4.742   5.118  17.863  0.00  0.00    +0.000 A 
ENDROOT
BRANCH   1  18
ATOM     18  N   UNL     1       6.567   4.473  16.346  0.00  0.00    +0.000 N 
ATOM     19  H   UNL     1       7.512   4.863  16.269  0.00  0.00    +0.000 HD
BRANCH  18  20
ATOM     20  C   UNL     1       6.156   3.506  15.327  0.00  0.00    +0.000 C 
BRANCH  20  21
ATOM     21  C   UNL     1       5.817   4.156  13.977  0.00  0.00    +0.000 C 
BRANCH  21  22
ATOM     22  N   UNL     1       6.627   3.667  12.830  0.00  0.00    +0.000 NA
BRANCH  22  24
ATOM     23  C   UNL     1       4.408   3.362  11.636  0.00  0.00    +0.000 C 
ATOM     24  C   UNL     1       5.778   2.797  11.995  0.00  0.00    +0.000 C 
ENDBRANCH  22  24
BRANCH  22  25
ATOM     25  C   UNL     1       7.299   4.738  12.072  0.00  0.00    +0.000 C 
ATOM     26  C   UNL     1       8.280   5.601  12.860  0.00  0.00    +0.000 C 
ENDBRANCH  22  25
ENDBRANCH  21  22
ENDBRANCH  20  21
ENDBRANCH  18  20
ENDBRANCH   1  18
BRANCH   8  27
ATOM     27  C   UNL     1       2.113   9.251  17.937  0.00  0.00    +0.000 C 
BRANCH  27  28
ATOM     28  C   UNL     1       1.005   9.633  18.922  0.00  0.00    +0.000 C 
BRANCH  28  29
ATOM     29  N   UNL     1      -0.069  10.440  18.304  0.00  0.00    +0.000 NA
ATOM     30  H   UNL     1      -0.947   9.922  18.355  0.00  0.00    +0.000 HD
BRANCH  29  31
ATOM     31  C   UNL     1      -0.227  11.700  19.061  0.00  0.00    +0.000 C 
BRANCH  31  32
ATOM     32  C   UNL     1      -0.728  12.854  18.187  0.00  0.00    +0.000 C 
BRANCH  32  33
ATOM     33  O   UNL     1      -1.548  12.364  17.131  0.00  0.00    +0.000 OA
ATOM     34  H   UNL     1      -1.860  11.490  17.422  0.00  0.00    +0.000 HD
ENDBRANCH  32  33
ENDBRANCH  31  32
ENDBRANCH  29  31
ENDBRANCH  28  29
ENDBRANCH  27  28
ENDBRANCH   8  27
TORSDOF 12
ENDMDL
MODEL 3
REMARK VINA RESULT:      -6.8      1.499      2.318
REMARK  Name = 
REMARK  14 active torsions:
REMARK  status: ('A' for Active; 'I' for Inactive)
REMARK    1  A    between atoms: C_1  and  C_2
REMARK    2  A    between atoms: C_2  and  N_3
REMARK    3  A    between atoms: N_3  and  C_4
REMARK    4  A    between atoms: N_3  and  C_6
REMARK    5  A    between atoms: C_4  and  C_5
REMARK    6  A    between atoms: C_6  and  C_7
REMARK    7  A    between atoms: C_7  and  N_8
REMARK    8  A    between atoms: N_8  and  C_9
REMARK    9  A    between atoms: N_16  and  C_17
REMARK   10  A    between atoms: C_17  and  C_18
REMARK   11  A    between atoms: C_18  and  N_19
REMARK   12  A    between atoms: N_19  and  C_20
REMARK   13  A    between atoms: C_20  and  C_21
REMARK   14  A    between atoms: C_21  and  O_22
REMARK                            x       y       z     vdW  Elec       q    Type
REMARK                         _______ _______ _______ _____ _____    ______ ____
ROOT
ATOM      1  C   UNL     1       3.851   6.585  17.534  0.00  0.00    +0.000 A 
ATOM      2  C   UNL     1       4.309   5.297  17.924  0.00  0.00    +0.000 A 
ATOM      3  C   UNL     1       3.852   4.601  19.056  0.00  0.00    +0.000 A 
ATOM      4  C   UNL     1       2.927   5.265  19.852  0.00  0.00    +0.000 A 
ATOM      5  C   UNL     1       2.492   6.529  19.520  0.00  0.00    +0.000 A 
ATOM      6  C   UNL     1       1.613   6.929  20.528  0.00  0.00    +0.000 A 
ATOM      7  N   UNL     1       1.455   5.980  21.459  0.00  0.00    +0.000 NA
ATOM      8  N   UNL     1       2.252   4.964  21.008  0.00  0.00    +0.000 N 
ATOM      9  C   UNL     1       1.028   8.254  20.467  0.00  0.00    +0.000 A 
ATOM     10  C   UNL     1       0.166   8.733  21.455  0.00  0.00    +0.000 A 
ATOM     11  C   UNL     1      -0.349  10.031  21.360  0.00  0.00    +0.000 A 
ATOM     12  C   UNL     1      -0.001  10.846  20.276  0.00  0.00    +0.000 A 
ATOM     13  C   UNL     1       0.849  10.373  19.276  0.00  0.00    +0.000 A 
ATOM     14  C   UNL     1       1.365   9.069  19.351  0.00  0.00    +0.000 A 
ATOM     15  C   UNL     1       2.270   8.562  18.229  0.00  0.00    +0.000 C 
ATOM     16  O   UNL     1       2.425   9.225  17.208  0.00  0.00    +0.000 OA
ATOM     17  C   UNL     1       2.915   7.214  18.379  0.00  0.00    +0.000 A 
ENDROOT
BRANCH   1  18
ATOM     18  N   UNL     1       4.415   7.241  16.431  0.00  0.00    +0.000 N 
ATOM     19  H   UNL     1       3.752   7.872  15.969  0.00  0.00    +0.000 HD
BRANCH  18  20
ATOM     20  C   UNL     1       5.359   6.520  15.578  0.00  0.00    +0.000 C 
BRANCH  20  21
ATOM     21  C   UNL     1       6.737   6.324  16.228  0.00  0.00    +0.000 C 
BRANCH  21  22
ATOM     22  N   UNL     1       7.286   4.947  16.121  0.00  0.00    +0.000 NA
BRANCH  22  24
ATOM     23  C   UNL     1       7.709   5.585  18.541  0.00  0.00    +0.000 C 
ATOM     24  C   UNL     1       7.716   4.508  17.462  0.00  0.00    +0.000 C 
ENDBRANCH  22  24
BRANCH  22  25
ATOM     25  C   UNL     1       6.385   3.993  15.449  0.00  0.00    +0.000 C 
ATOM     26  C   UNL     1       6.495   3.926  13.929  0.00  0.00    +0.000 C 
ENDBRANCH  22  25
ENDBRANCH  21  22
ENDBRANCH  20  21
ENDBRANCH  18  20
ENDBRANCH   1  18
BRANCH   8  27
ATOM     27  C   UNL     1       2.300   3.708  21.745  0.00  0.00    +0.000 C 
BRANCH  27  28
ATOM     28  C   UNL     1       1.312   2.684  21.178  0.00  0.00    +0.000 C 
BRANCH  28  29
ATOM     29  N   UNL     1       0.552   3.192  20.016  0.00  0.00    +0.000 NA
ATOM     30  H   UNL     1       0.988   4.053  19.682  0.00  0.00    +0.000 HD
BRANCH  29  31
ATOM     31  C   UNL     1       0.604   2.192  18.928  0.00  0.00    +0.000 C 
BRANCH  31  32
ATOM     32  C   UNL     1       1.882   2.297  18.090  0.00  0.00    +0.000 C 
BRANCH  32  33
ATOM     33  O   UNL     1       2.807   1.278  18.458  0.00  0.00    +0.000 OA
ATOM     34  H   UNL     1       3.347   1.113  17.666  0.00  0.00    +0.000 HD
ENDBRANCH  32  33
ENDBRANCH  31  32
ENDBRANCH  29  31
ENDBRANCH  28  29
ENDBRANCH  27  28
ENDBRANCH   8  27
TORSDOF 12
ENDMDL
MODEL 4
REMARK VINA RESULT:      -6.7      2.740      7.675
REMARK  Name = 
REMARK  14 active torsions:
REMARK  status: ('A' for Active; 'I' for Inactive)
REMARK    1  A    between atoms: C_1  and  C_2
REMARK    2  A    between atoms: C_2  and  N_3
REMARK    3  A    between atoms: N_3  and  C_4
REMARK    4  A    between atoms: N_3  and  C_6
REMARK    5  A    between atoms: C_4  and  C_5
REMARK    6  A    between atoms: C_6  and  C_7
REMARK    7  A    between atoms: C_7  and  N_8
REMARK    8  A    between atoms: N_8  and  C_9
REMARK    9  A    between atoms: N_16  and  C_17
REMARK   10  A    between atoms: C_17  and  C_18
REMARK   11  A    between atoms: C_18  and  N_19
REMARK   12  A    between atoms: N_19  and  C_20
REMARK   13  A    between atoms: C_20  and  C_21
REMARK   14  A    between atoms: C_21  and  O_22
REMARK                            x       y       z     vdW  Elec       q    Type
REMARK                         _______ _______ _______ _____ _____    ______ ____
ROOT
ATOM      1  C   UNL     1       2.397   7.888  18.634  0.00  0.00    +0.000 A 
ATOM      2  C   UNL     1       3.094   8.326  17.476  0.00  0.00    +0.000 A 
ATOM      3  C   UNL     1       3.921   7.506  16.690  0.00  0.00    +0.000 A 
ATOM      4  C   UNL     1       4.083   6.198  17.128  0.00  0.00    +0.000 A 
ATOM      5  C   UNL     1       3.449   5.755  18.268  0.00  0.00    +0.000 A 
ATOM      6  C   UNL     1       3.845   4.429  18.458  0.00  0.00    +0.000 A 
ATOM      7  N   UNL     1       4.672   4.011  17.492  0.00  0.00    +0.000 NA
ATOM      8  N   UNL     1       4.782   5.106  16.679  0.00  0.00    +0.000 N 
ATOM      9  C   UNL     1       3.365   3.711  19.622  0.00  0.00    +0.000 A 
ATOM     10  C   UNL     1       3.744   2.394  19.893  0.00  0.00    +0.000 A 
ATOM     11  C   UNL     1       3.271   1.759  21.046  0.00  0.00    +0.000 A 
ATOM     12  C   UNL     1       2.420   2.439  21.925  0.00  0.00    +0.000 A 
ATOM     13  C   UNL     1       2.024   3.750  21.657  0.00  0.00    +0.000 A 
ATOM     14  C   UNL     1       2.480   4.399  20.498  0.00  0.00    +0.000 A 
ATOM     15  C   UNL     1       2.010   5.823  20.210  0.00  0.00    +0.000 C 
ATOM     16  O   UNL     1       1.134   6.340  20.897  0.00  0.00    +0.000 OA
ATOM     17  C   UNL     1       2.599   6.552  19.036  0.00  0.00    +0.000 A 
ENDROOT
BRANCH   1  18
ATOM     18  N   UNL     1       1.652   8.791  19.406  0.00  0.00    +0.000 N 
ATOM     19  H   UNL     1       1.171   8.335  20.189  0.00  0.00    +0.000 HD
BRANCH  18  20
ATOM     20  C   UNL     1       0.954   9.891  18.741  0.00  0.00    +0.000 C 
BRANCH  20  21
ATOM     21  C   UNL     1      -0.021  10.637  19.665  0.00  0.00    +0.000 C 
BRANCH  21  22
ATOM     22  N   UNL     1      -1.410  10.747  19.145  0.00  0.00    +0.000 NA
BRANCH  22  24
ATOM     23  C   UNL     1      -2.115  12.633  20.691  0.00  0.00    +0.000 C 
ATOM     24  C   UNL     1      -1.846  12.150  19.269  0.00  0.00    +0.000 C 
ENDBRANCH  22  24
BRANCH  22  25
ATOM     25  C   UNL     1      -1.589  10.192  17.792  0.00  0.00    +0.000 C 
ATOM     26  C   UNL     1      -3.003   9.748  17.432  0.00  0.00    +0.000 C 
ENDBRANCH  22  25
ENDBRANCH  21  22
ENDBRANCH  20  21
ENDBRANCH  18  20
ENDBRANCH   1  18
BRANCH   8  27
ATOM     27  C   UNL     1       5.574   5.018  15.459  0.00  0.00    +0.000 C 
BRANCH  27  28
ATOM     28  C   UNL     1       7.045   5.359  15.716  0.00  0.00    +0.000 C 
BRANCH  28  29
ATOM     29  N   UNL     1       7.514   4.934  17.052  0.00  0.00    +0.000 NA
ATOM     30  H   UNL     1       8.423   4.479  16.957  0.00  0.00    +0.000 HD
BRANCH  29  31
ATOM     31  C   UNL     1       7.677   6.126  17.911  0.00  0.00    +0.000 C 
BRANCH  31  32
ATOM     32  C   UNL     1       7.833   5.768  19.393  0.00  0.00    +0.000 C 
BRANCH  32  33
ATOM     33  O   UNL     1       6.653   5.138  19.883  0.00  0.00    +0.000 OA
ATOM     34  H   UNL     1       6.599   4.284  19.422  0.00  0.00    +0.000 HD
ENDBRANCH  32  33
ENDBRANCH  31  32
ENDBRANCH  29  31
ENDBRANCH  28  29
ENDBRANCH  27  28
ENDBRANCH   8  27
TORSDOF 12
ENDMDL
MODEL 5
REMARK VINA RESULT:      -6.6      2.820      7.936
REMARK  Name = 
REMARK  14 active torsions:
REMARK  status: ('A' for Active; 'I' for Inactive)
REMARK    1  A    between atoms: C_1  and  C_2
REMARK    2  A    between atoms: C_2  and  N_3
REMARK    3  A    between atoms: N_3  and  C_4
REMARK    4  A    between atoms: N_3  and  C_6
REMARK    5  A    between atoms: C_4  and  C_5
REMARK    6  A    between atoms: C_6  and  C_7
REMARK    7  A    between atoms: C_7  and  N_8
REMARK    8  A    between atoms: N_8  and  C_9
REMARK    9  A    between atoms: N_16  and  C_17
REMARK   10  A    between atoms: C_17  and  C_18
REMARK   11  A    between atoms: C_18  and  N_19
REMARK   12  A    between atoms: N_19  and  C_20
REMARK   13  A    between atoms: C_20  and  C_21
REMARK   14  A    between atoms: C_21  and  O_22
REMARK                            x       y       z     vdW  Elec       q    Type
REMARK                         _______ _______ _______ _____ _____    ______ ____
ROOT
ATOM      1  C   UNL     1       2.123   8.085  18.947  0.00  0.00    +0.000 A 
ATOM      2  C   UNL     1       2.844   8.623  17.847  0.00  0.00    +0.000 A 
ATOM      3  C   UNL     1       3.739   7.890  17.049  0.00  0.00    +0.000 A 
ATOM      4  C   UNL     1       3.944   6.566  17.416  0.00  0.00    +0.000 A 
ATOM      5  C   UNL     1       3.287   6.026  18.500  0.00  0.00    +0.000 A 
ATOM      6  C   UNL     1       3.738   4.710  18.627  0.00  0.00    +0.000 A 
ATOM      7  N   UNL     1       4.620   4.389  17.674  0.00  0.00    +0.000 NA
ATOM      8  N   UNL     1       4.711   5.536  16.932  0.00  0.00    +0.000 N 
ATOM      9  C   UNL     1       3.246   3.902  19.726  0.00  0.00    +0.000 A 
ATOM     10  C   UNL     1       3.675   2.590  19.934  0.00  0.00    +0.000 A 
ATOM     11  C   UNL     1       3.188   1.865  21.027  0.00  0.00    +0.000 A 
ATOM     12  C   UNL     1       2.272   2.451  21.908  0.00  0.00    +0.000 A 
ATOM     13  C   UNL     1       1.826   3.757  21.701  0.00  0.00    +0.000 A 
ATOM     14  C   UNL     1       2.296   4.496  20.603  0.00  0.00    +0.000 A 
ATOM     15  C   UNL     1       1.772   5.913  20.380  0.00  0.00    +0.000 C 
ATOM     16  O   UNL     1       0.846   6.348  21.059  0.00  0.00    +0.000 OA
ATOM     17  C   UNL     1       2.372   6.737  19.277  0.00  0.00    +0.000 A 
ENDROOT
BRANCH   1  18
ATOM     18  N   UNL     1       1.307   8.905  19.739  0.00  0.00    +0.000 N 
ATOM     19  H   UNL     1       0.908   8.406  20.541  0.00  0.00    +0.000 HD
BRANCH  18  20
ATOM     20  C   UNL     1       0.465   9.911  19.091  0.00  0.00    +0.000 C 
BRANCH  20  21
ATOM     21  C   UNL     1      -0.530  10.578  20.053  0.00  0.00    +0.000 C 
BRANCH  21  22
ATOM     22  N   UNL     1       0.093  11.261  21.218  0.00  0.00    +0.000 NA
BRANCH  22  24
ATOM     23  C   UNL     1       1.630  13.218  20.720  0.00  0.00    +0.000 C 
ATOM     24  C   UNL     1       0.209  12.698  20.911  0.00  0.00    +0.000 C 
ENDBRANCH  22  24
BRANCH  22  25
ATOM     25  C   UNL     1      -0.577  10.984  22.502  0.00  0.00    +0.000 C 
ATOM     26  C   UNL     1      -0.296   9.618  23.121  0.00  0.00    +0.000 C 
ENDBRANCH  22  25
ENDBRANCH  21  22
ENDBRANCH  20  21
ENDBRANCH  18  20
ENDBRANCH   1  18
BRANCH   8  27
ATOM     27  C   UNL     1       5.554   5.558  15.744  0.00  0.00    +0.000 C 
BRANCH  27  28
ATOM     28  C   UNL     1       7.039   5.631  16.108  0.00  0.00    +0.000 C 
BRANCH  28  29
ATOM     29  N   UNL     1       7.601   4.327  16.520  0.00  0.00    +0.000 NA
ATOM     30  H   UNL     1       8.399   4.104  15.923  0.00  0.00    +0.000 HD
BRANCH  29  31
ATOM     31  C   UNL     1       8.077   4.423  17.916  0.00  0.00    +0.000 C 
BRANCH  31  32
ATOM     32  C   UNL     1       7.637   5.722  18.601  0.00  0.00    +0.000 C 
BRANCH  32  33
ATOM     33  O   UNL     1       6.917   5.438  19.797  0.00  0.00    +0.000 OA
ATOM     34  H   UNL     1       7.239   4.572  20.100  0.00  0.00    +0.000 HD
ENDBRANCH  32  33
ENDBRANCH  31  32
ENDBRANCH  29  31
ENDBRANCH  28  29
ENDBRANCH  27  28
ENDBRANCH   8  27
TORSDOF 12
ENDMDL
MODEL 6
REMARK VINA RESULT:      -6.5      2.788      7.669
REMARK  Name = 
REMARK  14 active torsions:
REMARK  status: ('A' for Active; 'I' for Inactive)
REMARK    1  A    between atoms: C_1  and  C_2
REMARK    2  A    between atoms: C_2  and  N_3
REMARK    3  A    between atoms: N_3  and  C_4
REMARK    4  A    between atoms: N_3  and  C_6
REMARK    5  A    between atoms: C_4  and  C_5
REMARK    6  A    between atoms: C_6  and  C_7
REMARK    7  A    between atoms: C_7  and  N_8
REMARK    8  A    between atoms: N_8  and  C_9
REMARK    9  A    between atoms: N_16  and  C_17
REMARK   10  A    between atoms: C_17  and  C_18
REMARK   11  A    between atoms: C_18  and  N_19
REMARK   12  A    between atoms: N_19  and  C_20
REMARK   13  A    between atoms: C_20  and  C_21
REMARK   14  A    between atoms: C_21  and  O_22
REMARK                            x       y       z     vdW  Elec       q    Type
REMARK                         _______ _______ _______ _____ _____    ______ ____
ROOT
ATOM      1  C   UNL     1       2.402   7.977  18.664  0.00  0.00    +0.000 A 
ATOM      2  C   UNL     1       3.147   8.396  17.529  0.00  0.00    +0.000 A 
ATOM      3  C   UNL     1       3.971   7.552  16.765  0.00  0.00    +0.000 A 
ATOM      4  C   UNL     1       4.078   6.238  17.203  0.00  0.00    +0.000 A 
ATOM      5  C   UNL     1       3.396   5.812  18.321  0.00  0.00    +0.000 A 
ATOM      6  C   UNL     1       3.744   4.473  18.518  0.00  0.00    +0.000 A 
ATOM      7  N   UNL     1       4.586   4.032  17.575  0.00  0.00    +0.000 NA
ATOM      8  N   UNL     1       4.756   5.126  16.770  0.00  0.00    +0.000 N 
ATOM      9  C   UNL     1       3.206   3.767  19.664  0.00  0.00    +0.000 A 
ATOM     10  C   UNL     1       3.534   2.439  19.941  0.00  0.00    +0.000 A 
ATOM     11  C   UNL     1       3.007   1.815  21.077  0.00  0.00    +0.000 A 
ATOM     12  C   UNL     1       2.151   2.520  21.932  0.00  0.00    +0.000 A 
ATOM     13  C   UNL     1       1.806   3.843  21.657  0.00  0.00    +0.000 A 
ATOM     14  C   UNL     1       2.317   4.481  20.516  0.00  0.00    +0.000 A 
ATOM     15  C   UNL     1       1.902   5.921  20.219  0.00  0.00    +0.000 C 
ATOM     16  O   UNL     1       1.022   6.463  20.881  0.00  0.00    +0.000 OA
ATOM     17  C   UNL     1       2.549   6.634  19.066  0.00  0.00    +0.000 A 
ENDROOT
BRANCH   1  18
ATOM     18  N   UNL     1       1.663   8.901  19.416  0.00  0.00    +0.000 N 
ATOM     19  H   UNL     1       1.798   8.783  20.426  0.00  0.00    +0.000 HD
BRANCH  18  20
ATOM     20  C   UNL     1       0.327   9.286  18.960  0.00  0.00    +0.000 C 
BRANCH  20  21
ATOM     21  C   UNL     1       0.188  10.793  18.697  0.00  0.00    +0.000 C 
BRANCH  21  22
ATOM     22  N   UNL     1      -1.146  11.216  18.195  0.00  0.00    +0.000 NA
BRANCH  22  24
ATOM     23  C   UNL     1      -3.250  10.046  17.392  0.00  0.00    +0.000 C 
ATOM     24  C   UNL     1      -1.727  10.108  17.415  0.00  0.00    +0.000 C 
ENDBRANCH  22  24
BRANCH  22  25
ATOM     25  C   UNL     1      -2.044  11.733  19.243  0.00  0.00    +0.000 C 
ATOM     26  C   UNL     1      -1.367  12.421  20.425  0.00  0.00    +0.000 C 
ENDBRANCH  22  25
ENDBRANCH  21  22
ENDBRANCH  20  21
ENDBRANCH  18  20
ENDBRANCH   1  18
BRANCH   8  27
ATOM     27  C   UNL     1       5.581   5.016  15.575  0.00  0.00    +0.000 C 
BRANCH  27  28
ATOM     28  C   UNL     1       7.036   5.403  15.857  0.00  0.00    +0.000 C 
BRANCH  28  29
ATOM     29  N   UNL     1       7.558   4.823  17.112  0.00  0.00    +0.000 NA
ATOM     30  H   UNL     1       8.483   4.427  16.938  0.00  0.00    +0.000 HD
BRANCH  29  31
ATOM     31  C   UNL     1       7.692   5.893  18.123  0.00  0.00    +0.000 C 
BRANCH  31  32
ATOM     32  C   UNL     1       7.092   5.504  19.478  0.00  0.00    +0.000 C 
BRANCH  32  33
ATOM     33  O   UNL     1       8.100   5.479  20.484  0.00  0.00    +0.000 OA
ATOM     34  H   UNL     1       8.251   6.407  20.730  0.00  0.00    +0.000 HD
ENDBRANCH  32  33
ENDBRANCH  31  32
ENDBRANCH  29  31
ENDBRANCH  28  29
ENDBRANCH  27  28
ENDBRANCH   8  27
TORSDOF 12
ENDMDL
MODEL 7
REMARK VINA RESULT:      -6.5      2.766      8.002
REMARK  Name = 
REMARK  14 active torsions:
REMARK  status: ('A' for Active; 'I' for Inactive)
REMARK    1  A    between atoms: C_1  and  C_2
REMARK    2  A    between atoms: C_2  and  N_3
REMARK    3  A    between atoms: N_3  and  C_4
REMARK    4  A    between atoms: N_3  and  C_6
REMARK    5  A    between atoms: C_4  and  C_5
REMARK    6  A    between atoms: C_6  and  C_7
REMARK    7  A    between atoms: C_7  and  N_8
REMARK    8  A    between atoms: N_8  and  C_9
REMARK    9  A    between atoms: N_16  and  C_17
REMARK   10  A    between atoms: C_17  and  C_18
REMARK   11  A    between atoms: C_18  and  N_19
REMARK   12  A    between atoms: N_19  and  C_20
REMARK   13  A    between atoms: C_20  and  C_21
REMARK   14  A    between atoms: C_21  and  O_22
REMARK                            x       y       z     vdW  Elec       q    Type
REMARK                         _______ _______ _______ _____ _____    ______ ____
ROOT
ATOM      1  C   UNL     1       2.401   7.866  18.612  0.00  0.00    +0.000 A 
ATOM      2  C   UNL     1       3.152   8.272  17.476  0.00  0.00    +0.000 A 
ATOM      3  C   UNL     1       3.994   7.424  16.737  0.00  0.00    +0.000 A 
ATOM      4  C   UNL     1       4.115   6.121  17.202  0.00  0.00    +0.000 A 
ATOM      5  C   UNL     1       3.428   5.708  18.323  0.00  0.00    +0.000 A 
ATOM      6  C   UNL     1       3.792   4.379  18.550  0.00  0.00    +0.000 A 
ATOM      7  N   UNL     1       4.649   3.930  17.624  0.00  0.00    +0.000 NA
ATOM      8  N   UNL     1       4.811   5.010  16.799  0.00  0.00    +0.000 N 
ATOM      9  C   UNL     1       3.253   3.689  19.705  0.00  0.00    +0.000 A 
ATOM     10  C   UNL     1       3.596   2.371  20.013  0.00  0.00    +0.000 A 
ATOM     11  C   UNL     1       3.067   1.764  21.156  0.00  0.00    +0.000 A 
ATOM     12  C   UNL     1       2.194   2.473  21.989  0.00  0.00    +0.000 A 
ATOM     13  C   UNL     1       1.833   3.786  21.684  0.00  0.00    +0.000 A 
ATOM     14  C   UNL     1       2.347   4.408  20.534  0.00  0.00    +0.000 A 
ATOM     15  C   UNL     1       1.914   5.835  20.204  0.00  0.00    +0.000 C 
ATOM     16  O   UNL     1       1.021   6.379  20.848  0.00  0.00    +0.000 OA
ATOM     17  C   UNL     1       2.563   6.534  19.043  0.00  0.00    +0.000 A 
ENDROOT
BRANCH   1  18
ATOM     18  N   UNL     1       1.643   8.795  19.339  0.00  0.00    +0.000 N 
ATOM     19  H   UNL     1       1.196   8.378  20.163  0.00  0.00    +0.000 HD
BRANCH  18  20
ATOM     20  C   UNL     1       0.891   9.822  18.617  0.00  0.00    +0.000 C 
BRANCH  20  21
ATOM     21  C   UNL     1       0.616  11.076  19.461  0.00  0.00    +0.000 C 
BRANCH  21  22
ATOM     22  N   UNL     1      -0.565  10.975  20.359  0.00  0.00    +0.000 NA
BRANCH  22  24
ATOM     23  C   UNL     1      -0.587  10.163  22.764  0.00  0.00    +0.000 C 
ATOM     24  C   UNL     1      -0.119  11.199  21.746  0.00  0.00    +0.000 C 
ENDBRANCH  22  24
BRANCH  22  25
ATOM     25  C   UNL     1      -1.697  11.830  19.958  0.00  0.00    +0.000 C 
ATOM     26  C   UNL     1      -1.878  13.117  20.756  0.00  0.00    +0.000 C 
ENDBRANCH  22  25
ENDBRANCH  21  22
ENDBRANCH  20  21
ENDBRANCH  18  20
ENDBRANCH   1  18
BRANCH   8  27
ATOM     27  C   UNL     1       5.650   4.887  15.614  0.00  0.00    +0.000 C 
BRANCH  27  28
ATOM     28  C   UNL     1       7.106   5.254  15.913  0.00  0.00    +0.000 C 
BRANCH  28  29
ATOM     29  N   UNL     1       7.720   4.394  16.947  0.00  0.00    +0.000 NA
ATOM     30  H   UNL     1       8.677   4.171  16.671  0.00  0.00    +0.000 HD
BRANCH  29  31
ATOM     31  C   UNL     1       7.766   5.133  18.227  0.00  0.00    +0.000 C 
BRANCH  31  32
ATOM     32  C   UNL     1       7.706   6.652  18.034  0.00  0.00    +0.000 C 
BRANCH  32  33
ATOM     33  O   UNL     1       8.544   7.311  18.979  0.00  0.00    +0.000 OA
ATOM     34  H   UNL     1       8.882   8.101  18.526  0.00  0.00    +0.000 HD
ENDBRANCH  32  33
ENDBRANCH  31  32
ENDBRANCH  29  31
ENDBRANCH  28  29
ENDBRANCH  27  28
ENDBRANCH   8  27
TORSDOF 12
ENDMDL
MODEL 8
REMARK VINA RESULT:      -6.5      2.637      7.647
REMARK  Name = 
REMARK  14 active torsions:
REMARK  status: ('A' for Active; 'I' for Inactive)
REMARK    1  A    between atoms: C_1  and  C_2
REMARK    2  A    between atoms: C_2  and  N_3
REMARK    3  A    between atoms: N_3  and  C_4
REMARK    4  A    between atoms: N_3  and  C_6
REMARK    5  A    between atoms: C_4  and  C_5
REMARK    6  A    between atoms: C_6  and  C_7
REMARK    7  A    between atoms: C_7  and  N_8
REMARK    8  A    between atoms: N_8  and  C_9
REMARK    9  A    between atoms: N_16  and  C_17
REMARK   10  A    between atoms: C_17  and  C_18
REMARK   11  A    between atoms: C_18  and  N_19
REMARK   12  A    between atoms: N_19  and  C_20
REMARK   13  A    between atoms: C_20  and  C_21
REMARK   14  A    between atoms: C_21  and  O_22
REMARK                            x       y       z     vdW  Elec       q    Type
REMARK                         _______ _______ _______ _____ _____    ______ ____
ROOT
ATOM      1  C   UNL     1       2.206   7.990  18.912  0.00  0.00    +0.000 A 
ATOM      2  C   UNL     1       2.887   8.588  17.818  0.00  0.00    +0.000 A 
ATOM      3  C   UNL     1       3.820   7.923  17.004  0.00  0.00    +0.000 A 
ATOM      4  C   UNL     1       4.108   6.609  17.350  0.00  0.00    +0.000 A 
ATOM      5  C   UNL     1       3.492   6.014  18.428  0.00  0.00    +0.000 A 
ATOM      6  C   UNL     1       4.023   4.726  18.534  0.00  0.00    +0.000 A 
ATOM      7  N   UNL     1       4.917   4.474  17.571  0.00  0.00    +0.000 NA
ATOM      8  N   UNL     1       4.934   5.635  16.847  0.00  0.00    +0.000 N 
ATOM      9  C   UNL     1       3.588   3.873  19.623  0.00  0.00    +0.000 A 
ATOM     10  C   UNL     1       4.097   2.587  19.809  0.00  0.00    +0.000 A 
ATOM     11  C   UNL     1       3.662   1.817  20.893  0.00  0.00    +0.000 A 
ATOM     12  C   UNL     1       2.717   2.334  21.787  0.00  0.00    +0.000 A 
ATOM     13  C   UNL     1       2.191   3.613  21.602  0.00  0.00    +0.000 A 
ATOM     14  C   UNL     1       2.609   4.394  20.513  0.00  0.00    +0.000 A 
ATOM     15  C   UNL     1       1.997   5.780  20.315  0.00  0.00    +0.000 C 
ATOM     16  O   UNL     1       1.050   6.147  21.005  0.00  0.00    +0.000 OA
ATOM     17  C   UNL     1       2.539   6.656  19.221  0.00  0.00    +0.000 A 
ENDROOT
BRANCH   1  18
ATOM     18  N   UNL     1       1.346   8.747  19.721  0.00  0.00    +0.000 N 
ATOM     19  H   UNL     1       0.729   8.162  20.293  0.00  0.00    +0.000 HD
BRANCH  18  20
ATOM     20  C   UNL     1       0.790   9.995  19.197  0.00  0.00    +0.000 C 
BRANCH  20  21
ATOM     21  C   UNL     1      -0.712  10.154  19.479  0.00  0.00    +0.000 C 
BRANCH  21  22
ATOM     22  N   UNL     1      -1.312  11.414  18.966  0.00  0.00    +0.000 NA
BRANCH  22  24
ATOM     23  C   UNL     1      -0.206  13.696  19.069  0.00  0.00    +0.000 C 
ATOM     24  C   UNL     1      -0.226  12.287  18.484  0.00  0.00    +0.000 C 
ENDBRANCH  22  24
BRANCH  22  25
ATOM     25  C   UNL     1      -2.385  11.206  17.977  0.00  0.00    +0.000 C 
ATOM     26  C   UNL     1      -2.158  10.083  16.969  0.00  0.00    +0.000 C 
ENDBRANCH  22  25
ENDBRANCH  21  22
ENDBRANCH  20  21
ENDBRANCH  18  20
ENDBRANCH   1  18
BRANCH   8  27
ATOM     27  C   UNL     1       5.767   5.726  15.655  0.00  0.00    +0.000 C 
BRANCH  27  28
ATOM     28  C   UNL     1       6.665   4.496  15.500  0.00  0.00    +0.000 C 
BRANCH  28  29
ATOM     29  N   UNL     1       6.126   3.498  14.551  0.00  0.00    +0.000 NA
ATOM     30  H   UNL     1       5.119   3.412  14.694  0.00  0.00    +0.000 HD
BRANCH  29  31
ATOM     31  C   UNL     1       6.361   3.966  13.169  0.00  0.00    +0.000 C 
BRANCH  31  32
ATOM     32  C   UNL     1       5.562   3.169  12.132  0.00  0.00    +0.000 C 
BRANCH  32  33
ATOM     33  O   UNL     1       6.163   1.898  11.907  0.00  0.00    +0.000 OA
ATOM     34  H   UNL     1       6.857   2.047  11.243  0.00  0.00    +0.000 HD
ENDBRANCH  32  33
ENDBRANCH  31  32
ENDBRANCH  29  31
ENDBRANCH  28  29
ENDBRANCH  27  28
ENDBRANCH   8  27
TORSDOF 12
ENDMDL
MODEL 9
REMARK VINA RESULT:      -6.5      2.783      7.820
REMARK  Name = 
REMARK  14 active torsions:
REMARK  status: ('A' for Active; 'I' for Inactive)
REMARK    1  A    between atoms: C_1  and  C_2
REMARK    2  A    between atoms: C_2  and  N_3
REMARK    3  A    between atoms: N_3  and  C_4
REMARK    4  A    between atoms: N_3  and  C_6
REMARK    5  A    between atoms: C_4  and  C_5
REMARK    6  A    between atoms: C_6  and  C_7
REMARK    7  A    between atoms: C_7  and  N_8
REMARK    8  A    between atoms: N_8  and  C_9
REMARK    9  A    between atoms: N_16  and  C_17
REMARK   10  A    between atoms: C_17  and  C_18
REMARK   11  A    between atoms: C_18  and  N_19
REMARK   12  A    between atoms: N_19  and  C_20
REMARK   13  A    between atoms: C_20  and  C_21
REMARK   14  A    between atoms: C_21  and  O_22
REMARK                            x       y       z     vdW  Elec       q    Type
REMARK                         _______ _______ _______ _____ _____    ______ ____
ROOT
ATOM      1  C   UNL     1       2.433   7.895  18.602  0.00  0.00    +0.000 A 
ATOM      2  C   UNL     1       3.192   8.287  17.467  0.00  0.00    +0.000 A 
ATOM      3  C   UNL     1       4.020   7.425  16.729  0.00  0.00    +0.000 A 
ATOM      4  C   UNL     1       4.116   6.120  17.194  0.00  0.00    +0.000 A 
ATOM      5  C   UNL     1       3.422   5.719  18.314  0.00  0.00    +0.000 A 
ATOM      6  C   UNL     1       3.761   4.384  18.541  0.00  0.00    +0.000 A 
ATOM      7  N   UNL     1       4.611   3.920  17.617  0.00  0.00    +0.000 NA
ATOM      8  N   UNL     1       4.793   4.996  16.791  0.00  0.00    +0.000 N 
ATOM      9  C   UNL     1       3.209   3.703  19.696  0.00  0.00    +0.000 A 
ATOM     10  C   UNL     1       3.528   2.380  20.004  0.00  0.00    +0.000 A 
ATOM     11  C   UNL     1       2.987   1.781  21.146  0.00  0.00    +0.000 A 
ATOM     12  C   UNL     1       2.126   2.507  21.978  0.00  0.00    +0.000 A 
ATOM     13  C   UNL     1       1.789   3.826  21.673  0.00  0.00    +0.000 A 
ATOM     14  C   UNL     1       2.315   4.438  20.524  0.00  0.00    +0.000 A 
ATOM     15  C   UNL     1       1.909   5.873  20.194  0.00  0.00    +0.000 C 
ATOM     16  O   UNL     1       1.025   6.433  20.836  0.00  0.00    +0.000 OA
ATOM     17  C   UNL     1       2.571   6.560  19.034  0.00  0.00    +0.000 A 
ENDROOT
BRANCH   1  18
ATOM     18  N   UNL     1       1.691   8.837  19.328  0.00  0.00    +0.000 N 
ATOM     19  H   UNL     1       1.296   8.446  20.191  0.00  0.00    +0.000 HD
BRANCH  18  20
ATOM     20  C   UNL     1       0.880   9.817  18.605  0.00  0.00    +0.000 C 
BRANCH  20  21
ATOM     21  C   UNL     1       1.298  11.269  18.879  0.00  0.00    +0.000 C 
BRANCH  21  22
ATOM     22  N   UNL     1       0.189  12.168  19.296  0.00  0.00    +0.000 NA
BRANCH  22  24
ATOM     23  C   UNL     1      -2.345  12.048  19.379  0.00  0.00    +0.000 C 
ATOM     24  C   UNL     1      -1.052  11.716  18.640  0.00  0.00    +0.000 C 
ENDBRANCH  22  24
BRANCH  22  25
ATOM     25  C   UNL     1       0.062  12.324  20.756  0.00  0.00    +0.000 C 
ATOM     26  C   UNL     1       0.660  13.597  21.347  0.00  0.00    +0.000 C 
ENDBRANCH  22  25
ENDBRANCH  21  22
ENDBRANCH  20  21
ENDBRANCH  18  20
ENDBRANCH   1  18
BRANCH   8  27
ATOM     27  C   UNL     1       5.631   4.859  15.607  0.00  0.00    +0.000 C 
BRANCH  27  28
ATOM     28  C   UNL     1       7.111   5.072  15.935  0.00  0.00    +0.000 C 
BRANCH  28  29
ATOM     29  N   UNL     1       7.506   4.496  17.238  0.00  0.00    +0.000 NA
ATOM     30  H   UNL     1       8.336   3.915  17.109  0.00  0.00    +0.000 HD
BRANCH  29  31
ATOM     31  C   UNL     1       7.846   5.592  18.170  0.00  0.00    +0.000 C 
BRANCH  31  32
ATOM     32  C   UNL     1       7.117   5.472  19.513  0.00  0.00    +0.000 C 
BRANCH  32  33
ATOM     33  O   UNL     1       8.050   5.449  20.589  0.00  0.00    +0.000 OA
ATOM     34  H   UNL     1       8.472   4.574  20.554  0.00  0.00    +0.000 HD
ENDBRANCH  32  33
ENDBRANCH  31  32
ENDBRANCH  29  31
ENDBRANCH  28  29
ENDBRANCH  27  28
ENDBRANCH   8  27
TORSDOF 12
ENDMDL
