MODEL 1
REMARK VINA RESULT:      -8.1      0.000      0.000
REMARK  Name = 
REMARK  7 active torsions:
REMARK  status: ('A' for Active; 'I' for Inactive)
REMARK    1  A    between atoms: C_1  and  O_2
REMARK    2  A    between atoms: O_2  and  C_3
REMARK    3  A    between atoms: C_8  and  C_9
REMARK    4  A    between atoms: C_9  and  C_10
REMARK    5  A    between atoms: N_12  and  C_13
REMARK    6  A    between atoms: C_25  and  O_26
REMARK    7  A    between atoms: O_26  and  C_27
REMARK                            x       y       z     vdW  Elec       q    Type
REMARK                         _______ _______ _______ _____ _____    ______ ____
ROOT
ATOM      1  C   UNL     1       2.700   6.244  19.191  0.00  0.00    +0.000 A 
ATOM      2  C   UNL     1       2.514   7.489  18.550  0.00  0.00    +0.000 A 
ATOM      3  C   UNL     1       1.745   8.460  19.181  0.00  0.00    +0.000 A 
ATOM      4  O   UNL     1       1.394   9.654  18.637  0.00  0.00    +0.000 OA
ATOM      5  C   UNL     1       0.699  10.327  19.596  0.00  0.00    +0.000 A 
ATOM      6  C   UNL     1       0.112  11.580  19.420  0.00  0.00    +0.000 A 
ATOM      7  C   UNL     1      -0.473  12.154  20.553  0.00  0.00    +0.000 A 
ATOM      8  C   UNL     1      -0.441  11.504  21.787  0.00  0.00    +0.000 A 
ATOM      9  C   UNL     1       0.099  10.212  21.913  0.00  0.00    +0.000 A 
ATOM     10  C   UNL     1       0.665   9.596  20.775  0.00  0.00    +0.000 A 
ATOM     11  C   UNL     1       1.222   8.321  20.456  0.00  0.00    +0.000 A 
ATOM     12  C   UNL     1       1.351   7.057  21.063  0.00  0.00    +0.000 A 
ATOM     13  C   UNL     1       2.035   5.996  20.406  0.00  0.00    +0.000 A 
ENDROOT
BRANCH   1  16
ATOM     14  C   UNL     1       2.979   4.349  17.665  0.00  0.00    +0.000 C 
ATOM     15  O   UNL     1       1.792   4.297  17.343  0.00  0.00    +0.000 OA
ATOM     16  N   UNL     1       3.528   5.315  18.502  0.00  0.00    +0.000 N 
ATOM     17  H   UNL     1       4.503   5.537  18.350  0.00  0.00    +0.000 HD
BRANCH  14  18
ATOM     18  C   UNL     1       3.936   3.298  17.155  0.00  0.00    +0.000 C 
BRANCH  18  24
ATOM     19  C   UNL     1       6.305   4.287  17.171  0.00  0.00    +0.000 A 
ATOM     20  C   UNL     1       7.365   4.865  16.460  0.00  0.00    +0.000 A 
ATOM     21  C   UNL     1       7.292   5.036  15.072  0.00  0.00    +0.000 A 
ATOM     22  C   UNL     1       6.150   4.633  14.387  0.00  0.00    +0.000 A 
ATOM     23  C   UNL     1       5.102   4.045  15.090  0.00  0.00    +0.000 A 
ATOM     24  C   UNL     1       5.158   3.863  16.483  0.00  0.00    +0.000 A 
BRANCH  19  26
ATOM     25  C   UNL     1       7.076   5.514  19.039  0.00  0.00    +0.000 C 
ATOM     26  O   UNL     1       6.376   4.376  18.537  0.00  0.00    +0.000 OA
ENDBRANCH  19  26
ENDBRANCH  18  24
ENDBRANCH  14  18
ENDBRANCH   1  16
BRANCH  13  27
ATOM     27  O   UNL     1       1.910   4.842  21.128  0.00  0.00    +0.000 OA
ATOM     28  C   UNL     1       1.092   3.774  20.696  0.00  0.00    +0.000 C 
ENDBRANCH  13  27
TORSDOF 5
ENDMDL
MODEL 2
REMARK VINA RESULT:      -7.5      0.911      1.110
REMARK  Name = 
REMARK  7 active torsions:
REMARK  status: ('A' for Active; 'I' for Inactive)
REMARK    1  A    between atoms: C_1  and  O_2
REMARK    2  A    between atoms: O_2  and  C_3
REMARK    3  A    between atoms: C_8  and  C_9
REMARK    4  A    between atoms: C_9  and  C_10
REMARK    5  A    between atoms: N_12  and  C_13
REMARK    6  A    between atoms: C_25  and  O_26
REMARK    7  A    between atoms: O_26  and  C_27
REMARK                            x       y       z     vdW  Elec       q    Type
REMARK                         _______ _______ _______ _____ _____    ______ ____
ROOT
ATOM      1  C   UNL     1       2.449   6.716  18.828  0.00  0.00    +0.000 A 
ATOM      2  C   UNL     1       2.140   7.892  18.107  0.00  0.00    +0.000 A 
ATOM      3  C   UNL     1       1.469   8.920  18.759  0.00  0.00    +0.000 A 
ATOM      4  O   UNL     1       1.013  10.054  18.166  0.00  0.00    +0.000 OA
ATOM      5  C   UNL     1       0.474  10.819  19.157  0.00  0.00    +0.000 A 
ATOM      6  C   UNL     1      -0.155  12.048  18.958  0.00  0.00    +0.000 A 
ATOM      7  C   UNL     1      -0.555  12.731  20.112  0.00  0.00    +0.000 A 
ATOM      8  C   UNL     1      -0.309  12.207  21.380  0.00  0.00    +0.000 A 
ATOM      9  C   UNL     1       0.266  10.933  21.541  0.00  0.00    +0.000 A 
ATOM     10  C   UNL     1       0.647  10.208  20.391  0.00  0.00    +0.000 A 
ATOM     11  C   UNL     1       1.165   8.908  20.110  0.00  0.00    +0.000 A 
ATOM     12  C   UNL     1       1.414   7.710  20.808  0.00  0.00    +0.000 A 
ATOM     13  C   UNL     1       1.998   6.590  20.154  0.00  0.00    +0.000 A 
ENDROOT
BRANCH   1  16
ATOM     14  C   UNL     1       2.511   4.647  17.519  0.00  0.00    +0.000 C 
ATOM     15  O   UNL     1       1.288   4.529  17.450  0.00  0.00    +0.000 OA
ATOM     16  N   UNL     1       3.168   5.724  18.104  0.00  0.00    +0.000 N 
ATOM     17  H   UNL     1       4.083   5.945  17.734  0.00  0.00    +0.000 HD
BRANCH  14  18
ATOM     18  C   UNL     1       3.397   3.560  16.960  0.00  0.00    +0.000 C 
BRANCH  18  24
ATOM     19  C   UNL     1       5.677   4.049  18.032  0.00  0.00    +0.000 A 
ATOM     20  C   UNL     1       7.005   4.470  17.880  0.00  0.00    +0.000 A 
ATOM     21  C   UNL     1       7.520   4.786  16.617  0.00  0.00    +0.000 A 
ATOM     22  C   UNL     1       6.703   4.687  15.495  0.00  0.00    +0.000 A 
ATOM     23  C   UNL     1       5.387   4.256  15.643  0.00  0.00    +0.000 A 
ATOM     24  C   UNL     1       4.854   3.932  16.903  0.00  0.00    +0.000 A 
BRANCH  19  26
ATOM     25  C   UNL     1       4.728   2.709  19.734  0.00  0.00    +0.000 C 
ATOM     26  O   UNL     1       5.207   3.988  19.318  0.00  0.00    +0.000 OA
ENDBRANCH  19  26
ENDBRANCH  18  24
ENDBRANCH  14  18
ENDBRANCH   1  16
BRANCH  13  27
ATOM     27  O   UNL     1       2.013   5.513  20.996  0.00  0.00    +0.000 OA
ATOM     28  C   UNL     1       1.239   4.358  20.746  0.00  0.00    +0.000 C 
ENDBRANCH  13  27
TORSDOF 5
ENDMDL
MODEL 3
REMARK VINA RESULT:      -7.4      1.505      2.053
REMARK  Name = 
REMARK  7 active torsions:
REMARK  status: ('A' for Active; 'I' for Inactive)
REMARK    1  A    between atoms: C_1  and  O_2
REMARK    2  A    between atoms: O_2  and  C_3
REMARK    3  A    between atoms: C_8  and  C_9
REMARK    4  A    between atoms: C_9  and  C_10
REMARK    5  A    between atoms: N_12  and  C_13
REMARK    6  A    between atoms: C_25  and  O_26
REMARK    7  A    between atoms: O_26  and  C_27
REMARK                            x       y       z     vdW  Elec       q    Type
REMARK                         _______ _______ _______ _____ _____    ______ ____
ROOT
ATOM      1  C   UNL     1       2.261   7.557  19.398  0.00  0.00    +0.000 A 
ATOM      2  C   UNL     1       1.751   8.817  19.013  0.00  0.00    +0.000 A 
ATOM      3  C   UNL     1       0.848   9.459  19.852  0.00  0.00    +0.000 A 
ATOM      4  O   UNL     1       0.196  10.615  19.560  0.00  0.00    +0.000 OA
ATOM      5  C   UNL     1      -0.541  10.933  20.661  0.00  0.00    +0.000 A 
ATOM      6  C   UNL     1      -1.401  12.027  20.753  0.00  0.00    +0.000 A 
ATOM      7  C   UNL     1      -1.994  12.244  22.000  0.00  0.00    +0.000 A 
ATOM      8  C   UNL     1      -1.710  11.416  23.086  0.00  0.00    +0.000 A 
ATOM      9  C   UNL     1      -0.892  10.282  22.940  0.00  0.00    +0.000 A 
ATOM     10  C   UNL     1      -0.309  10.021  21.681  0.00  0.00    +0.000 A 
ATOM     11  C   UNL     1       0.484   8.984  21.100  0.00  0.00    +0.000 A 
ATOM     12  C   UNL     1       0.940   7.699  21.452  0.00  0.00    +0.000 A 
ATOM     13  C   UNL     1       1.778   6.956  20.574  0.00  0.00    +0.000 A 
ENDROOT
BRANCH   1  16
ATOM     14  C   UNL     1       2.884   5.863  17.742  0.00  0.00    +0.000 C 
ATOM     15  O   UNL     1       1.756   5.376  17.660  0.00  0.00    +0.000 OA
ATOM     16  N   UNL     1       3.207   6.979  18.506  0.00  0.00    +0.000 N 
ATOM     17  H   UNL     1       3.984   7.537  18.176  0.00  0.00    +0.000 HD
BRANCH  14  18
ATOM     18  C   UNL     1       4.029   5.222  16.995  0.00  0.00    +0.000 C 
BRANCH  18  24
ATOM     19  C   UNL     1       5.810   5.116  18.840  0.00  0.00    +0.000 A 
ATOM     20  C   UNL     1       7.065   5.519  19.315  0.00  0.00    +0.000 A 
ATOM     21  C   UNL     1       7.896   6.343  18.546  0.00  0.00    +0.000 A 
ATOM     22  C   UNL     1       7.470   6.775  17.294  0.00  0.00    +0.000 A 
ATOM     23  C   UNL     1       6.229   6.364  16.814  0.00  0.00    +0.000 A 
ATOM     24  C   UNL     1       5.383   5.535  17.571  0.00  0.00    +0.000 A 
BRANCH  19  26
ATOM     25  C   UNL     1       4.657   3.150  19.468  0.00  0.00    +0.000 C 
ATOM     26  O   UNL     1       4.985   4.510  19.751  0.00  0.00    +0.000 OA
ENDBRANCH  19  26
ENDBRANCH  18  24
ENDBRANCH  14  18
ENDBRANCH   1  16
BRANCH  13  27
ATOM     27  O   UNL     1       1.974   5.697  21.070  0.00  0.00    +0.000 OA
ATOM     28  C   UNL     1       1.193   4.597  20.650  0.00  0.00    +0.000 C 
ENDBRANCH  13  27
TORSDOF 5
ENDMDL
MODEL 4
REMARK VINA RESULT:      -7.4      3.336      8.741
REMARK  Name = 
REMARK  7 active torsions:
REMARK  status: ('A' for Active; 'I' for Inactive)
REMARK    1  A    between atoms: C_1  and  O_2
REMARK    2  A    between atoms: O_2  and  C_3
REMARK    3  A    between atoms: C_8  and  C_9
REMARK    4  A    between atoms: C_9  and  C_10
REMARK    5  A    between atoms: N_12  and  C_13
REMARK    6  A    between atoms: C_25  and  O_26
REMARK    7  A    between atoms: O_26  and  C_27
REMARK                            x       y       z     vdW  Elec       q    Type
REMARK                         _______ _______ _______ _____ _____    ______ ____
ROOT
ATOM      1  C   UNL     1       1.258   9.457  19.101  0.00  0.00    +0.000 A 
ATOM      2  C   UNL     1       1.998   9.039  17.972  0.00  0.00    +0.000 A 
ATOM      3  C   UNL     1       2.730   7.860  18.049  0.00  0.00    +0.000 A 
ATOM      4  O   UNL     1       3.569   7.396  17.086  0.00  0.00    +0.000 OA
ATOM      5  C   UNL     1       4.036   6.194  17.526  0.00  0.00    +0.000 A 
ATOM      6  C   UNL     1       4.971   5.410  16.850  0.00  0.00    +0.000 A 
ATOM      7  C   UNL     1       5.250   4.160  17.411  0.00  0.00    +0.000 A 
ATOM      8  C   UNL     1       4.603   3.730  18.569  0.00  0.00    +0.000 A 
ATOM      9  C   UNL     1       3.717   4.574  19.262  0.00  0.00    +0.000 A 
ATOM     10  C   UNL     1       3.445   5.855  18.735  0.00  0.00    +0.000 A 
ATOM     11  C   UNL     1       2.706   7.008  19.141  0.00  0.00    +0.000 A 
ATOM     12  C   UNL     1       2.024   7.459  20.287  0.00  0.00    +0.000 A 
ATOM     13  C   UNL     1       1.352   8.713  20.291  0.00  0.00    +0.000 A 
ENDROOT
BRANCH   1  16
ATOM     14  C   UNL     1      -0.875  10.615  18.772  0.00  0.00    +0.000 C 
ATOM     15  O   UNL     1      -1.564   9.603  18.894  0.00  0.00    +0.000 OA
ATOM     16  N   UNL     1       0.506  10.653  18.934  0.00  0.00    +0.000 N 
ATOM     17  H   UNL     1       0.895  11.532  19.248  0.00  0.00    +0.000 HD
BRANCH  14  18
ATOM     18  C   UNL     1      -1.531  11.923  18.400  0.00  0.00    +0.000 C 
BRANCH  18  24
ATOM     19  C   UNL     1      -3.505  11.367  16.856  0.00  0.00    +0.000 A 
ATOM     20  C   UNL     1      -4.889  11.355  16.642  0.00  0.00    +0.000 A 
ATOM     21  C   UNL     1      -5.776  11.779  17.639  0.00  0.00    +0.000 A 
ATOM     22  C   UNL     1      -5.278  12.226  18.859  0.00  0.00    +0.000 A 
ATOM     23  C   UNL     1      -3.903  12.226  19.079  0.00  0.00    +0.000 A 
ATOM     24  C   UNL     1      -2.998  11.801  18.090  0.00  0.00    +0.000 A 
BRANCH  19  26
ATOM     25  C   UNL     1      -3.278  10.286  14.765  0.00  0.00    +0.000 C 
ATOM     26  O   UNL     1      -2.721  11.156  15.751  0.00  0.00    +0.000 OA
ENDBRANCH  19  26
ENDBRANCH  18  24
ENDBRANCH  14  18
ENDBRANCH   1  16
BRANCH  13  27
ATOM     27  O   UNL     1       0.886   8.990  21.547  0.00  0.00    +0.000 OA
ATOM     28  C   UNL     1      -0.379   8.544  21.990  0.00  0.00    +0.000 C 
ENDBRANCH  13  27
TORSDOF 5
ENDMDL
MODEL 5
REMARK VINA RESULT:      -7.3      2.344      8.673
REMARK  Name = 
REMARK  7 active torsions:
REMARK  status: ('A' for Active; 'I' for Inactive)
REMARK    1  A    between atoms: C_1  and  O_2
REMARK    2  A    between atoms: O_2  and  C_3
REMARK    3  A    between atoms: C_8  and  C_9
REMARK    4  A    between atoms: C_9  and  C_10
REMARK    5  A    between atoms: N_12  and  C_13
REMARK    6  A    between atoms: C_25  and  O_26
REMARK    7  A    between atoms: O_26  and  C_27
REMARK                            x       y       z     vdW  Elec       q    Type
REMARK                         _______ _______ _______ _____ _____    ______ ____
ROOT
ATOM      1  C   UNL     1       1.580   8.165  20.718  0.00  0.00    +0.000 A 
ATOM      2  C   UNL     1       1.753   6.817  21.102  0.00  0.00    +0.000 A 
ATOM      3  C   UNL     1       2.189   5.899  20.153  0.00  0.00    +0.000 A 
ATOM      4  O   UNL     1       2.293   4.559  20.352  0.00  0.00    +0.000 OA
ATOM      5  C   UNL     1       2.809   4.037  19.204  0.00  0.00    +0.000 A 
ATOM      6  C   UNL     1       3.023   2.678  18.976  0.00  0.00    +0.000 A 
ATOM      7  C   UNL     1       3.656   2.345  17.774  0.00  0.00    +0.000 A 
ATOM      8  C   UNL     1       4.063   3.332  16.877  0.00  0.00    +0.000 A 
ATOM      9  C   UNL     1       3.769   4.688  17.107  0.00  0.00    +0.000 A 
ATOM     10  C   UNL     1       3.100   5.047  18.298  0.00  0.00    +0.000 A 
ATOM     11  C   UNL     1       2.561   6.242  18.864  0.00  0.00    +0.000 A 
ATOM     12  C   UNL     1       2.324   7.571  18.464  0.00  0.00    +0.000 A 
ATOM     13  C   UNL     1       1.774   8.520  19.370  0.00  0.00    +0.000 A 
ENDROOT
BRANCH   1  16
ATOM     14  C   UNL     1      -0.149   9.066  22.200  0.00  0.00    +0.000 C 
ATOM     15  O   UNL     1      -1.011   8.255  21.862  0.00  0.00    +0.000 OA
ATOM     16  N   UNL     1       1.168   9.051  21.752  0.00  0.00    +0.000 N 
ATOM     17  H   UNL     1       1.860   9.434  22.382  0.00  0.00    +0.000 HD
BRANCH  14  18
ATOM     18  C   UNL     1      -0.508  10.185  23.149  0.00  0.00    +0.000 C 
BRANCH  18  24
ATOM     19  C   UNL     1      -0.206  12.214  21.606  0.00  0.00    +0.000 A 
ATOM     20  C   UNL     1      -0.730  13.398  21.071  0.00  0.00    +0.000 A 
ATOM     21  C   UNL     1      -2.029  13.818  21.385  0.00  0.00    +0.000 A 
ATOM     22  C   UNL     1      -2.810  13.054  22.246  0.00  0.00    +0.000 A 
ATOM     23  C   UNL     1      -2.296  11.870  22.769  0.00  0.00    +0.000 A 
ATOM     24  C   UNL     1      -0.995  11.432  22.462  0.00  0.00    +0.000 A 
BRANCH  19  26
ATOM     25  C   UNL     1       1.751  12.839  20.436  0.00  0.00    +0.000 C 
ATOM     26  O   UNL     1       1.138  12.013  21.426  0.00  0.00    +0.000 OA
ENDBRANCH  19  26
ENDBRANCH  18  24
ENDBRANCH  14  18
ENDBRANCH   1  16
BRANCH  13  27
ATOM     27  O   UNL     1       1.512   9.693  18.717  0.00  0.00    +0.000 OA
ATOM     28  C   UNL     1       0.195  10.100  18.411  0.00  0.00    +0.000 C 
ENDBRANCH  13  27
TORSDOF 5
ENDMDL
MODEL 6
REMARK VINA RESULT:      -7.3      1.171      1.288
REMARK  Name = 
REMARK  7 active torsions:
REMARK  status: ('A' for Active; 'I' for Inactive)
REMARK    1  A    between atoms: C_1  and  O_2
REMARK    2  A    between atoms: O_2  and  C_3
REMARK    3  A    between atoms: C_8  and  C_9
REMARK    4  A    between atoms: C_9  and  C_10
REMARK    5  A    between atoms: N_12  and  C_13
REMARK    6  A    between atoms: C_25  and  O_26
REMARK    7  A    between atoms: O_26  and  C_27
REMARK                            x       y       z     vdW  Elec       q    Type
REMARK                         _______ _______ _______ _____ _____    ______ ____
ROOT
ATOM      1  C   UNL     1       2.625   6.057  19.034  0.00  0.00    +0.000 A 
ATOM      2  C   UNL     1       2.591   7.222  18.236  0.00  0.00    +0.000 A 
ATOM      3  C   UNL     1       1.962   8.358  18.734  0.00  0.00    +0.000 A 
ATOM      4  O   UNL     1       1.759   9.506  18.038  0.00  0.00    +0.000 OA
ATOM      5  C   UNL     1       1.170  10.382  18.900  0.00  0.00    +0.000 A 
ATOM      6  C   UNL     1       0.746  11.667  18.561  0.00  0.00    +0.000 A 
ATOM      7  C   UNL     1       0.256  12.453  19.609  0.00  0.00    +0.000 A 
ATOM      8  C   UNL     1       0.223  11.969  20.917  0.00  0.00    +0.000 A 
ATOM      9  C   UNL     1       0.594  10.645  21.211  0.00  0.00    +0.000 A 
ATOM     10  C   UNL     1       1.060   9.820  20.164  0.00  0.00    +0.000 A 
ATOM     11  C   UNL     1       1.445   8.453  20.015  0.00  0.00    +0.000 A 
ATOM     12  C   UNL     1       1.419   7.272  20.782  0.00  0.00    +0.000 A 
ATOM     13  C   UNL     1       1.952   6.056  20.270  0.00  0.00    +0.000 A 
ENDROOT
BRANCH   1  16
ATOM     14  C   UNL     1       4.617   4.643  18.860  0.00  0.00    +0.000 C 
ATOM     15  O   UNL     1       5.217   5.191  19.785  0.00  0.00    +0.000 OA
ATOM     16  N   UNL     1       3.317   4.947  18.473  0.00  0.00    +0.000 N 
ATOM     17  H   UNL     1       2.788   4.196  18.049  0.00  0.00    +0.000 HD
BRANCH  14  18
ATOM     18  C   UNL     1       5.313   3.576  18.050  0.00  0.00    +0.000 C 
BRANCH  18  24
ATOM     19  C   UNL     1       7.061   4.783  16.608  0.00  0.00    +0.000 A 
ATOM     20  C   UNL     1       7.450   5.260  15.350  0.00  0.00    +0.000 A 
ATOM     21  C   UNL     1       6.653   5.043  14.219  0.00  0.00    +0.000 A 
ATOM     22  C   UNL     1       5.454   4.348  14.344  0.00  0.00    +0.000 A 
ATOM     23  C   UNL     1       5.072   3.861  15.592  0.00  0.00    +0.000 A 
ATOM     24  C   UNL     1       5.860   4.068  16.738  0.00  0.00    +0.000 A 
BRANCH  19  26
ATOM     25  C   UNL     1       7.652   6.639  17.949  0.00  0.00    +0.000 C 
ATOM     26  O   UNL     1       7.783   5.244  17.678  0.00  0.00    +0.000 OA
ENDBRANCH  19  26
ENDBRANCH  18  24
ENDBRANCH  14  18
ENDBRANCH   1  16
BRANCH  13  27
ATOM     27  O   UNL     1       1.691   5.030  21.135  0.00  0.00    +0.000 OA
ATOM     28  C   UNL     1       1.097   3.823  20.707  0.00  0.00    +0.000 C 
ENDBRANCH  13  27
TORSDOF 5
ENDMDL
MODEL 7
REMARK VINA RESULT:      -7.3      1.340      2.228
REMARK  Name = 
REMARK  7 active torsions:
REMARK  status: ('A' for Active; 'I' for Inactive)
REMARK    1  A    between atoms: C_1  and  O_2
REMARK    2  A    between atoms: O_2  and  C_3
REMARK    3  A    between atoms: C_8  and  C_9
REMARK    4  A    between atoms: C_9  and  C_10
REMARK    5  A    between atoms: N_12  and  C_13
REMARK    6  A    between atoms: C_25  and  O_26
REMARK    7  A    between atoms: O_26  and  C_27
REMARK                            x       y       z     vdW  Elec       q    Type
REMARK                         _______ _______ _______ _____ _____    ______ ____
ROOT
ATOM      1  C   UNL     1       2.260   7.381  19.440  0.00  0.00    +0.000 A 
ATOM      2  C   UNL     1       1.790   8.646  19.020  0.00  0.00    +0.000 A 
ATOM      3  C   UNL     1       0.898   9.334  19.834  0.00  0.00    +0.000 A 
ATOM      4  O   UNL     1       0.283  10.500  19.508  0.00  0.00    +0.000 OA
ATOM      5  C   UNL     1      -0.455  10.865  20.594  0.00  0.00    +0.000 A 
ATOM      6  C   UNL     1      -1.284  11.985  20.651  0.00  0.00    +0.000 A 
ATOM      7  C   UNL     1      -1.882  12.250  21.887  0.00  0.00    +0.000 A 
ATOM      8  C   UNL     1      -1.633  11.441  22.995  0.00  0.00    +0.000 A 
ATOM      9  C   UNL     1      -0.846  10.280  22.885  0.00  0.00    +0.000 A 
ATOM     10  C   UNL     1      -0.259   9.972  21.638  0.00  0.00    +0.000 A 
ATOM     11  C   UNL     1       0.509   8.900  21.090  0.00  0.00    +0.000 A 
ATOM     12  C   UNL     1       0.924   7.611  21.477  0.00  0.00    +0.000 A 
ATOM     13  C   UNL     1       1.749   6.823  20.626  0.00  0.00    +0.000 A 
ENDROOT
BRANCH   1  16
ATOM     14  C   UNL     1       2.854   5.622  17.843  0.00  0.00    +0.000 C 
ATOM     15  O   UNL     1       1.717   5.157  17.770  0.00  0.00    +0.000 OA
ATOM     16  N   UNL     1       3.198   6.755  18.573  0.00  0.00    +0.000 N 
ATOM     17  H   UNL     1       3.988   7.285  18.229  0.00  0.00    +0.000 HD
BRANCH  14  18
ATOM     18  C   UNL     1       3.988   4.933  17.122  0.00  0.00    +0.000 C 
BRANCH  18  24
ATOM     19  C   UNL     1       6.286   5.984  16.671  0.00  0.00    +0.000 A 
ATOM     20  C   UNL     1       7.559   6.327  17.147  0.00  0.00    +0.000 A 
ATOM     21  C   UNL     1       7.917   6.091  18.480  0.00  0.00    +0.000 A 
ATOM     22  C   UNL     1       7.000   5.503  19.346  0.00  0.00    +0.000 A 
ATOM     23  C   UNL     1       5.730   5.174  18.878  0.00  0.00    +0.000 A 
ATOM     24  C   UNL     1       5.353   5.405  17.544  0.00  0.00    +0.000 A 
BRANCH  19  26
ATOM     25  C   UNL     1       6.689   4.956  14.580  0.00  0.00    +0.000 C 
ATOM     26  O   UNL     1       6.115   6.039  15.312  0.00  0.00    +0.000 OA
ENDBRANCH  19  26
ENDBRANCH  18  24
ENDBRANCH  14  18
ENDBRANCH   1  16
BRANCH  13  27
ATOM     27  O   UNL     1       1.904   5.571  21.154  0.00  0.00    +0.000 OA
ATOM     28  C   UNL     1       1.146   4.469  20.700  0.00  0.00    +0.000 C 
ENDBRANCH  13  27
TORSDOF 5
ENDMDL
MODEL 8
REMARK VINA RESULT:      -7.3      1.534      2.535
REMARK  Name = 
REMARK  7 active torsions:
REMARK  status: ('A' for Active; 'I' for Inactive)
REMARK    1  A    between atoms: C_1  and  O_2
REMARK    2  A    between atoms: O_2  and  C_3
REMARK    3  A    between atoms: C_8  and  C_9
REMARK    4  A    between atoms: C_9  and  C_10
REMARK    5  A    between atoms: N_12  and  C_13
REMARK    6  A    between atoms: C_25  and  O_26
REMARK    7  A    between atoms: O_26  and  C_27
REMARK                            x       y       z     vdW  Elec       q    Type
REMARK                         _______ _______ _______ _____ _____    ______ ____
ROOT
ATOM      1  C   UNL     1       2.310   6.699  19.091  0.00  0.00    +0.000 A 
ATOM      2  C   UNL     1       1.710   6.724  20.370  0.00  0.00    +0.000 A 
ATOM      3  C   UNL     1       1.129   7.905  20.815  0.00  0.00    +0.000 A 
ATOM      4  O   UNL     1       0.617   8.104  22.058  0.00  0.00    +0.000 OA
ATOM      5  C   UNL     1       0.097   9.363  22.065  0.00  0.00    +0.000 A 
ATOM      6  C   UNL     1      -0.480   9.978  23.176  0.00  0.00    +0.000 A 
ATOM      7  C   UNL     1      -1.049  11.237  22.960  0.00  0.00    +0.000 A 
ATOM      8  C   UNL     1      -1.051  11.818  21.692  0.00  0.00    +0.000 A 
ATOM      9  C   UNL     1      -0.400  11.201  20.609  0.00  0.00    +0.000 A 
ATOM     10  C   UNL     1       0.213   9.945  20.810  0.00  0.00    +0.000 A 
ATOM     11  C   UNL     1       1.014   9.047  20.041  0.00  0.00    +0.000 A 
ATOM     12  C   UNL     1       1.671   9.042  18.795  0.00  0.00    +0.000 A 
ATOM     13  C   UNL     1       2.374   7.890  18.344  0.00  0.00    +0.000 A 
ENDROOT
BRANCH   1  16
ATOM     14  C   UNL     1       4.114   5.043  19.108  0.00  0.00    +0.000 C 
ATOM     15  O   UNL     1       4.796   5.638  19.941  0.00  0.00    +0.000 OA
ATOM     16  N   UNL     1       2.851   5.446  18.689  0.00  0.00    +0.000 N 
ATOM     17  H   UNL     1       2.226   4.712  18.381  0.00  0.00    +0.000 HD
BRANCH  14  18
ATOM     18  C   UNL     1       4.658   3.795  18.454  0.00  0.00    +0.000 C 
BRANCH  18  24
ATOM     19  C   UNL     1       6.837   4.416  17.247  0.00  0.00    +0.000 A 
ATOM     20  C   UNL     1       7.496   4.714  16.047  0.00  0.00    +0.000 A 
ATOM     21  C   UNL     1       6.818   4.674  14.823  0.00  0.00    +0.000 A 
ATOM     22  C   UNL     1       5.468   4.340  14.794  0.00  0.00    +0.000 A 
ATOM     23  C   UNL     1       4.813   4.030  15.984  0.00  0.00    +0.000 A 
ATOM     24  C   UNL     1       5.479   4.063  17.222  0.00  0.00    +0.000 A 
BRANCH  19  26
ATOM     25  C   UNL     1       7.800   6.091  18.610  0.00  0.00    +0.000 C 
ATOM     26  O   UNL     1       7.519   4.707  18.399  0.00  0.00    +0.000 OA
ENDBRANCH  19  26
ENDBRANCH  18  24
ENDBRANCH  14  18
ENDBRANCH   1  16
BRANCH  13  27
ATOM     27  O   UNL     1       3.036   8.171  17.181  0.00  0.00    +0.000 OA
ATOM     28  C   UNL     1       4.302   7.617  16.888  0.00  0.00    +0.000 C 
ENDBRANCH  13  27
TORSDOF 5
ENDMDL
MODEL 9
REMARK VINA RESULT:      -7.3      1.788      8.059
REMARK  Name = 
REMARK  7 active torsions:
REMARK  status: ('A' for Active; 'I' for Inactive)
REMARK    1  A    between atoms: C_1  and  O_2
REMARK    2  A    between atoms: O_2  and  C_3
REMARK    3  A    between atoms: C_8  and  C_9
REMARK    4  A    between atoms: C_9  and  C_10
REMARK    5  A    between atoms: N_12  and  C_13
REMARK    6  A    between atoms: C_25  and  O_26
REMARK    7  A    between atoms: O_26  and  C_27
REMARK                            x       y       z     vdW  Elec       q    Type
REMARK                         _______ _______ _______ _____ _____    ______ ____
ROOT
ATOM      1  C   UNL     1       4.387   5.106  17.936  0.00  0.00    +0.000 A 
ATOM      2  C   UNL     1       5.209   5.900  17.106  0.00  0.00    +0.000 A 
ATOM      3  C   UNL     1       5.702   5.351  15.928  0.00  0.00    +0.000 A 
ATOM      4  O   UNL     1       6.587   5.956  15.094  0.00  0.00    +0.000 OA
ATOM      5  C   UNL     1       6.761   5.114  14.037  0.00  0.00    +0.000 A 
ATOM      6  C   UNL     1       7.638   5.341  12.977  0.00  0.00    +0.000 A 
ATOM      7  C   UNL     1       7.603   4.409  11.935  0.00  0.00    +0.000 A 
ATOM      8  C   UNL     1       6.717   3.332  11.962  0.00  0.00    +0.000 A 
ATOM      9  C   UNL     1       5.895   3.096  13.079  0.00  0.00    +0.000 A 
ATOM     10  C   UNL     1       5.938   4.004  14.159  0.00  0.00    +0.000 A 
ATOM     11  C   UNL     1       5.358   4.093  15.461  0.00  0.00    +0.000 A 
ATOM     12  C   UNL     1       4.595   3.280  16.322  0.00  0.00    +0.000 A 
ATOM     13  C   UNL     1       4.161   3.762  17.588  0.00  0.00    +0.000 A 
ENDROOT
BRANCH   1  16
ATOM     14  C   UNL     1       2.526   5.927  19.301  0.00  0.00    +0.000 C 
ATOM     15  O   UNL     1       1.649   5.444  18.586  0.00  0.00    +0.000 OA
ATOM     16  N   UNL     1       3.891   5.748  19.105  0.00  0.00    +0.000 N 
ATOM     17  H   UNL     1       4.471   5.788  19.934  0.00  0.00    +0.000 HD
BRANCH  14  18
ATOM     18  C   UNL     1       2.137   6.798  20.471  0.00  0.00    +0.000 C 
BRANCH  18  24
ATOM     19  C   UNL     1       1.099   9.095  20.960  0.00  0.00    +0.000 A 
ATOM     20  C   UNL     1       0.666  10.338  20.480  0.00  0.00    +0.000 A 
ATOM     21  C   UNL     1       0.818  10.683  19.131  0.00  0.00    +0.000 A 
ATOM     22  C   UNL     1       1.401   9.778  18.250  0.00  0.00    +0.000 A 
ATOM     23  C   UNL     1       1.845   8.547  18.728  0.00  0.00    +0.000 A 
ATOM     24  C   UNL     1       1.703   8.185  20.079  0.00  0.00    +0.000 A 
BRANCH  19  26
ATOM     25  C   UNL     1      -0.403   9.516  22.736  0.00  0.00    +0.000 C 
ATOM     26  O   UNL     1       0.699   8.765  22.228  0.00  0.00    +0.000 OA
ENDBRANCH  19  26
ENDBRANCH  18  24
ENDBRANCH  14  18
ENDBRANCH   1  16
BRANCH  13  27
ATOM     27  O   UNL     1       3.560   2.754  18.290  0.00  0.00    +0.000 OA
ATOM     28  C   UNL     1       2.360   2.151  17.854  0.00  0.00    +0.000 C 
ENDBRANCH  13  27
TORSDOF 5
ENDMDL
