MODEL 1
REMARK VINA RESULT:      -7.0      0.000      0.000
REMARK  Name = 
REMARK  9 active torsions:
REMARK  status: ('A' for Active; 'I' for Inactive)
REMARK    1  A    between atoms: C_1  and  O_2
REMARK    2  A    between atoms: O_2  and  C_3
REMARK    3  A    between atoms: C_6  and  C_7
REMARK    4  A    between atoms: C_7  and  C_9
REMARK    5  A    between atoms: C_9  and  C_10
REMARK    6  A    between atoms: C_13  and  O_14
REMARK    7  A    between atoms: O_14  and  C_15
REMARK    8  A    between atoms: C_16  and  O_17
REMARK    9  A    between atoms: O_17  and  C_18
REMARK                            x       y       z     vdW  Elec       q    Type
REMARK                         _______ _______ _______ _____ _____    ______ ____
ROOT
ATOM      1  C   UNL     1       4.132   3.316  17.625  0.00  0.00    +0.000 C 
ENDROOT
BRANCH   1   2
ATOM      2  C   UNL     1       5.112   3.932  16.656  0.00  0.00    +0.000 A 
ATOM      3  C   UNL     1       5.259   3.478  15.348  0.00  0.00    +0.000 A 
ATOM      4  C   UNL     1       6.191   4.077  14.498  0.00  0.00    +0.000 A 
ATOM      5  C   UNL     1       7.008   5.131  14.933  0.00  0.00    +0.000 A 
ATOM      6  C   UNL     1       6.900   5.578  16.262  0.00  0.00    +0.000 A 
ATOM      7  C   UNL     1       5.963   4.960  17.108  0.00  0.00    +0.000 A 
BRANCH   5   8
ATOM      8  O   UNL     1       7.831   5.592  13.938  0.00  0.00    +0.000 OA
ATOM      9  C   UNL     1       7.722   5.031  12.638  0.00  0.00    +0.000 C 
ENDBRANCH   5   8
BRANCH   6  10
ATOM     10  O   UNL     1       7.717   6.594  16.678  0.00  0.00    +0.000 OA
ATOM     11  C   UNL     1       7.682   6.975  18.046  0.00  0.00    +0.000 C 
ENDBRANCH   6  10
ENDBRANCH   1   2
BRANCH   1  12
ATOM     12  C   UNL     1       2.751   3.946  17.658  0.00  0.00    +0.000 C 
ATOM     13  O   UNL     1       1.819   3.493  16.997  0.00  0.00    +0.000 OA
BRANCH  12  17
ATOM     14  C   UNL     1       1.921   7.365  20.118  0.00  0.00    +0.000 A 
ATOM     15  C   UNL     1       2.455   7.516  18.836  0.00  0.00    +0.000 A 
ATOM     16  C   UNL     1       2.744   6.394  18.056  0.00  0.00    +0.000 A 
ATOM     17  C   UNL     1       2.504   5.109  18.556  0.00  0.00    +0.000 A 
ATOM     18  C   UNL     1       2.029   4.954  19.862  0.00  0.00    +0.000 A 
ATOM     19  C   UNL     1       1.740   6.083  20.640  0.00  0.00    +0.000 A 
BRANCH  14  21
ATOM     20  C   UNL     1       0.595   9.313  20.228  0.00  0.00    +0.000 C 
ATOM     21  O   UNL     1       1.649   8.530  20.779  0.00  0.00    +0.000 OA
ENDBRANCH  14  21
ENDBRANCH  12  17
ENDBRANCH   1  12
TORSDOF 6
ENDMDL
MODEL 2
REMARK VINA RESULT:      -7.0      0.835      2.596
REMARK  Name = 
REMARK  9 active torsions:
REMARK  status: ('A' for Active; 'I' for Inactive)
REMARK    1  A    between atoms: C_1  and  O_2
REMARK    2  A    between atoms: O_2  and  C_3
REMARK    3  A    between atoms: C_6  and  C_7
REMARK    4  A    between atoms: C_7  and  C_9
REMARK    5  A    between atoms: C_9  and  C_10
REMARK    6  A    between atoms: C_13  and  O_14
REMARK    7  A    between atoms: O_14  and  C_15
REMARK    8  A    between atoms: C_16  and  O_17
REMARK    9  A    between atoms: O_17  and  C_18
REMARK                            x       y       z     vdW  Elec       q    Type
REMARK                         _______ _______ _______ _____ _____    ______ ____
ROOT
ATOM      1  C   UNL     1       4.025   3.116  18.029  0.00  0.00    +0.000 C 
ENDROOT
BRANCH   1   2
ATOM      2  C   UNL     1       5.067   4.153  17.684  0.00  0.00    +0.000 A 
ATOM      3  C   UNL     1       5.675   4.954  18.647  0.00  0.00    +0.000 A 
ATOM      4  C   UNL     1       6.624   5.906  18.270  0.00  0.00    +0.000 A 
ATOM      5  C   UNL     1       6.979   6.094  16.926  0.00  0.00    +0.000 A 
ATOM      6  C   UNL     1       6.348   5.321  15.936  0.00  0.00    +0.000 A 
ATOM      7  C   UNL     1       5.389   4.372  16.331  0.00  0.00    +0.000 A 
BRANCH   5   8
ATOM      8  O   UNL     1       7.945   7.057  16.777  0.00  0.00    +0.000 OA
ATOM      9  C   UNL     1       7.930   8.188  17.634  0.00  0.00    +0.000 C 
ENDBRANCH   5   8
BRANCH   6  10
ATOM     10  O   UNL     1       6.691   5.529  14.628  0.00  0.00    +0.000 OA
ATOM     11  C   UNL     1       6.572   4.446  13.715  0.00  0.00    +0.000 C 
ENDBRANCH   6  10
ENDBRANCH   1   2
BRANCH   1  12
ATOM     12  C   UNL     1       2.590   3.610  18.069  0.00  0.00    +0.000 C 
ATOM     13  O   UNL     1       1.664   2.939  17.619  0.00  0.00    +0.000 OA
BRANCH  12  17
ATOM     14  C   UNL     1       1.853   7.329  20.082  0.00  0.00    +0.000 A 
ATOM     15  C   UNL     1       1.674   6.110  20.739  0.00  0.00    +0.000 A 
ATOM     16  C   UNL     1       1.892   4.907  20.064  0.00  0.00    +0.000 A 
ATOM     17  C   UNL     1       2.289   4.915  18.722  0.00  0.00    +0.000 A 
ATOM     18  C   UNL     1       2.409   6.132  18.046  0.00  0.00    +0.000 A 
ATOM     19  C   UNL     1       2.189   7.337  18.727  0.00  0.00    +0.000 A 
BRANCH  14  21
ATOM     20  C   UNL     1       0.774   9.418  20.278  0.00  0.00    +0.000 C 
ATOM     21  O   UNL     1       1.642   8.442  20.846  0.00  0.00    +0.000 OA
ENDBRANCH  14  21
ENDBRANCH  12  17
ENDBRANCH   1  12
TORSDOF 6
ENDMDL
MODEL 3
REMARK VINA RESULT:      -6.9      0.953      2.410
REMARK  Name = 
REMARK  9 active torsions:
REMARK  status: ('A' for Active; 'I' for Inactive)
REMARK    1  A    between atoms: C_1  and  O_2
REMARK    2  A    between atoms: O_2  and  C_3
REMARK    3  A    between atoms: C_6  and  C_7
REMARK    4  A    between atoms: C_7  and  C_9
REMARK    5  A    between atoms: C_9  and  C_10
REMARK    6  A    between atoms: C_13  and  O_14
REMARK    7  A    between atoms: O_14  and  C_15
REMARK    8  A    between atoms: C_16  and  O_17
REMARK    9  A    between atoms: O_17  and  C_18
REMARK                            x       y       z     vdW  Elec       q    Type
REMARK                         _______ _______ _______ _____ _____    ______ ____
ROOT
ATOM      1  C   UNL     1       3.858   3.144  18.002  0.00  0.00    +0.000 C 
ENDROOT
BRANCH   1   2
ATOM      2  C   UNL     1       4.930   4.153  17.661  0.00  0.00    +0.000 A 
ATOM      3  C   UNL     1       5.569   4.923  18.629  0.00  0.00    +0.000 A 
ATOM      4  C   UNL     1       6.544   5.850  18.256  0.00  0.00    +0.000 A 
ATOM      5  C   UNL     1       6.896   6.042  16.912  0.00  0.00    +0.000 A 
ATOM      6  C   UNL     1       6.235   5.301  15.918  0.00  0.00    +0.000 A 
ATOM      7  C   UNL     1       5.249   4.377  16.308  0.00  0.00    +0.000 A 
BRANCH   5   8
ATOM      8  O   UNL     1       7.890   6.976  16.767  0.00  0.00    +0.000 OA
ATOM      9  C   UNL     1       7.922   8.092  17.644  0.00  0.00    +0.000 C 
ENDBRANCH   5   8
BRANCH   6  10
ATOM     10  O   UNL     1       6.575   5.513  14.609  0.00  0.00    +0.000 OA
ATOM     11  C   UNL     1       6.523   4.416  13.708  0.00  0.00    +0.000 C 
ENDBRANCH   6  10
ENDBRANCH   1   2
BRANCH   1  12
ATOM     12  C   UNL     1       2.454   3.700  18.155  0.00  0.00    +0.000 C 
ATOM     13  O   UNL     1       1.468   3.077  17.766  0.00  0.00    +0.000 OA
BRANCH  12  17
ATOM     14  C   UNL     1       1.757   7.503  20.020  0.00  0.00    +0.000 A 
ATOM     15  C   UNL     1       2.094   7.418  18.668  0.00  0.00    +0.000 A 
ATOM     16  C   UNL     1       2.344   6.176  18.080  0.00  0.00    +0.000 A 
ATOM     17  C   UNL     1       2.261   5.007  18.844  0.00  0.00    +0.000 A 
ATOM     18  C   UNL     1       1.984   5.095  20.211  0.00  0.00    +0.000 A 
ATOM     19  C   UNL     1       1.734   6.343  20.796  0.00  0.00    +0.000 A 
BRANCH  14  21
ATOM     20  C   UNL     1       1.206   8.857  21.871  0.00  0.00    +0.000 C 
ATOM     21  O   UNL     1       1.505   8.764  20.482  0.00  0.00    +0.000 OA
ENDBRANCH  14  21
ENDBRANCH  12  17
ENDBRANCH   1  12
TORSDOF 6
ENDMDL
MODEL 4
REMARK VINA RESULT:      -6.8      1.223      1.474
REMARK  Name = 
REMARK  9 active torsions:
REMARK  status: ('A' for Active; 'I' for Inactive)
REMARK    1  A    between atoms: C_1  and  O_2
REMARK    2  A    between atoms: O_2  and  C_3
REMARK    3  A    between atoms: C_6  and  C_7
REMARK    4  A    between atoms: C_7  and  C_9
REMARK    5  A    between atoms: C_9  and  C_10
REMARK    6  A    between atoms: C_13  and  O_14
REMARK    7  A    between atoms: O_14  and  C_15
REMARK    8  A    between atoms: C_16  and  O_17
REMARK    9  A    between atoms: O_17  and  C_18
REMARK                            x       y       z     vdW  Elec       q    Type
REMARK                         _______ _______ _______ _____ _____    ______ ____
ROOT
ATOM      1  C   UNL     1       4.290   4.381  19.224  0.00  0.00    +0.000 C 
ENDROOT
BRANCH   1   2
ATOM      2  C   UNL     1       5.015   4.623  17.920  0.00  0.00    +0.000 A 
ATOM      3  C   UNL     1       4.773   3.867  16.776  0.00  0.00    +0.000 A 
ATOM      4  C   UNL     1       5.481   4.126  15.602  0.00  0.00    +0.000 A 
ATOM      5  C   UNL     1       6.456   5.133  15.542  0.00  0.00    +0.000 A 
ATOM      6  C   UNL     1       6.741   5.881  16.697  0.00  0.00    +0.000 A 
ATOM      7  C   UNL     1       6.025   5.603  17.874  0.00  0.00    +0.000 A 
BRANCH   5   8
ATOM      8  O   UNL     1       7.011   5.240  14.292  0.00  0.00    +0.000 OA
ATOM      9  C   UNL     1       6.735   4.237  13.326  0.00  0.00    +0.000 C 
ENDBRANCH   5   8
BRANCH   6  10
ATOM     10  O   UNL     1       7.709   6.846  16.628  0.00  0.00    +0.000 OA
ATOM     11  C   UNL     1       7.710   7.876  17.608  0.00  0.00    +0.000 C 
ENDBRANCH   6  10
ENDBRANCH   1   2
BRANCH   1  12
ATOM     12  C   UNL     1       2.817   4.747  19.238  0.00  0.00    +0.000 C 
ATOM     13  O   UNL     1       1.939   3.887  19.239  0.00  0.00    +0.000 OA
BRANCH  12  17
ATOM     14  C   UNL     1       1.567   8.852  19.308  0.00  0.00    +0.000 A 
ATOM     15  C   UNL     1       2.098   8.284  18.149  0.00  0.00    +0.000 A 
ATOM     16  C   UNL     1       2.525   6.954  18.147  0.00  0.00    +0.000 A 
ATOM     17  C   UNL     1       2.427   6.182  19.311  0.00  0.00    +0.000 A 
ATOM     18  C   UNL     1       1.953   6.768  20.488  0.00  0.00    +0.000 A 
ATOM     19  C   UNL     1       1.526   8.102  20.485  0.00  0.00    +0.000 A 
BRANCH  14  21
ATOM     20  C   UNL     1       0.112  10.544  20.075  0.00  0.00    +0.000 C 
ATOM     21  O   UNL     1       1.153  10.150  19.188  0.00  0.00    +0.000 OA
ENDBRANCH  14  21
ENDBRANCH  12  17
ENDBRANCH   1  12
TORSDOF 6
ENDMDL
MODEL 5
REMARK VINA RESULT:      -6.6      1.054      1.579
REMARK  Name = 
REMARK  9 active torsions:
REMARK  status: ('A' for Active; 'I' for Inactive)
REMARK    1  A    between atoms: C_1  and  O_2
REMARK    2  A    between atoms: O_2  and  C_3
REMARK    3  A    between atoms: C_6  and  C_7
REMARK    4  A    between atoms: C_7  and  C_9
REMARK    5  A    between atoms: C_9  and  C_10
REMARK    6  A    between atoms: C_13  and  O_14
REMARK    7  A    between atoms: O_14  and  C_15
REMARK    8  A    between atoms: C_16  and  O_17
REMARK    9  A    between atoms: O_17  and  C_18
REMARK                            x       y       z     vdW  Elec       q    Type
REMARK                         _______ _______ _______ _____ _____    ______ ____
ROOT
ATOM      1  C   UNL     1       3.964   3.369  19.163  0.00  0.00    +0.000 C 
ENDROOT
BRANCH   1   2
ATOM      2  C   UNL     1       4.877   3.912  18.089  0.00  0.00    +0.000 A 
ATOM      3  C   UNL     1       4.763   3.546  16.751  0.00  0.00    +0.000 A 
ATOM      4  C   UNL     1       5.642   4.070  15.803  0.00  0.00    +0.000 A 
ATOM      5  C   UNL     1       6.666   4.958  16.165  0.00  0.00    +0.000 A 
ATOM      6  C   UNL     1       6.822   5.310  17.517  0.00  0.00    +0.000 A 
ATOM      7  C   UNL     1       5.932   4.768  18.461  0.00  0.00    +0.000 A 
BRANCH   5   8
ATOM      8  O   UNL     1       7.398   5.372  15.081  0.00  0.00    +0.000 OA
ATOM      9  C   UNL     1       7.127   4.805  13.808  0.00  0.00    +0.000 C 
ENDBRANCH   5   8
BRANCH   6  10
ATOM     10  O   UNL     1       7.837   6.162  17.858  0.00  0.00    +0.000 OA
ATOM     11  C   UNL     1       7.641   7.557  17.674  0.00  0.00    +0.000 C 
ENDBRANCH   6  10
ENDBRANCH   1   2
BRANCH   1  12
ATOM     12  C   UNL     1       2.524   3.849  19.109  0.00  0.00    +0.000 C 
ATOM     13  O   UNL     1       1.585   3.061  19.024  0.00  0.00    +0.000 OA
BRANCH  12  17
ATOM     14  C   UNL     1       1.835   8.061  19.568  0.00  0.00    +0.000 A 
ATOM     15  C   UNL     1       1.648   7.183  20.637  0.00  0.00    +0.000 A 
ATOM     16  C   UNL     1       1.851   5.811  20.467  0.00  0.00    +0.000 A 
ATOM     17  C   UNL     1       2.240   5.307  19.221  0.00  0.00    +0.000 A 
ATOM     18  C   UNL     1       2.368   6.177  18.134  0.00  0.00    +0.000 A 
ATOM     19  C   UNL     1       2.163   7.552  18.310  0.00  0.00    +0.000 A 
BRANCH  14  21
ATOM     20  C   UNL     1       0.441   9.683  20.563  0.00  0.00    +0.000 C 
ATOM     21  O   UNL     1       1.639   9.382  19.855  0.00  0.00    +0.000 OA
ENDBRANCH  14  21
ENDBRANCH  12  17
ENDBRANCH   1  12
TORSDOF 6
ENDMDL
MODEL 6
REMARK VINA RESULT:      -6.6      1.619      6.877
REMARK  Name = 
REMARK  9 active torsions:
REMARK  status: ('A' for Active; 'I' for Inactive)
REMARK    1  A    between atoms: C_1  and  O_2
REMARK    2  A    between atoms: O_2  and  C_3
REMARK    3  A    between atoms: C_6  and  C_7
REMARK    4  A    between atoms: C_7  and  C_9
REMARK    5  A    between atoms: C_9  and  C_10
REMARK    6  A    between atoms: C_13  and  O_14
REMARK    7  A    between atoms: O_14  and  C_15
REMARK    8  A    between atoms: C_16  and  O_17
REMARK    9  A    between atoms: O_17  and  C_18
REMARK                            x       y       z     vdW  Elec       q    Type
REMARK                         _______ _______ _______ _____ _____    ______ ____
ROOT
ATOM      1  C   UNL     1       2.653   5.629  20.201  0.00  0.00    +0.000 C 
ENDROOT
BRANCH   1   2
ATOM      2  C   UNL     1       2.139   6.995  19.812  0.00  0.00    +0.000 A 
ATOM      3  C   UNL     1       2.382   7.560  18.563  0.00  0.00    +0.000 A 
ATOM      4  C   UNL     1       1.894   8.832  18.261  0.00  0.00    +0.000 A 
ATOM      5  C   UNL     1       1.165   9.578  19.199  0.00  0.00    +0.000 A 
ATOM      6  C   UNL     1       0.942   9.041  20.478  0.00  0.00    +0.000 A 
ATOM      7  C   UNL     1       1.447   7.761  20.770  0.00  0.00    +0.000 A 
BRANCH   5   8
ATOM      8  O   UNL     1       0.757  10.786  18.693  0.00  0.00    +0.000 OA
ATOM      9  C   UNL     1       1.668  11.875  18.687  0.00  0.00    +0.000 C 
ENDBRANCH   5   8
BRANCH   6  10
ATOM     10  O   UNL     1       0.247   9.788  21.389  0.00  0.00    +0.000 OA
ATOM     11  C   UNL     1       0.321   9.427  22.762  0.00  0.00    +0.000 C 
ENDBRANCH   6  10
ENDBRANCH   1   2
BRANCH   1  12
ATOM     12  C   UNL     1       2.789   4.628  19.069  0.00  0.00    +0.000 C 
ATOM     13  O   UNL     1       1.856   3.901  18.734  0.00  0.00    +0.000 OA
BRANCH  12  17
ATOM     14  C   UNL     1       6.404   4.578  16.754  0.00  0.00    +0.000 A 
ATOM     15  C   UNL     1       5.172   4.284  16.167  0.00  0.00    +0.000 A 
ATOM     16  C   UNL     1       4.007   4.278  16.937  0.00  0.00    +0.000 A 
ATOM     17  C   UNL     1       4.067   4.564  18.306  0.00  0.00    +0.000 A 
ATOM     18  C   UNL     1       5.307   4.798  18.907  0.00  0.00    +0.000 A 
ATOM     19  C   UNL     1       6.473   4.802  18.130  0.00  0.00    +0.000 A 
BRANCH  14  21
ATOM     20  C   UNL     1       7.158   4.807  14.531  0.00  0.00    +0.000 C 
ATOM     21  O   UNL     1       7.472   4.584  15.901  0.00  0.00    +0.000 OA
ENDBRANCH  14  21
ENDBRANCH  12  17
ENDBRANCH   1  12
TORSDOF 6
ENDMDL
MODEL 7
REMARK VINA RESULT:      -6.6      1.429      6.827
REMARK  Name = 
REMARK  9 active torsions:
REMARK  status: ('A' for Active; 'I' for Inactive)
REMARK    1  A    between atoms: C_1  and  O_2
REMARK    2  A    between atoms: O_2  and  C_3
REMARK    3  A    between atoms: C_6  and  C_7
REMARK    4  A    between atoms: C_7  and  C_9
REMARK    5  A    between atoms: C_9  and  C_10
REMARK    6  A    between atoms: C_13  and  O_14
REMARK    7  A    between atoms: O_14  and  C_15
REMARK    8  A    between atoms: C_16  and  O_17
REMARK    9  A    between atoms: O_17  and  C_18
REMARK                            x       y       z     vdW  Elec       q    Type
REMARK                         _______ _______ _______ _____ _____    ______ ____
ROOT
ATOM      1  C   UNL     1       2.923   3.860  18.813  0.00  0.00    +0.000 C 
ENDROOT
BRANCH   1   2
ATOM      2  C   UNL     1       2.493   5.204  19.354  0.00  0.00    +0.000 A 
ATOM      3  C   UNL     1       1.859   5.348  20.584  0.00  0.00    +0.000 A 
ATOM      4  C   UNL     1       1.471   6.613  21.029  0.00  0.00    +0.000 A 
ATOM      5  C   UNL     1       1.692   7.761  20.254  0.00  0.00    +0.000 A 
ATOM      6  C   UNL     1       2.296   7.631  18.992  0.00  0.00    +0.000 A 
ATOM      7  C   UNL     1       2.674   6.349  18.554  0.00  0.00    +0.000 A 
BRANCH   5   8
ATOM      8  O   UNL     1       1.261   8.901  20.885  0.00  0.00    +0.000 OA
ATOM      9  C   UNL     1      -0.036   8.922  21.461  0.00  0.00    +0.000 C 
ENDBRANCH   5   8
BRANCH   6  10
ATOM     10  O   UNL     1       2.487   8.757  18.239  0.00  0.00    +0.000 OA
ATOM     11  C   UNL     1       1.345   9.451  17.755  0.00  0.00    +0.000 C 
ENDBRANCH   6  10
ENDBRANCH   1   2
BRANCH   1  12
ATOM     12  C   UNL     1       4.420   3.606  18.791  0.00  0.00    +0.000 C 
ATOM     13  O   UNL     1       4.976   2.956  19.674  0.00  0.00    +0.000 OA
BRANCH  12  17
ATOM     14  C   UNL     1       6.892   4.965  15.557  0.00  0.00    +0.000 A 
ATOM     15  C   UNL     1       7.177   5.321  16.876  0.00  0.00    +0.000 A 
ATOM     16  C   UNL     1       6.349   4.894  17.917  0.00  0.00    +0.000 A 
ATOM     17  C   UNL     1       5.225   4.107  17.643  0.00  0.00    +0.000 A 
ATOM     18  C   UNL     1       4.904   3.801  16.317  0.00  0.00    +0.000 A 
ATOM     19  C   UNL     1       5.737   4.233  15.277  0.00  0.00    +0.000 A 
BRANCH  14  21
ATOM     20  C   UNL     1       7.509   5.030  13.281  0.00  0.00    +0.000 C 
ATOM     21  O   UNL     1       7.785   5.413  14.624  0.00  0.00    +0.000 OA
ENDBRANCH  14  21
ENDBRANCH  12  17
ENDBRANCH   1  12
TORSDOF 6
ENDMDL
MODEL 8
REMARK VINA RESULT:      -6.5      1.276      1.538
REMARK  Name = 
REMARK  9 active torsions:
REMARK  status: ('A' for Active; 'I' for Inactive)
REMARK    1  A    between atoms: C_1  and  O_2
REMARK    2  A    between atoms: O_2  and  C_3
REMARK    3  A    between atoms: C_6  and  C_7
REMARK    4  A    between atoms: C_7  and  C_9
REMARK    5  A    between atoms: C_9  and  C_10
REMARK    6  A    between atoms: C_13  and  O_14
REMARK    7  A    between atoms: O_14  and  C_15
REMARK    8  A    between atoms: C_16  and  O_17
REMARK    9  A    between atoms: O_17  and  C_18
REMARK                            x       y       z     vdW  Elec       q    Type
REMARK                         _______ _______ _______ _____ _____    ______ ____
ROOT
ATOM      1  C   UNL     1       3.349   3.012  19.016  0.00  0.00    +0.000 C 
ENDROOT
BRANCH   1   2
ATOM      2  C   UNL     1       4.451   3.537  18.126  0.00  0.00    +0.000 A 
ATOM      3  C   UNL     1       4.382   3.483  16.737  0.00  0.00    +0.000 A 
ATOM      4  C   UNL     1       5.435   3.973  15.963  0.00  0.00    +0.000 A 
ATOM      5  C   UNL     1       6.587   4.514  16.552  0.00  0.00    +0.000 A 
ATOM      6  C   UNL     1       6.691   4.543  17.954  0.00  0.00    +0.000 A 
ATOM      7  C   UNL     1       5.625   4.039  18.720  0.00  0.00    +0.000 A 
BRANCH   5   8
ATOM      8  O   UNL     1       7.485   4.960  15.617  0.00  0.00    +0.000 OA
ATOM      9  C   UNL     1       7.149   4.872  14.240  0.00  0.00    +0.000 C 
ENDBRANCH   5   8
BRANCH   6  10
ATOM     10  O   UNL     1       7.829   5.056  18.514  0.00  0.00    +0.000 OA
ATOM     11  C   UNL     1       7.902   6.458  18.738  0.00  0.00    +0.000 C 
ENDBRANCH   6  10
ENDBRANCH   1   2
BRANCH   1  12
ATOM     12  C   UNL     1       2.028   3.755  18.940  0.00  0.00    +0.000 C 
ATOM     13  O   UNL     1       0.970   3.169  18.717  0.00  0.00    +0.000 OA
BRANCH  12  17
ATOM     14  C   UNL     1       1.820   7.997  19.558  0.00  0.00    +0.000 A 
ATOM     15  C   UNL     1       2.123   7.469  18.302  0.00  0.00    +0.000 A 
ATOM     16  C   UNL     1       2.214   6.087  18.120  0.00  0.00    +0.000 A 
ATOM     17  C   UNL     1       2.003   5.221  19.200  0.00  0.00    +0.000 A 
ATOM     18  C   UNL     1       1.760   5.750  20.471  0.00  0.00    +0.000 A 
ATOM     19  C   UNL     1       1.671   7.137  20.647  0.00  0.00    +0.000 A 
BRANCH  14  21
ATOM     20  C   UNL     1       0.854   9.953  18.659  0.00  0.00    +0.000 C 
ATOM     21  O   UNL     1       1.728   9.360  19.613  0.00  0.00    +0.000 OA
ENDBRANCH  14  21
ENDBRANCH  12  17
ENDBRANCH   1  12
TORSDOF 6
ENDMDL
MODEL 9
REMARK VINA RESULT:      -6.5      1.960      6.172
REMARK  Name = 
REMARK  9 active torsions:
REMARK  status: ('A' for Active; 'I' for Inactive)
REMARK    1  A    between atoms: C_1  and  O_2
REMARK    2  A    between atoms: O_2  and  C_3
REMARK    3  A    between atoms: C_6  and  C_7
REMARK    4  A    between atoms: C_7  and  C_9
REMARK    5  A    between atoms: C_9  and  C_10
REMARK    6  A    between atoms: C_13  and  O_14
REMARK    7  A    between atoms: O_14  and  C_15
REMARK    8  A    between atoms: C_16  and  O_17
REMARK    9  A    between atoms: O_17  and  C_18
REMARK                            x       y       z     vdW  Elec       q    Type
REMARK                         _______ _______ _______ _____ _____    ______ ____
ROOT
ATOM      1  C   UNL     1       4.442   3.272  16.843  0.00  0.00    +0.000 C 
ENDROOT
BRANCH   1   2
ATOM      2  C   UNL     1       3.644   4.002  17.898  0.00  0.00    +0.000 A 
ATOM      3  C   UNL     1       3.077   5.254  17.677  0.00  0.00    +0.000 A 
ATOM      4  C   UNL     1       2.360   5.888  18.692  0.00  0.00    +0.000 A 
ATOM      5  C   UNL     1       2.202   5.299  19.955  0.00  0.00    +0.000 A 
ATOM      6  C   UNL     1       2.799   4.052  20.209  0.00  0.00    +0.000 A 
ATOM      7  C   UNL     1       3.525   3.429  19.179  0.00  0.00    +0.000 A 
BRANCH   5   8
ATOM      8  O   UNL     1       1.444   6.073  20.796  0.00  0.00    +0.000 OA
ATOM      9  C   UNL     1       1.566   7.486  20.730  0.00  0.00    +0.000 C 
ENDBRANCH   5   8
BRANCH   6  10
ATOM     10  O   UNL     1       2.653   3.498  21.452  0.00  0.00    +0.000 OA
ATOM     11  C   UNL     1       1.506   2.700  21.708  0.00  0.00    +0.000 C 
ENDBRANCH   6  10
ENDBRANCH   1   2
BRANCH   1  12
ATOM     12  C   UNL     1       5.449   4.113  16.078  0.00  0.00    +0.000 C 
ATOM     13  O   UNL     1       5.639   3.954  14.874  0.00  0.00    +0.000 OA
BRANCH  12  17
ATOM     14  C   UNL     1       7.728   7.144  18.088  0.00  0.00    +0.000 A 
ATOM     15  C   UNL     1       7.830   5.803  18.462  0.00  0.00    +0.000 A 
ATOM     16  C   UNL     1       7.063   4.830  17.818  0.00  0.00    +0.000 A 
ATOM     17  C   UNL     1       6.183   5.194  16.792  0.00  0.00    +0.000 A 
ATOM     18  C   UNL     1       6.034   6.543  16.457  0.00  0.00    +0.000 A 
ATOM     19  C   UNL     1       6.805   7.516  17.108  0.00  0.00    +0.000 A 
BRANCH  14  21
ATOM     20  C   UNL     1       8.532   9.352  18.302  0.00  0.00    +0.000 C 
ATOM     21  O   UNL     1       8.546   8.005  18.764  0.00  0.00    +0.000 OA
ENDBRANCH  14  21
ENDBRANCH  12  17
ENDBRANCH   1  12
TORSDOF 6
ENDMDL
