MODEL 1
REMARK VINA RESULT:      -7.4      0.000      0.000
REMARK  Name = 
REMARK  2 active torsions:
REMARK  status: ('A' for Active; 'I' for Inactive)
REMARK    1  A    between atoms: C_2  and  C_11
REMARK    2  A    between atoms: N_3  and  C_4
REMARK                            x       y       z     vdW  Elec       q    Type
REMARK                         _______ _______ _______ _____ _____    ______ ____
ROOT
ATOM      1  O   UNL     1       5.829   4.376  19.520  0.00  0.00    +0.000 OA
ATOM      2  C   UNL     1       5.325   4.673  18.440  0.00  0.00    +0.000 C 
ATOM      3  N   UNL     1       3.983   4.546  18.135  0.00  0.00    +0.000 N 
ATOM      4  H   UNL     1       3.745   4.546  17.145  0.00  0.00    +0.000 HD
ENDROOT
BRANCH   2   5
ATOM      5  C   UNL     1       6.147   5.121  17.339  0.00  0.00    +0.000 A 
ATOM      6  C   UNL     1       7.105   6.155  17.350  0.00  0.00    +0.000 A 
ATOM      7  N   UNL     1       7.700   6.337  16.170  0.00  0.00    +0.000 NA
ATOM      8  N   UNL     1       7.114   5.427  15.357  0.00  0.00    +0.000 N 
ATOM      9  C   UNL     1       7.356   5.217  14.002  0.00  0.00    +0.000 A 
ATOM     10  C   UNL     1       6.683   4.277  13.331  0.00  0.00    +0.000 A 
ATOM     11  C   UNL     1       5.695   3.508  14.138  0.00  0.00    +0.000 A 
ATOM     12  N   UNL     1       5.453   3.661  15.407  0.00  0.00    +0.000 NA
ATOM     13  C   UNL     1       6.168   4.650  16.036  0.00  0.00    +0.000 A 
ENDBRANCH   2   5
BRANCH   3  14
ATOM     14  C   UNL     1       2.996   4.095  19.032  0.00  0.00    +0.000 A 
ATOM     15  C   UNL     1       2.290   4.997  19.836  0.00  0.00    +0.000 A 
ATOM     16  C   UNL     1       1.292   4.539  20.700  0.00  0.00    +0.000 A 
ATOM     17  C   UNL     1       1.016   3.175  20.789  0.00  0.00    +0.000 A 
ATOM     18  C   UNL     1       1.719   2.268  19.995  0.00  0.00    +0.000 A 
ATOM     19  C   UNL     1       2.687   2.729  19.101  0.00  0.00    +0.000 A 
ATOM     20 CL   UNL     1       3.551   1.568  18.154  0.00  0.00    +0.000 Cl
ENDBRANCH   3  14
TORSDOF 2
ENDMDL
MODEL 2
REMARK VINA RESULT:      -7.2      1.327      1.455
REMARK  Name = 
REMARK  2 active torsions:
REMARK  status: ('A' for Active; 'I' for Inactive)
REMARK    1  A    between atoms: C_2  and  C_11
REMARK    2  A    between atoms: N_3  and  C_4
REMARK                            x       y       z     vdW  Elec       q    Type
REMARK                         _______ _______ _______ _____ _____    ______ ____
ROOT
ATOM      1  O   UNL     1       4.034   6.302  18.960  0.00  0.00    +0.000 OA
ATOM      2  C   UNL     1       4.509   5.351  18.345  0.00  0.00    +0.000 C 
ATOM      3  N   UNL     1       4.147   4.031  18.532  0.00  0.00    +0.000 N 
ATOM      4  H   UNL     1       4.801   3.332  18.186  0.00  0.00    +0.000 HD
ENDROOT
BRANCH   2   5
ATOM      5  C   UNL     1       5.584   5.546  17.398  0.00  0.00    +0.000 A 
ATOM      6  C   UNL     1       6.706   6.387  17.537  0.00  0.00    +0.000 A 
ATOM      7  N   UNL     1       7.524   6.357  16.483  0.00  0.00    +0.000 NA
ATOM      8  N   UNL     1       6.926   5.500  15.623  0.00  0.00    +0.000 N 
ATOM      9  C   UNL     1       7.358   5.134  14.351  0.00  0.00    +0.000 A 
ATOM     10  C   UNL     1       6.645   4.276  13.613  0.00  0.00    +0.000 A 
ATOM     11  C   UNL     1       5.401   3.771  14.257  0.00  0.00    +0.000 A 
ATOM     12  N   UNL     1       4.972   4.074  15.447  0.00  0.00    +0.000 NA
ATOM     13  C   UNL     1       5.743   4.968  16.149  0.00  0.00    +0.000 A 
ENDBRANCH   2   5
BRANCH   3  14
ATOM     14  C   UNL     1       3.152   3.592  19.427  0.00  0.00    +0.000 A 
ATOM     15  C   UNL     1       3.492   3.050  20.671  0.00  0.00    +0.000 A 
ATOM     16  C   UNL     1       2.494   2.647  21.561  0.00  0.00    +0.000 A 
ATOM     17  C   UNL     1       1.151   2.754  21.201  0.00  0.00    +0.000 A 
ATOM     18  C   UNL     1       0.802   3.289  19.961  0.00  0.00    +0.000 A 
ATOM     19  C   UNL     1       1.798   3.731  19.087  0.00  0.00    +0.000 A 
ATOM     20 CL   UNL     1       1.322   4.364  17.549  0.00  0.00    +0.000 Cl
ENDBRANCH   3  14
TORSDOF 2
ENDMDL
MODEL 3
REMARK VINA RESULT:      -7.1      1.333      1.720
REMARK  Name = 
REMARK  2 active torsions:
REMARK  status: ('A' for Active; 'I' for Inactive)
REMARK    1  A    between atoms: C_2  and  C_11
REMARK    2  A    between atoms: N_3  and  C_4
REMARK                            x       y       z     vdW  Elec       q    Type
REMARK                         _______ _______ _______ _____ _____    ______ ____
ROOT
ATOM      1  O   UNL     1       5.507   3.785  18.958  0.00  0.00    +0.000 OA
ATOM      2  C   UNL     1       5.091   4.341  17.946  0.00  0.00    +0.000 C 
ATOM      3  N   UNL     1       3.758   4.448  17.596  0.00  0.00    +0.000 N 
ATOM      4  H   UNL     1       3.565   4.664  16.620  0.00  0.00    +0.000 HD
ENDROOT
BRANCH   2   5
ATOM      5  C   UNL     1       6.010   4.877  16.966  0.00  0.00    +0.000 A 
ATOM      6  C   UNL     1       6.967   5.893  17.156  0.00  0.00    +0.000 A 
ATOM      7  N   UNL     1       7.664   6.174  16.053  0.00  0.00    +0.000 NA
ATOM      8  N   UNL     1       7.149   5.348  15.113  0.00  0.00    +0.000 N 
ATOM      9  C   UNL     1       7.509   5.259  13.771  0.00  0.00    +0.000 A 
ATOM     10  C   UNL     1       6.893   4.392  12.960  0.00  0.00    +0.000 A 
ATOM     11  C   UNL     1       5.835   3.565  13.604  0.00  0.00    +0.000 A 
ATOM     12  N   UNL     1       5.482   3.606  14.855  0.00  0.00    +0.000 NA
ATOM     13  C   UNL     1       6.143   4.525  15.633  0.00  0.00    +0.000 A 
ENDBRANCH   2   5
BRANCH   3  14
ATOM     14  C   UNL     1       2.685   3.969  18.372  0.00  0.00    +0.000 A 
ATOM     15  C   UNL     1       2.156   2.692  18.156  0.00  0.00    +0.000 A 
ATOM     16  C   UNL     1       1.112   2.218  18.953  0.00  0.00    +0.000 A 
ATOM     17  C   UNL     1       0.569   3.028  19.950  0.00  0.00    +0.000 A 
ATOM     18  C   UNL     1       1.087   4.306  20.169  0.00  0.00    +0.000 A 
ATOM     19  C   UNL     1       2.159   4.765  19.400  0.00  0.00    +0.000 A 
ATOM     20 CL   UNL     1       2.753   6.363  19.689  0.00  0.00    +0.000 Cl
ENDBRANCH   3  14
TORSDOF 2
ENDMDL
MODEL 4
REMARK VINA RESULT:      -6.8      1.822      2.126
REMARK  Name = 
REMARK  2 active torsions:
REMARK  status: ('A' for Active; 'I' for Inactive)
REMARK    1  A    between atoms: C_2  and  C_11
REMARK    2  A    between atoms: N_3  and  C_4
REMARK                            x       y       z     vdW  Elec       q    Type
REMARK                         _______ _______ _______ _____ _____    ______ ____
ROOT
ATOM      1  O   UNL     1       3.537   3.951  16.531  0.00  0.00    +0.000 OA
ATOM      2  C   UNL     1       4.585   4.346  17.034  0.00  0.00    +0.000 C 
ATOM      3  N   UNL     1       4.800   4.500  18.390  0.00  0.00    +0.000 N 
ATOM      4  H   UNL     1       5.580   5.095  18.658  0.00  0.00    +0.000 HD
ENDROOT
BRANCH   2   5
ATOM      5  C   UNL     1       5.689   4.773  16.203  0.00  0.00    +0.000 A 
ATOM      6  C   UNL     1       6.724   5.666  16.547  0.00  0.00    +0.000 A 
ATOM      7  N   UNL     1       7.597   5.868  15.559  0.00  0.00    +0.000 NA
ATOM      8  N   UNL     1       7.125   5.117  14.538  0.00  0.00    +0.000 N 
ATOM      9  C   UNL     1       7.656   4.993  13.257  0.00  0.00    +0.000 A 
ATOM     10  C   UNL     1       7.062   4.212  12.349  0.00  0.00    +0.000 A 
ATOM     11  C   UNL     1       5.834   3.515  12.820  0.00  0.00    +0.000 A 
ATOM     12  N   UNL     1       5.316   3.589  14.011  0.00  0.00    +0.000 NA
ATOM     13  C   UNL     1       5.966   4.417  14.894  0.00  0.00    +0.000 A 
ENDBRANCH   2   5
BRANCH   3  14
ATOM     14  C   UNL     1       3.860   4.186  19.391  0.00  0.00    +0.000 A 
ATOM     15  C   UNL     1       3.853   2.927  20.002  0.00  0.00    +0.000 A 
ATOM     16  C   UNL     1       2.936   2.639  21.014  0.00  0.00    +0.000 A 
ATOM     17  C   UNL     1       1.997   3.596  21.400  0.00  0.00    +0.000 A 
ATOM     18  C   UNL     1       1.993   4.852  20.793  0.00  0.00    +0.000 A 
ATOM     19  C   UNL     1       2.937   5.155  19.810  0.00  0.00    +0.000 A 
ATOM     20 CL   UNL     1       2.879   6.716  19.067  0.00  0.00    +0.000 Cl
ENDBRANCH   3  14
TORSDOF 2
ENDMDL
MODEL 5
REMARK VINA RESULT:      -6.7      1.344      1.369
REMARK  Name = 
REMARK  2 active torsions:
REMARK  status: ('A' for Active; 'I' for Inactive)
REMARK    1  A    between atoms: C_2  and  C_11
REMARK    2  A    between atoms: N_3  and  C_4
REMARK                            x       y       z     vdW  Elec       q    Type
REMARK                         _______ _______ _______ _____ _____    ______ ____
ROOT
ATOM      1  O   UNL     1       3.418   3.578  16.606  0.00  0.00    +0.000 OA
ATOM      2  C   UNL     1       4.333   4.155  17.189  0.00  0.00    +0.000 C 
ATOM      3  N   UNL     1       4.340   4.462  18.536  0.00  0.00    +0.000 N 
ATOM      4  H   UNL     1       4.999   5.179  18.830  0.00  0.00    +0.000 HD
ENDROOT
BRANCH   2   5
ATOM      5  C   UNL     1       5.481   4.646  16.459  0.00  0.00    +0.000 A 
ATOM      6  C   UNL     1       6.488   5.512  16.929  0.00  0.00    +0.000 A 
ATOM      7  N   UNL     1       7.416   5.790  16.012  0.00  0.00    +0.000 NA
ATOM      8  N   UNL     1       7.009   5.116  14.912  0.00  0.00    +0.000 N 
ATOM      9  C   UNL     1       7.617   5.090  13.659  0.00  0.00    +0.000 A 
ATOM     10  C   UNL     1       7.082   4.377  12.661  0.00  0.00    +0.000 A 
ATOM     11  C   UNL     1       5.833   3.644  13.006  0.00  0.00    +0.000 A 
ATOM     12  N   UNL     1       5.246   3.628  14.166  0.00  0.00    +0.000 NA
ATOM     13  C   UNL     1       5.837   4.389  15.145  0.00  0.00    +0.000 A 
ENDBRANCH   2   5
BRANCH   3  14
ATOM     14  C   UNL     1       3.316   4.121  19.441  0.00  0.00    +0.000 A 
ATOM     15  C   UNL     1       2.180   4.926  19.578  0.00  0.00    +0.000 A 
ATOM     16  C   UNL     1       1.158   4.560  20.456  0.00  0.00    +0.000 A 
ATOM     17  C   UNL     1       1.279   3.404  21.227  0.00  0.00    +0.000 A 
ATOM     18  C   UNL     1       2.411   2.597  21.101  0.00  0.00    +0.000 A 
ATOM     19  C   UNL     1       3.414   2.941  20.192  0.00  0.00    +0.000 A 
ATOM     20 CL   UNL     1       4.811   1.926  20.086  0.00  0.00    +0.000 Cl
ENDBRANCH   3  14
TORSDOF 2
ENDMDL
MODEL 6
REMARK VINA RESULT:      -6.7      3.527      4.819
REMARK  Name = 
REMARK  2 active torsions:
REMARK  status: ('A' for Active; 'I' for Inactive)
REMARK    1  A    between atoms: C_2  and  C_11
REMARK    2  A    between atoms: N_3  and  C_4
REMARK                            x       y       z     vdW  Elec       q    Type
REMARK                         _______ _______ _______ _____ _____    ______ ____
ROOT
ATOM      1  O   UNL     1       1.492   5.236  19.819  0.00  0.00    +0.000 OA
ATOM      2  C   UNL     1       2.558   5.835  19.701  0.00  0.00    +0.000 C 
ATOM      3  N   UNL     1       2.716   7.200  19.845  0.00  0.00    +0.000 N 
ATOM      4  H   UNL     1       3.562   7.600  19.445  0.00  0.00    +0.000 HD
ENDROOT
BRANCH   2   5
ATOM      5  C   UNL     1       3.760   5.134  19.308  0.00  0.00    +0.000 A 
ATOM      6  C   UNL     1       4.206   3.877  19.762  0.00  0.00    +0.000 A 
ATOM      7  N   UNL     1       5.363   3.498  19.216  0.00  0.00    +0.000 NA
ATOM      8  N   UNL     1       5.700   4.526  18.403  0.00  0.00    +0.000 N 
ATOM      9  C   UNL     1       6.842   4.646  17.615  0.00  0.00    +0.000 A 
ATOM     10  C   UNL     1       7.038   5.738  16.868  0.00  0.00    +0.000 A 
ATOM     11  C   UNL     1       5.963   6.765  16.954  0.00  0.00    +0.000 A 
ATOM     12  N   UNL     1       4.875   6.683  17.663  0.00  0.00    +0.000 NA
ATOM     13  C   UNL     1       4.739   5.543  18.417  0.00  0.00    +0.000 A 
ENDBRANCH   2   5
BRANCH   3  14
ATOM     14  C   UNL     1       1.683   8.094  20.188  0.00  0.00    +0.000 A 
ATOM     15  C   UNL     1       1.089   8.055  21.455  0.00  0.00    +0.000 A 
ATOM     16  C   UNL     1       0.087   8.967  21.792  0.00  0.00    +0.000 A 
ATOM     17  C   UNL     1      -0.350   9.904  20.856  0.00  0.00    +0.000 A 
ATOM     18  C   UNL     1       0.233   9.947  19.588  0.00  0.00    +0.000 A 
ATOM     19  C   UNL     1       1.264   9.063  19.265  0.00  0.00    +0.000 A 
ATOM     20 CL   UNL     1       1.941   9.135  17.674  0.00  0.00    +0.000 Cl
ENDBRANCH   3  14
TORSDOF 2
ENDMDL
MODEL 7
REMARK VINA RESULT:      -6.6      2.312      6.389
REMARK  Name = 
REMARK  2 active torsions:
REMARK  status: ('A' for Active; 'I' for Inactive)
REMARK    1  A    between atoms: C_2  and  C_11
REMARK    2  A    between atoms: N_3  and  C_4
REMARK                            x       y       z     vdW  Elec       q    Type
REMARK                         _______ _______ _______ _____ _____    ______ ____
ROOT
ATOM      1  O   UNL     1       3.967   6.924  17.073  0.00  0.00    +0.000 OA
ATOM      2  C   UNL     1       4.040   5.859  17.679  0.00  0.00    +0.000 C 
ATOM      3  N   UNL     1       4.778   4.766  17.267  0.00  0.00    +0.000 N 
ATOM      4  H   UNL     1       4.531   3.872  17.685  0.00  0.00    +0.000 HD
ENDROOT
BRANCH   2   5
ATOM      5  C   UNL     1       3.261   5.635  18.876  0.00  0.00    +0.000 A 
ATOM      6  C   UNL     1       2.440   6.561  19.550  0.00  0.00    +0.000 A 
ATOM      7  N   UNL     1       1.853   6.055  20.636  0.00  0.00    +0.000 NA
ATOM      8  N   UNL     1       2.307   4.782  20.697  0.00  0.00    +0.000 N 
ATOM      9  C   UNL     1       2.017   3.822  21.664  0.00  0.00    +0.000 A 
ATOM     10  C   UNL     1       2.556   2.601  21.589  0.00  0.00    +0.000 A 
ATOM     11  C   UNL     1       3.454   2.375  20.422  0.00  0.00    +0.000 A 
ATOM     12  N   UNL     1       3.735   3.238  19.490  0.00  0.00    +0.000 NA
ATOM     13  C   UNL     1       3.159   4.477  19.630  0.00  0.00    +0.000 A 
ENDBRANCH   2   5
BRANCH   3  14
ATOM     14  C   UNL     1       5.585   4.734  16.113  0.00  0.00    +0.000 A 
ATOM     15  C   UNL     1       5.136   4.120  14.939  0.00  0.00    +0.000 A 
ATOM     16  C   UNL     1       5.934   4.122  13.793  0.00  0.00    +0.000 A 
ATOM     17  C   UNL     1       7.199   4.709  13.822  0.00  0.00    +0.000 A 
ATOM     18  C   UNL     1       7.657   5.319  14.990  0.00  0.00    +0.000 A 
ATOM     19  C   UNL     1       6.843   5.354  16.124  0.00  0.00    +0.000 A 
ATOM     20 CL   UNL     1       7.461   6.099  17.558  0.00  0.00    +0.000 Cl
ENDBRANCH   3  14
TORSDOF 2
ENDMDL
MODEL 8
REMARK VINA RESULT:      -6.6      3.627      6.648
REMARK  Name = 
REMARK  2 active torsions:
REMARK  status: ('A' for Active; 'I' for Inactive)
REMARK    1  A    between atoms: C_2  and  C_11
REMARK    2  A    between atoms: N_3  and  C_4
REMARK                            x       y       z     vdW  Elec       q    Type
REMARK                         _______ _______ _______ _____ _____    ______ ____
ROOT
ATOM      1  O   UNL     1       2.838   4.926  18.261  0.00  0.00    +0.000 OA
ATOM      2  C   UNL     1       3.193   6.095  18.383  0.00  0.00    +0.000 C 
ATOM      3  N   UNL     1       4.351   6.628  17.849  0.00  0.00    +0.000 N 
ATOM      4  H   UNL     1       4.672   7.504  18.255  0.00  0.00    +0.000 HD
ENDROOT
BRANCH   2   5
ATOM      5  C   UNL     1       2.432   7.018  19.197  0.00  0.00    +0.000 A 
ATOM      6  C   UNL     1       1.887   6.784  20.475  0.00  0.00    +0.000 A 
ATOM      7  N   UNL     1       1.228   7.834  20.968  0.00  0.00    +0.000 NA
ATOM      8  N   UNL     1       1.318   8.770  19.996  0.00  0.00    +0.000 N 
ATOM      9  C   UNL     1       0.771  10.051  19.997  0.00  0.00    +0.000 A 
ATOM     10  C   UNL     1       0.941  10.862  18.948  0.00  0.00    +0.000 A 
ATOM     11  C   UNL     1       1.740  10.289  17.829  0.00  0.00    +0.000 A 
ATOM     12  N   UNL     1       2.282   9.107  17.797  0.00  0.00    +0.000 NA
ATOM     13  C   UNL     1       2.060   8.319  18.899  0.00  0.00    +0.000 A 
ENDBRANCH   2   5
BRANCH   3  14
ATOM     14  C   UNL     1       5.268   5.914  17.054  0.00  0.00    +0.000 A 
ATOM     15  C   UNL     1       5.098   5.820  15.669  0.00  0.00    +0.000 A 
ATOM     16  C   UNL     1       6.032   5.135  14.889  0.00  0.00    +0.000 A 
ATOM     17  C   UNL     1       7.125   4.512  15.491  0.00  0.00    +0.000 A 
ATOM     18  C   UNL     1       7.300   4.596  16.873  0.00  0.00    +0.000 A 
ATOM     19  C   UNL     1       6.389   5.316  17.649  0.00  0.00    +0.000 A 
ATOM     20 CL   UNL     1       6.631   5.373  19.361  0.00  0.00    +0.000 Cl
ENDBRANCH   3  14
TORSDOF 2
ENDMDL
MODEL 9
REMARK VINA RESULT:      -6.5      1.511      1.577
REMARK  Name = 
REMARK  2 active torsions:
REMARK  status: ('A' for Active; 'I' for Inactive)
REMARK    1  A    between atoms: C_2  and  C_11
REMARK    2  A    between atoms: N_3  and  C_4
REMARK                            x       y       z     vdW  Elec       q    Type
REMARK                         _______ _______ _______ _____ _____    ______ ____
ROOT
ATOM      1  O   UNL     1       3.796   6.104  17.505  0.00  0.00    +0.000 OA
ATOM      2  C   UNL     1       4.364   5.102  17.080  0.00  0.00    +0.000 C 
ATOM      3  N   UNL     1       4.025   3.803  17.411  0.00  0.00    +0.000 N 
ATOM      4  H   UNL     1       4.734   3.095  17.234  0.00  0.00    +0.000 HD
ENDROOT
BRANCH   2   5
ATOM      5  C   UNL     1       5.528   5.216  16.230  0.00  0.00    +0.000 A 
ATOM      6  C   UNL     1       6.722   5.913  16.503  0.00  0.00    +0.000 A 
ATOM      7  N   UNL     1       7.615   5.839  15.514  0.00  0.00    +0.000 NA
ATOM      8  N   UNL     1       6.997   5.102  14.562  0.00  0.00    +0.000 N 
ATOM      9  C   UNL     1       7.488   4.750  13.308  0.00  0.00    +0.000 A 
ATOM     10  C   UNL     1       6.746   4.019  12.469  0.00  0.00    +0.000 A 
ATOM     11  C   UNL     1       5.404   3.632  12.986  0.00  0.00    +0.000 A 
ATOM     12  N   UNL     1       4.917   3.923  14.156  0.00  0.00    +0.000 NA
ATOM     13  C   UNL     1       5.723   4.686  14.965  0.00  0.00    +0.000 A 
ENDBRANCH   2   5
BRANCH   3  14
ATOM     14  C   UNL     1       2.954   3.444  18.251  0.00  0.00    +0.000 A 
ATOM     15  C   UNL     1       1.628   3.633  17.846  0.00  0.00    +0.000 A 
ATOM     16  C   UNL     1       0.575   3.244  18.677  0.00  0.00    +0.000 A 
ATOM     17  C   UNL     1       0.839   2.693  19.930  0.00  0.00    +0.000 A 
ATOM     18  C   UNL     1       2.159   2.506  20.345  0.00  0.00    +0.000 A 
ATOM     19  C   UNL     1       3.212   2.856  19.498  0.00  0.00    +0.000 A 
ATOM     20 CL   UNL     1       4.831   2.630  20.063  0.00  0.00    +0.000 Cl
ENDBRANCH   3  14
TORSDOF 2
ENDMDL
