MODEL 1
REMARK VINA RESULT:      -7.6      0.000      0.000
REMARK  Name = 
REMARK  5 active torsions:
REMARK  status: ('A' for Active; 'I' for Inactive)
REMARK    1  A    between atoms: C_1  and  S_2
REMARK    2  A    between atoms: S_2  and  C_5
REMARK    3  A    between atoms: C_8  and  C_9
REMARK    4  A    between atoms: C_9  and  N_10
REMARK    5  A    between atoms: C_16  and  C_17
REMARK                            x       y       z     vdW  Elec       q    Type
REMARK                         _______ _______ _______ _____ _____    ______ ____
ROOT
ATOM      1  N   UNL     1       1.721  10.069  17.968  0.00  0.00    +0.000 N 
ATOM      2  C   UNL     1       0.934  10.920  18.702  0.00  0.00    +0.000 C 
ATOM      3  O   UNL     1      -0.120  10.555  19.216  0.00  0.00    +0.000 OA
ATOM      4  N   UNL     1       1.427  12.214  18.805  0.00  0.00    +0.000 N 
ATOM      5  C   UNL     1       2.458  12.767  17.934  0.00  0.00    +0.000 C 
ATOM      6  C   UNL     1       3.380  13.702  18.713  0.00  0.00    +0.000 C 
ATOM      7  C   UNL     1       2.605  14.835  19.413  0.00  0.00    +0.000 C 
ATOM      8  C   UNL     1       1.489  14.202  20.275  0.00  0.00    +0.000 C 
ATOM      9  C   UNL     1       0.615  13.218  19.496  0.00  0.00    +0.000 C 
ATOM     10  H   UNL     1       2.710  10.235  18.049  0.00  0.00    +0.000 HD
ENDROOT
BRANCH   7  11
ATOM     11  C   UNL     1       2.134  15.972  18.507  0.00  0.00    +0.000 A 
ATOM     12  C   UNL     1       2.879  16.446  17.414  0.00  0.00    +0.000 A 
ATOM     13  C   UNL     1       2.442  17.527  16.644  0.00  0.00    +0.000 A 
ATOM     14  C   UNL     1       1.256  18.175  16.964  0.00  0.00    +0.000 A 
ATOM     15  C   UNL     1       0.508  17.739  18.052  0.00  0.00    +0.000 A 
ATOM     16  C   UNL     1       0.943  16.651  18.816  0.00  0.00    +0.000 A 
ENDBRANCH   7  11
BRANCH   1  17
ATOM     17  C   UNL     1       1.369   8.677  17.806  0.00  0.00    +0.000 C 
BRANCH  17  21
ATOM     18  C   UNL     1       4.594   5.912  18.582  0.00  0.00    +0.000 A 
ATOM     19  C   UNL     1       3.484   5.951  19.429  0.00  0.00    +0.000 A 
ATOM     20  C   UNL     1       2.457   6.864  19.177  0.00  0.00    +0.000 A 
ATOM     21  C   UNL     1       2.532   7.751  18.093  0.00  0.00    +0.000 A 
ATOM     22  C   UNL     1       3.659   7.699  17.254  0.00  0.00    +0.000 A 
ATOM     23  C   UNL     1       4.695   6.791  17.503  0.00  0.00    +0.000 A 
BRANCH  18  25
ATOM     24  C   UNL     1       6.761   4.624  17.371  0.00  0.00    +0.000 C 
ATOM     25  S   UNL     1       5.917   4.775  18.924  0.00  0.00    +0.000 S 
ATOM     26  O   UNL     1       5.316   3.489  19.233  0.00  0.00    +0.000 OA
ATOM     27  O   UNL     1       6.814   5.418  19.865  0.00  0.00    +0.000 OA
ENDBRANCH  18  25
ENDBRANCH  17  21
ENDBRANCH   1  17
TORSDOF 4
ENDMDL
MODEL 2
REMARK VINA RESULT:      -7.5      4.068      5.774
REMARK  Name = 
REMARK  5 active torsions:
REMARK  status: ('A' for Active; 'I' for Inactive)
REMARK    1  A    between atoms: C_1  and  S_2
REMARK    2  A    between atoms: S_2  and  C_5
REMARK    3  A    between atoms: C_8  and  C_9
REMARK    4  A    between atoms: C_9  and  N_10
REMARK    5  A    between atoms: C_16  and  C_17
REMARK                            x       y       z     vdW  Elec       q    Type
REMARK                         _______ _______ _______ _____ _____    ______ ____
ROOT
ATOM      1  N   UNL     1       1.014   9.317  18.474  0.00  0.00    +0.000 N 
ATOM      2  C   UNL     1       0.520  10.157  19.439  0.00  0.00    +0.000 C 
ATOM      3  O   UNL     1       1.119  10.370  20.490  0.00  0.00    +0.000 OA
ATOM      4  N   UNL     1      -0.706  10.731  19.128  0.00  0.00    +0.000 N 
ATOM      5  C   UNL     1      -1.598  10.239  18.084  0.00  0.00    +0.000 C 
ATOM      6  C   UNL     1      -2.300  11.397  17.381  0.00  0.00    +0.000 C 
ATOM      7  C   UNL     1      -3.072  12.296  18.366  0.00  0.00    +0.000 C 
ATOM      8  C   UNL     1      -2.101  12.742  19.483  0.00  0.00    +0.000 C 
ATOM      9  C   UNL     1      -1.357  11.575  20.132  0.00  0.00    +0.000 C 
ATOM     10  H   UNL     1       0.802   9.590  17.529  0.00  0.00    +0.000 HD
ENDROOT
BRANCH   7  11
ATOM     11  C   UNL     1      -4.400  11.733  18.872  0.00  0.00    +0.000 A 
ATOM     12  C   UNL     1      -5.155  10.782  18.164  0.00  0.00    +0.000 A 
ATOM     13  C   UNL     1      -6.393  10.336  18.632  0.00  0.00    +0.000 A 
ATOM     14  C   UNL     1      -6.916  10.846  19.813  0.00  0.00    +0.000 A 
ATOM     15  C   UNL     1      -6.200  11.802  20.524  0.00  0.00    +0.000 A 
ATOM     16  C   UNL     1      -4.956  12.242  20.059  0.00  0.00    +0.000 A 
ENDBRANCH   7  11
BRANCH   1  17
ATOM     17  C   UNL     1       2.300   8.677  18.627  0.00  0.00    +0.000 C 
BRANCH  17  21
ATOM     18  C   UNL     1       1.794   4.453  19.376  0.00  0.00    +0.000 A 
ATOM     19  C   UNL     1       1.735   5.365  20.431  0.00  0.00    +0.000 A 
ATOM     20  C   UNL     1       1.920   6.727  20.178  0.00  0.00    +0.000 A 
ATOM     21  C   UNL     1       2.178   7.189  18.878  0.00  0.00    +0.000 A 
ATOM     22  C   UNL     1       2.237   6.255  17.830  0.00  0.00    +0.000 A 
ATOM     23  C   UNL     1       2.060   4.889  18.076  0.00  0.00    +0.000 A 
BRANCH  18  25
ATOM     24  C   UNL     1       1.485   2.629  21.472  0.00  0.00    +0.000 C 
ATOM     25  S   UNL     1       1.595   2.718  19.704  0.00  0.00    +0.000 S 
ATOM     26  O   UNL     1       2.823   2.055  19.300  0.00  0.00    +0.000 OA
ATOM     27  O   UNL     1       0.318   2.311  19.151  0.00  0.00    +0.000 OA
ENDBRANCH  18  25
ENDBRANCH  17  21
ENDBRANCH   1  17
TORSDOF 4
ENDMDL
MODEL 3
REMARK VINA RESULT:      -7.4      3.137      4.828
REMARK  Name = 
REMARK  5 active torsions:
REMARK  status: ('A' for Active; 'I' for Inactive)
REMARK    1  A    between atoms: C_1  and  S_2
REMARK    2  A    between atoms: S_2  and  C_5
REMARK    3  A    between atoms: C_8  and  C_9
REMARK    4  A    between atoms: C_9  and  N_10
REMARK    5  A    between atoms: C_16  and  C_17
REMARK                            x       y       z     vdW  Elec       q    Type
REMARK                         _______ _______ _______ _____ _____    ______ ____
ROOT
ATOM      1  N   UNL     1       1.701   8.994  18.059  0.00  0.00    +0.000 N 
ATOM      2  C   UNL     1       1.675  10.356  18.226  0.00  0.00    +0.000 C 
ATOM      3  O   UNL     1       2.677  11.050  18.086  0.00  0.00    +0.000 OA
ATOM      4  N   UNL     1       0.430  10.868  18.569  0.00  0.00    +0.000 N 
ATOM      5  C   UNL     1      -0.671  10.064  19.086  0.00  0.00    +0.000 C 
ATOM      6  C   UNL     1      -2.009  10.573  18.557  0.00  0.00    +0.000 C 
ATOM      7  C   UNL     1      -2.235  12.063  18.881  0.00  0.00    +0.000 C 
ATOM      8  C   UNL     1      -1.016  12.864  18.368  0.00  0.00    +0.000 C 
ATOM      9  C   UNL     1       0.320  12.300  18.853  0.00  0.00    +0.000 C 
ATOM     10  H   UNL     1       0.860   8.601  17.671  0.00  0.00    +0.000 HD
ENDROOT
BRANCH   7  11
ATOM     11  C   UNL     1      -2.630  12.373  20.325  0.00  0.00    +0.000 A 
ATOM     12  C   UNL     1      -1.784  12.142  21.423  0.00  0.00    +0.000 A 
ATOM     13  C   UNL     1      -2.203  12.383  22.733  0.00  0.00    +0.000 A 
ATOM     14  C   UNL     1      -3.490  12.843  22.979  0.00  0.00    +0.000 A 
ATOM     15  C   UNL     1      -4.356  13.061  21.913  0.00  0.00    +0.000 A 
ATOM     16  C   UNL     1      -3.931  12.828  20.600  0.00  0.00    +0.000 A 
ENDBRANCH   7  11
BRANCH   1  17
ATOM     17  C   UNL     1       2.910   8.313  17.657  0.00  0.00    +0.000 C 
BRANCH  17  21
ATOM     18  C   UNL     1       3.277   4.313  19.244  0.00  0.00    +0.000 A 
ATOM     19  C   UNL     1       3.909   4.653  18.046  0.00  0.00    +0.000 A 
ATOM     20  C   UNL     1       3.766   5.945  17.534  0.00  0.00    +0.000 A 
ATOM     21  C   UNL     1       2.985   6.901  18.200  0.00  0.00    +0.000 A 
ATOM     22  C   UNL     1       2.353   6.538  19.402  0.00  0.00    +0.000 A 
ATOM     23  C   UNL     1       2.486   5.244  19.919  0.00  0.00    +0.000 A 
BRANCH  18  25
ATOM     24  C   UNL     1       2.607   2.724  21.446  0.00  0.00    +0.000 C 
ATOM     25  S   UNL     1       3.430   2.658  19.876  0.00  0.00    +0.000 S 
ATOM     26  O   UNL     1       4.840   2.415  20.121  0.00  0.00    +0.000 OA
ATOM     27  O   UNL     1       2.669   1.785  19.003  0.00  0.00    +0.000 OA
ENDBRANCH  18  25
ENDBRANCH  17  21
ENDBRANCH   1  17
TORSDOF 4
ENDMDL
MODEL 4
REMARK VINA RESULT:      -7.4      4.186      5.559
REMARK  Name = 
REMARK  5 active torsions:
REMARK  status: ('A' for Active; 'I' for Inactive)
REMARK    1  A    between atoms: C_1  and  S_2
REMARK    2  A    between atoms: S_2  and  C_5
REMARK    3  A    between atoms: C_8  and  C_9
REMARK    4  A    between atoms: C_9  and  N_10
REMARK    5  A    between atoms: C_16  and  C_17
REMARK                            x       y       z     vdW  Elec       q    Type
REMARK                         _______ _______ _______ _____ _____    ______ ____
ROOT
ATOM      1  N   UNL     1       1.217   9.257  18.626  0.00  0.00    +0.000 N 
ATOM      2  C   UNL     1       0.688   9.902  19.714  0.00  0.00    +0.000 C 
ATOM      3  O   UNL     1       1.193   9.823  20.830  0.00  0.00    +0.000 OA
ATOM      4  N   UNL     1      -0.460  10.636  19.445  0.00  0.00    +0.000 N 
ATOM      5  C   UNL     1      -1.276  10.468  18.247  0.00  0.00    +0.000 C 
ATOM      6  C   UNL     1      -1.825  11.810  17.773  0.00  0.00    +0.000 C 
ATOM      7  C   UNL     1      -2.629  12.533  18.871  0.00  0.00    +0.000 C 
ATOM      8  C   UNL     1      -1.745  12.633  20.135  0.00  0.00    +0.000 C 
ATOM      9  C   UNL     1      -1.148  11.291  20.559  0.00  0.00    +0.000 C 
ATOM     10  H   UNL     1       1.118   9.750  17.755  0.00  0.00    +0.000 HD
ENDROOT
BRANCH   7  11
ATOM     11  C   UNL     1      -4.035  11.990  19.127  0.00  0.00    +0.000 A 
ATOM     12  C   UNL     1      -4.713  11.151  18.226  0.00  0.00    +0.000 A 
ATOM     13  C   UNL     1      -6.021  10.724  18.468  0.00  0.00    +0.000 A 
ATOM     14  C   UNL     1      -6.690  11.144  19.610  0.00  0.00    +0.000 A 
ATOM     15  C   UNL     1      -6.050  11.990  20.509  0.00  0.00    +0.000 A 
ATOM     16  C   UNL     1      -4.738  12.410  20.269  0.00  0.00    +0.000 A 
ENDBRANCH   7  11
BRANCH   1  17
ATOM     17  C   UNL     1       2.436   8.488  18.732  0.00  0.00    +0.000 C 
BRANCH  17  21
ATOM     18  C   UNL     1       1.833   4.250  19.308  0.00  0.00    +0.000 A 
ATOM     19  C   UNL     1       2.068   4.758  18.029  0.00  0.00    +0.000 A 
ATOM     20  C   UNL     1       2.243   6.133  17.854  0.00  0.00    +0.000 A 
ATOM     21  C   UNL     1       2.171   7.012  18.945  0.00  0.00    +0.000 A 
ATOM     22  C   UNL     1       1.929   6.483  20.224  0.00  0.00    +0.000 A 
ATOM     23  C   UNL     1       1.747   5.107  20.407  0.00  0.00    +0.000 A 
BRANCH  18  25
ATOM     24  C   UNL     1       2.954   1.764  18.690  0.00  0.00    +0.000 C 
ATOM     25  S   UNL     1       1.576   2.505  19.524  0.00  0.00    +0.000 S 
ATOM     26  O   UNL     1       0.370   2.150  18.797  0.00  0.00    +0.000 OA
ATOM     27  O   UNL     1       1.697   2.217  20.940  0.00  0.00    +0.000 OA
ENDBRANCH  18  25
ENDBRANCH  17  21
ENDBRANCH   1  17
TORSDOF 4
ENDMDL
MODEL 5
REMARK VINA RESULT:      -7.3      0.780      1.342
REMARK  Name = 
REMARK  5 active torsions:
REMARK  status: ('A' for Active; 'I' for Inactive)
REMARK    1  A    between atoms: C_1  and  S_2
REMARK    2  A    between atoms: S_2  and  C_5
REMARK    3  A    between atoms: C_8  and  C_9
REMARK    4  A    between atoms: C_9  and  N_10
REMARK    5  A    between atoms: C_16  and  C_17
REMARK                            x       y       z     vdW  Elec       q    Type
REMARK                         _______ _______ _______ _____ _____    ______ ____
ROOT
ATOM      1  N   UNL     1       1.586  10.260  18.112  0.00  0.00    +0.000 N 
ATOM      2  C   UNL     1       0.934  11.142  18.938  0.00  0.00    +0.000 C 
ATOM      3  O   UNL     1      -0.057  10.819  19.585  0.00  0.00    +0.000 OA
ATOM      4  N   UNL     1       1.487  12.415  18.969  0.00  0.00    +0.000 N 
ATOM      5  C   UNL     1       2.417  12.928  17.969  0.00  0.00    +0.000 C 
ATOM      6  C   UNL     1       3.468  13.825  18.616  0.00  0.00    +0.000 C 
ATOM      7  C   UNL     1       2.836  14.988  19.405  0.00  0.00    +0.000 C 
ATOM      8  C   UNL     1       1.817  14.399  20.407  0.00  0.00    +0.000 C 
ATOM      9  C   UNL     1       0.812  13.450  19.754  0.00  0.00    +0.000 C 
ATOM     10  H   UNL     1       2.582  10.388  18.063  0.00  0.00    +0.000 HD
ENDROOT
BRANCH   7  11
ATOM     11  C   UNL     1       2.295  16.143  18.561  0.00  0.00    +0.000 A 
ATOM     12  C   UNL     1       1.082  16.796  18.836  0.00  0.00    +0.000 A 
ATOM     13  C   UNL     1       0.593  17.808  18.006  0.00  0.00    +0.000 A 
ATOM     14  C   UNL     1       1.297  18.178  16.868  0.00  0.00    +0.000 A 
ATOM     15  C   UNL     1       2.491  17.534  16.562  0.00  0.00    +0.000 A 
ATOM     16  C   UNL     1       2.984  16.527  17.398  0.00  0.00    +0.000 A 
ENDBRANCH   7  11
BRANCH   1  17
ATOM     17  C   UNL     1       1.162   8.883  18.004  0.00  0.00    +0.000 C 
BRANCH  17  21
ATOM     18  C   UNL     1       4.326   5.989  18.519  0.00  0.00    +0.000 A 
ATOM     19  C   UNL     1       3.271   6.046  19.432  0.00  0.00    +0.000 A 
ATOM     20  C   UNL     1       2.264   6.999  19.265  0.00  0.00    +0.000 A 
ATOM     21  C   UNL     1       2.306   7.911  18.199  0.00  0.00    +0.000 A 
ATOM     22  C   UNL     1       3.378   7.841  17.292  0.00  0.00    +0.000 A 
ATOM     23  C   UNL     1       4.394   6.892  17.457  0.00  0.00    +0.000 A 
BRANCH  18  25
ATOM     24  C   UNL     1       4.792   3.386  19.428  0.00  0.00    +0.000 C 
ATOM     25  S   UNL     1       5.625   4.799  18.754  0.00  0.00    +0.000 S 
ATOM     26  O   UNL     1       6.515   5.323  19.775  0.00  0.00    +0.000 OA
ATOM     27  O   UNL     1       6.133   4.442  17.443  0.00  0.00    +0.000 OA
ENDBRANCH  18  25
ENDBRANCH  17  21
ENDBRANCH   1  17
TORSDOF 4
ENDMDL
MODEL 6
REMARK VINA RESULT:      -7.3      3.387      4.783
REMARK  Name = 
REMARK  5 active torsions:
REMARK  status: ('A' for Active; 'I' for Inactive)
REMARK    1  A    between atoms: C_1  and  S_2
REMARK    2  A    between atoms: S_2  and  C_5
REMARK    3  A    between atoms: C_8  and  C_9
REMARK    4  A    between atoms: C_9  and  N_10
REMARK    5  A    between atoms: C_16  and  C_17
REMARK                            x       y       z     vdW  Elec       q    Type
REMARK                         _______ _______ _______ _____ _____    ______ ____
ROOT
ATOM      1  N   UNL     1       1.502   8.903  18.094  0.00  0.00    +0.000 N 
ATOM      2  C   UNL     1       1.522  10.264  18.270  0.00  0.00    +0.000 C 
ATOM      3  O   UNL     1       2.557  10.919  18.184  0.00  0.00    +0.000 OA
ATOM      4  N   UNL     1       0.284  10.825  18.556  0.00  0.00    +0.000 N 
ATOM      5  C   UNL     1      -0.873  10.062  19.012  0.00  0.00    +0.000 C 
ATOM      6  C   UNL     1      -2.161  10.628  18.422  0.00  0.00    +0.000 C 
ATOM      7  C   UNL     1      -2.344  12.123  18.746  0.00  0.00    +0.000 C 
ATOM      8  C   UNL     1      -1.070  12.877  18.299  0.00  0.00    +0.000 C 
ATOM      9  C   UNL     1       0.217  12.258  18.845  0.00  0.00    +0.000 C 
ATOM     10  H   UNL     1       0.667   8.547  17.662  0.00  0.00    +0.000 HD
ENDROOT
BRANCH   7  11
ATOM     11  C   UNL     1      -2.797  12.441  20.172  0.00  0.00    +0.000 A 
ATOM     12  C   UNL     1      -1.953  12.334  21.290  0.00  0.00    +0.000 A 
ATOM     13  C   UNL     1      -2.421  12.576  22.584  0.00  0.00    +0.000 A 
ATOM     14  C   UNL     1      -3.753  12.911  22.792  0.00  0.00    +0.000 A 
ATOM     15  C   UNL     1      -4.615  13.004  21.705  0.00  0.00    +0.000 A 
ATOM     16  C   UNL     1      -4.142  12.770  20.409  0.00  0.00    +0.000 A 
ENDBRANCH   7  11
BRANCH   1  17
ATOM     17  C   UNL     1       2.702   8.177  17.747  0.00  0.00    +0.000 C 
BRANCH  17  21
ATOM     18  C   UNL     1       2.758   4.318  19.686  0.00  0.00    +0.000 A 
ATOM     19  C   UNL     1       2.250   5.433  20.356  0.00  0.00    +0.000 A 
ATOM     20  C   UNL     1       2.255   6.679  19.724  0.00  0.00    +0.000 A 
ATOM     21  C   UNL     1       2.777   6.828  18.430  0.00  0.00    +0.000 A 
ATOM     22  C   UNL     1       3.288   5.695  17.774  0.00  0.00    +0.000 A 
ATOM     23  C   UNL     1       3.292   4.444  18.402  0.00  0.00    +0.000 A 
BRANCH  18  25
ATOM     24  C   UNL     1       4.410   2.116  20.175  0.00  0.00    +0.000 C 
ATOM     25  S   UNL     1       2.784   2.740  20.504  0.00  0.00    +0.000 S 
ATOM     26  O   UNL     1       1.830   1.882  19.823  0.00  0.00    +0.000 OA
ATOM     27  O   UNL     1       2.673   2.985  21.929  0.00  0.00    +0.000 OA
ENDBRANCH  18  25
ENDBRANCH  17  21
ENDBRANCH   1  17
TORSDOF 4
ENDMDL
MODEL 7
REMARK VINA RESULT:      -7.3      4.130      5.823
REMARK  Name = 
REMARK  5 active torsions:
REMARK  status: ('A' for Active; 'I' for Inactive)
REMARK    1  A    between atoms: C_1  and  S_2
REMARK    2  A    between atoms: S_2  and  C_5
REMARK    3  A    between atoms: C_8  and  C_9
REMARK    4  A    between atoms: C_9  and  N_10
REMARK    5  A    between atoms: C_16  and  C_17
REMARK                            x       y       z     vdW  Elec       q    Type
REMARK                         _______ _______ _______ _____ _____    ______ ____
ROOT
ATOM      1  N   UNL     1       0.813   9.492  18.248  0.00  0.00    +0.000 N 
ATOM      2  C   UNL     1       0.333  10.397  19.161  0.00  0.00    +0.000 C 
ATOM      3  O   UNL     1       0.995  10.762  20.129  0.00  0.00    +0.000 OA
ATOM      4  N   UNL     1      -0.953  10.851  18.899  0.00  0.00    +0.000 N 
ATOM      5  C   UNL     1      -1.884  10.191  17.991  0.00  0.00    +0.000 C 
ATOM      6  C   UNL     1      -2.724  11.216  17.235  0.00  0.00    +0.000 C 
ATOM      7  C   UNL     1      -3.483  12.163  18.186  0.00  0.00    +0.000 C 
ATOM      8  C   UNL     1      -2.464  12.791  19.164  0.00  0.00    +0.000 C 
ATOM      9  C   UNL     1      -1.585  11.754  19.863  0.00  0.00    +0.000 C 
ATOM     10  H   UNL     1       0.507   9.647  17.302  0.00  0.00    +0.000 HD
ENDROOT
BRANCH   7  11
ATOM     11  C   UNL     1      -4.721  11.570  18.859  0.00  0.00    +0.000 A 
ATOM     12  C   UNL     1      -5.448  10.494  18.325  0.00  0.00    +0.000 A 
ATOM     13  C   UNL     1      -6.609  10.019  18.940  0.00  0.00    +0.000 A 
ATOM     14  C   UNL     1      -7.082  10.625  20.097  0.00  0.00    +0.000 A 
ATOM     15  C   UNL     1      -6.393  11.705  20.637  0.00  0.00    +0.000 A 
ATOM     16  C   UNL     1      -5.225  12.173  20.024  0.00  0.00    +0.000 A 
ENDBRANCH   7  11
BRANCH   1  17
ATOM     17  C   UNL     1       2.151   8.960  18.355  0.00  0.00    +0.000 C 
BRANCH  17  21
ATOM     18  C   UNL     1       2.041   4.940  19.930  0.00  0.00    +0.000 A 
ATOM     19  C   UNL     1       1.812   6.030  20.772  0.00  0.00    +0.000 A 
ATOM     20  C   UNL     1       1.870   7.326  20.254  0.00  0.00    +0.000 A 
ATOM     21  C   UNL     1       2.168   7.548  18.901  0.00  0.00    +0.000 A 
ATOM     22  C   UNL     1       2.400   6.437  18.070  0.00  0.00    +0.000 A 
ATOM     23  C   UNL     1       2.349   5.136  18.583  0.00  0.00    +0.000 A 
BRANCH  18  25
ATOM     24  C   UNL     1       3.503   2.558  20.005  0.00  0.00    +0.000 C 
ATOM     25  S   UNL     1       2.003   3.293  20.599  0.00  0.00    +0.000 S 
ATOM     26  O   UNL     1       0.888   2.599  19.979  0.00  0.00    +0.000 OA
ATOM     27  O   UNL     1       2.095   3.405  22.042  0.00  0.00    +0.000 OA
ENDBRANCH  18  25
ENDBRANCH  17  21
ENDBRANCH   1  17
TORSDOF 4
ENDMDL
MODEL 8
REMARK VINA RESULT:      -7.3      1.669      2.266
REMARK  Name = 
REMARK  5 active torsions:
REMARK  status: ('A' for Active; 'I' for Inactive)
REMARK    1  A    between atoms: C_1  and  S_2
REMARK    2  A    between atoms: S_2  and  C_5
REMARK    3  A    between atoms: C_8  and  C_9
REMARK    4  A    between atoms: C_9  and  N_10
REMARK    5  A    between atoms: C_16  and  C_17
REMARK                            x       y       z     vdW  Elec       q    Type
REMARK                         _______ _______ _______ _____ _____    ______ ____
ROOT
ATOM      1  N   UNL     1       1.029  11.062  19.672  0.00  0.00    +0.000 N 
ATOM      2  C   UNL     1       0.866  12.154  20.488  0.00  0.00    +0.000 C 
ATOM      3  O   UNL     1       0.413  12.058  21.625  0.00  0.00    +0.000 OA
ATOM      4  N   UNL     1       1.247  13.361  19.916  0.00  0.00    +0.000 N 
ATOM      5  C   UNL     1       1.442  13.561  18.484  0.00  0.00    +0.000 C 
ATOM      6  C   UNL     1       2.604  14.516  18.225  0.00  0.00    +0.000 C 
ATOM      7  C   UNL     1       2.415  15.871  18.935  0.00  0.00    +0.000 C 
ATOM      8  C   UNL     1       2.152  15.602  20.434  0.00  0.00    +0.000 C 
ATOM      9  C   UNL     1       1.030  14.593  20.676  0.00  0.00    +0.000 C 
ATOM     10  H   UNL     1       1.826  11.110  19.061  0.00  0.00    +0.000 HD
ENDROOT
BRANCH   7  11
ATOM     11  C   UNL     1       1.416  16.826  18.281  0.00  0.00    +0.000 A 
ATOM     12  C   UNL     1       0.062  16.899  18.652  0.00  0.00    +0.000 A 
ATOM     13  C   UNL     1      -0.832  17.743  17.990  0.00  0.00    +0.000 A 
ATOM     14  C   UNL     1      -0.398  18.522  16.925  0.00  0.00    +0.000 A 
ATOM     15  C   UNL     1       0.932  18.455  16.525  0.00  0.00    +0.000 A 
ATOM     16  C   UNL     1       1.829  17.616  17.194  0.00  0.00    +0.000 A 
ENDBRANCH   7  11
BRANCH   1  17
ATOM     17  C   UNL     1       0.721   9.729  20.137  0.00  0.00    +0.000 C 
BRANCH  17  21
ATOM     18  C   UNL     1       3.134   6.637  18.328  0.00  0.00    +0.000 A 
ATOM     19  C   UNL     1       2.667   6.488  19.636  0.00  0.00    +0.000 A 
ATOM     20  C   UNL     1       1.904   7.505  20.216  0.00  0.00    +0.000 A 
ATOM     21  C   UNL     1       1.612   8.679  19.506  0.00  0.00    +0.000 A 
ATOM     22  C   UNL     1       2.094   8.812  18.192  0.00  0.00    +0.000 A 
ATOM     23  C   UNL     1       2.864   7.801  17.607  0.00  0.00    +0.000 A 
BRANCH  18  25
ATOM     24  C   UNL     1       5.251   4.904  18.906  0.00  0.00    +0.000 C 
ATOM     25  S   UNL     1       4.135   5.359  17.605  0.00  0.00    +0.000 S 
ATOM     26  O   UNL     1       4.914   5.967  16.540  0.00  0.00    +0.000 OA
ATOM     27  O   UNL     1       3.270   4.226  17.334  0.00  0.00    +0.000 OA
ENDBRANCH  18  25
ENDBRANCH  17  21
ENDBRANCH   1  17
TORSDOF 4
ENDMDL
MODEL 9
REMARK VINA RESULT:      -7.3      3.033      4.435
REMARK  Name = 
REMARK  5 active torsions:
REMARK  status: ('A' for Active; 'I' for Inactive)
REMARK    1  A    between atoms: C_1  and  S_2
REMARK    2  A    between atoms: S_2  and  C_5
REMARK    3  A    between atoms: C_8  and  C_9
REMARK    4  A    between atoms: C_9  and  N_10
REMARK    5  A    between atoms: C_16  and  C_17
REMARK                            x       y       z     vdW  Elec       q    Type
REMARK                         _______ _______ _______ _____ _____    ______ ____
ROOT
ATOM      1  N   UNL     1       1.904   8.957  18.236  0.00  0.00    +0.000 N 
ATOM      2  C   UNL     1       1.898  10.323  18.105  0.00  0.00    +0.000 C 
ATOM      3  O   UNL     1       2.791  10.926  17.516  0.00  0.00    +0.000 OA
ATOM      4  N   UNL     1       0.810  10.952  18.696  0.00  0.00    +0.000 N 
ATOM      5  C   UNL     1      -0.057  10.326  19.688  0.00  0.00    +0.000 C 
ATOM      6  C   UNL     1      -1.505  10.771  19.500  0.00  0.00    +0.000 C 
ATOM      7  C   UNL     1      -1.654  12.304  19.549  0.00  0.00    +0.000 C 
ATOM      8  C   UNL     1      -0.675  12.922  18.525  0.00  0.00    +0.000 C 
ATOM      9  C   UNL     1       0.759  12.416  18.684  0.00  0.00    +0.000 C 
ATOM     10  H   UNL     1       0.994   8.529  18.220  0.00  0.00    +0.000 HD
ENDROOT
BRANCH   7  11
ATOM     11  C   UNL     1      -1.589  12.931  20.941  0.00  0.00    +0.000 A 
ATOM     12  C   UNL     1      -0.955  14.157  21.206  0.00  0.00    +0.000 A 
ATOM     13  C   UNL     1      -0.865  14.668  22.503  0.00  0.00    +0.000 A 
ATOM     14  C   UNL     1      -1.390  13.954  23.571  0.00  0.00    +0.000 A 
ATOM     15  C   UNL     1      -2.006  12.728  23.341  0.00  0.00    +0.000 A 
ATOM     16  C   UNL     1      -2.103  12.222  22.040  0.00  0.00    +0.000 A 
ENDBRANCH   7  11
BRANCH   1  17
ATOM     17  C   UNL     1       2.944   8.153  17.638  0.00  0.00    +0.000 C 
BRANCH  17  21
ATOM     18  C   UNL     1       3.249   4.180  19.305  0.00  0.00    +0.000 A 
ATOM     19  C   UNL     1       3.759   4.448  18.033  0.00  0.00    +0.000 A 
ATOM     20  C   UNL     1       3.636   5.733  17.498  0.00  0.00    +0.000 A 
ATOM     21  C   UNL     1       2.996   6.754  18.216  0.00  0.00    +0.000 A 
ATOM     22  C   UNL     1       2.486   6.463  19.493  0.00  0.00    +0.000 A 
ATOM     23  C   UNL     1       2.599   5.178  20.034  0.00  0.00    +0.000 A 
BRANCH  18  25
ATOM     24  C   UNL     1       2.530   2.642  21.526  0.00  0.00    +0.000 C 
ATOM     25  S   UNL     1       3.374   2.536  19.970  0.00  0.00    +0.000 S 
ATOM     26  O   UNL     1       4.778   2.282  20.240  0.00  0.00    +0.000 OA
ATOM     27  O   UNL     1       2.615   1.655  19.103  0.00  0.00    +0.000 OA
ENDBRANCH  18  25
ENDBRANCH  17  21
ENDBRANCH   1  17
TORSDOF 4
ENDMDL
