MODEL 1
REMARK VINA RESULT:      -6.5      0.000      0.000
REMARK  Name = 
REMARK  15 active torsions:
REMARK  status: ('A' for Active; 'I' for Inactive)
REMARK    1  A    between atoms: C_1  and  C_2
REMARK    2  A    between atoms: C_2  and  C_3
REMARK    3  A    between atoms: C_3  and  C_4
REMARK    4  A    between atoms: C_4  and  C_5
REMARK    5  A    between atoms: C_5  and  C_6
REMARK    6  A    between atoms: C_6  and  C_7
REMARK    7  A    between atoms: C_7  and  C_8
REMARK    8  A    between atoms: C_8  and  C_9
REMARK    9  A    between atoms: C_9  and  O_10
REMARK   10  A    between atoms: O_10  and  C_11
REMARK   11  A    between atoms: C_15  and  O_16
REMARK   12  A    between atoms: C_17  and  O_18
REMARK   13  A    between atoms: C_19  and  O_20
REMARK   14  A    between atoms: C_21  and  C_22
REMARK   15  A    between atoms: C_22  and  O_23
REMARK                            x       y       z     vdW  Elec       q    Type
REMARK                         _______ _______ _______ _____ _____    ______ ____
ROOT
ATOM      1  C   UNL     1       4.341   5.743  17.684  0.00  0.00    +0.000 C 
ATOM      2  O   UNL     1       4.225   6.946  17.876  0.00  0.00    +0.000 OA
ATOM      3  N   UNL     1       3.425   4.781  18.087  0.00  0.00    +0.000 N 
ATOM      4  C   UNL     1       3.743   3.360  17.925  0.00  0.00    +0.000 C 
ATOM      5  C   UNL     1       4.190   2.763  19.262  0.00  0.00    +0.000 C 
ATOM      6  C   UNL     1       3.036   2.918  20.271  0.00  0.00    +0.000 C 
ATOM      7  C   UNL     1       2.634   4.405  20.432  0.00  0.00    +0.000 C 
ATOM      8  C   UNL     1       2.329   5.060  19.056  0.00  0.00    +0.000 C 
ENDROOT
BRANCH   5   9
ATOM      9  O   UNL     1       4.561   1.397  19.075  0.00  0.00    +0.000 OA
ATOM     10  H   UNL     1       4.932   1.058  19.908  0.00  0.00    +0.000 HD
ENDBRANCH   5   9
BRANCH   6  11
ATOM     11  O   UNL     1       3.385   2.340  21.532  0.00  0.00    +0.000 OA
ATOM     12  H   UNL     1       2.733   1.649  21.746  0.00  0.00    +0.000 HD
ENDBRANCH   6  11
BRANCH   7  13
ATOM     13  O   UNL     1       1.492   4.500  21.298  0.00  0.00    +0.000 OA
ATOM     14  H   UNL     1       1.249   5.434  21.407  0.00  0.00    +0.000 HD
ENDBRANCH   7  13
BRANCH   1  15
ATOM     15  O   UNL     1       5.446   5.197  17.114  0.00  0.00    +0.000 OA
BRANCH  15  16
ATOM     16  C   UNL     1       5.763   5.683  15.803  0.00  0.00    +0.000 C 
BRANCH  16  17
ATOM     17  C   UNL     1       6.855   4.786  15.229  0.00  0.00    +0.000 C 
BRANCH  17  18
ATOM     18  C   UNL     1       6.294   3.705  14.316  0.00  0.00    +0.000 C 
BRANCH  18  19
ATOM     19  C   UNL     1       6.476   4.089  12.848  0.00  0.00    +0.000 C 
BRANCH  19  20
ATOM     20  C   UNL     1       6.573   2.847  11.964  0.00  0.00    +0.000 C 
BRANCH  20  21
ATOM     21  C   UNL     1       5.206   2.454  11.406  0.00  0.00    +0.000 C 
BRANCH  21  22
ATOM     22  C   UNL     1       4.364   3.690  11.094  0.00  0.00    +0.000 C 
BRANCH  22  24
ATOM     23  C   UNL     1       2.730   4.504   9.362  0.00  0.00    +0.000 C 
ATOM     24  C   UNL     1       3.148   3.335  10.241  0.00  0.00    +0.000 C 
ENDBRANCH  22  24
ENDBRANCH  21  22
ENDBRANCH  20  21
ENDBRANCH  19  20
ENDBRANCH  18  19
ENDBRANCH  17  18
ENDBRANCH  16  17
ENDBRANCH  15  16
ENDBRANCH   1  15
BRANCH   8  25
ATOM     25  C   UNL     1       1.896   6.536  19.243  0.00  0.00    +0.000 C 
BRANCH  25  26
ATOM     26  O   UNL     1       2.473   7.133  20.402  0.00  0.00    +0.000 OA
ATOM     27  H   UNL     1       2.192   6.563  21.152  0.00  0.00    +0.000 HD
ENDBRANCH  25  26
ENDBRANCH   8  25
TORSDOF 14
ENDMDL
MODEL 2
REMARK VINA RESULT:      -6.3      1.188      2.787
REMARK  Name = 
REMARK  15 active torsions:
REMARK  status: ('A' for Active; 'I' for Inactive)
REMARK    1  A    between atoms: C_1  and  C_2
REMARK    2  A    between atoms: C_2  and  C_3
REMARK    3  A    between atoms: C_3  and  C_4
REMARK    4  A    between atoms: C_4  and  C_5
REMARK    5  A    between atoms: C_5  and  C_6
REMARK    6  A    between atoms: C_6  and  C_7
REMARK    7  A    between atoms: C_7  and  C_8
REMARK    8  A    between atoms: C_8  and  C_9
REMARK    9  A    between atoms: C_9  and  O_10
REMARK   10  A    between atoms: O_10  and  C_11
REMARK   11  A    between atoms: C_15  and  O_16
REMARK   12  A    between atoms: C_17  and  O_18
REMARK   13  A    between atoms: C_19  and  O_20
REMARK   14  A    between atoms: C_21  and  C_22
REMARK   15  A    between atoms: C_22  and  O_23
REMARK                            x       y       z     vdW  Elec       q    Type
REMARK                         _______ _______ _______ _____ _____    ______ ____
ROOT
ATOM      1  C   UNL     1       4.600   4.446  17.458  0.00  0.00    +0.000 C 
ATOM      2  O   UNL     1       4.635   3.507  16.675  0.00  0.00    +0.000 OA
ATOM      3  N   UNL     1       4.233   4.356  18.793  0.00  0.00    +0.000 N 
ATOM      4  C   UNL     1       4.094   5.574  19.595  0.00  0.00    +0.000 C 
ATOM      5  C   UNL     1       2.616   5.946  19.740  0.00  0.00    +0.000 C 
ATOM      6  C   UNL     1       1.892   4.784  20.446  0.00  0.00    +0.000 C 
ATOM      7  C   UNL     1       2.058   3.463  19.655  0.00  0.00    +0.000 C 
ATOM      8  C   UNL     1       3.556   3.160  19.369  0.00  0.00    +0.000 C 
ENDROOT
BRANCH   5   9
ATOM      9  O   UNL     1       2.501   7.171  20.464  0.00  0.00    +0.000 OA
ATOM     10  H   UNL     1       2.820   7.898  19.902  0.00  0.00    +0.000 HD
ENDBRANCH   5   9
BRANCH   6  11
ATOM     11  O   UNL     1       0.509   5.095  20.643  0.00  0.00    +0.000 OA
ATOM     12  H   UNL     1       0.287   5.871  20.100  0.00  0.00    +0.000 HD
ENDBRANCH   6  11
BRANCH   7  13
ATOM     13  O   UNL     1       1.460   2.386  20.393  0.00  0.00    +0.000 OA
ATOM     14  H   UNL     1       0.689   2.053  19.905  0.00  0.00    +0.000 HD
ENDBRANCH   7  13
BRANCH   1  15
ATOM     15  O   UNL     1       4.846   5.727  17.076  0.00  0.00    +0.000 OA
BRANCH  15  16
ATOM     16  C   UNL     1       5.293   5.887  15.724  0.00  0.00    +0.000 C 
BRANCH  16  17
ATOM     17  C   UNL     1       6.526   5.009  15.538  0.00  0.00    +0.000 C 
BRANCH  17  18
ATOM     18  C   UNL     1       6.817   4.723  14.072  0.00  0.00    +0.000 C 
BRANCH  18  19
ATOM     19  C   UNL     1       5.702   3.880  13.453  0.00  0.00    +0.000 C 
BRANCH  19  20
ATOM     20  C   UNL     1       6.262   2.893  12.432  0.00  0.00    +0.000 C 
BRANCH  20  21
ATOM     21  C   UNL     1       5.188   2.450  11.440  0.00  0.00    +0.000 C 
BRANCH  21  22
ATOM     22  C   UNL     1       4.126   3.533  11.260  0.00  0.00    +0.000 C 
BRANCH  22  24
ATOM     23  C   UNL     1       2.696   4.496   9.427  0.00  0.00    +0.000 C 
ATOM     24  C   UNL     1       3.205   3.221  10.082  0.00  0.00    +0.000 C 
ENDBRANCH  22  24
ENDBRANCH  21  22
ENDBRANCH  20  21
ENDBRANCH  19  20
ENDBRANCH  18  19
ENDBRANCH  17  18
ENDBRANCH  16  17
ENDBRANCH  15  16
ENDBRANCH   1  15
BRANCH   8  25
ATOM     25  C   UNL     1       3.701   1.819  18.608  0.00  0.00    +0.000 C 
BRANCH  25  26
ATOM     26  O   UNL     1       2.577   1.536  17.778  0.00  0.00    +0.000 OA
ATOM     27  H   UNL     1       2.408   0.575  17.891  0.00  0.00    +0.000 HD
ENDBRANCH  25  26
ENDBRANCH   8  25
TORSDOF 14
ENDMDL
MODEL 3
REMARK VINA RESULT:      -6.3      4.299      7.020
REMARK  Name = 
REMARK  15 active torsions:
REMARK  status: ('A' for Active; 'I' for Inactive)
REMARK    1  A    between atoms: C_1  and  C_2
REMARK    2  A    between atoms: C_2  and  C_3
REMARK    3  A    between atoms: C_3  and  C_4
REMARK    4  A    between atoms: C_4  and  C_5
REMARK    5  A    between atoms: C_5  and  C_6
REMARK    6  A    between atoms: C_6  and  C_7
REMARK    7  A    between atoms: C_7  and  C_8
REMARK    8  A    between atoms: C_8  and  C_9
REMARK    9  A    between atoms: C_9  and  O_10
REMARK   10  A    between atoms: O_10  and  C_11
REMARK   11  A    between atoms: C_15  and  O_16
REMARK   12  A    between atoms: C_17  and  O_18
REMARK   13  A    between atoms: C_19  and  O_20
REMARK   14  A    between atoms: C_21  and  C_22
REMARK   15  A    between atoms: C_22  and  O_23
REMARK                            x       y       z     vdW  Elec       q    Type
REMARK                         _______ _______ _______ _____ _____    ______ ____
ROOT
ATOM      1  C   UNL     1       3.623   6.449  18.225  0.00  0.00    +0.000 C 
ATOM      2  O   UNL     1       4.570   6.633  17.473  0.00  0.00    +0.000 OA
ATOM      3  N   UNL     1       3.586   5.505  19.242  0.00  0.00    +0.000 N 
ATOM      4  C   UNL     1       2.343   5.280  19.984  0.00  0.00    +0.000 C 
ATOM      5  C   UNL     1       1.645   4.016  19.476  0.00  0.00    +0.000 C 
ATOM      6  C   UNL     1       2.592   2.821  19.692  0.00  0.00    +0.000 C 
ATOM      7  C   UNL     1       3.941   3.041  18.965  0.00  0.00    +0.000 C 
ATOM      8  C   UNL     1       4.581   4.402  19.361  0.00  0.00    +0.000 C 
ENDROOT
BRANCH   5   9
ATOM      9  O   UNL     1       0.403   3.849  20.160  0.00  0.00    +0.000 OA
ATOM     10  H   UNL     1      -0.201   3.340  19.591  0.00  0.00    +0.000 HD
ENDBRANCH   5   9
BRANCH   6  11
ATOM     11  O   UNL     1       1.973   1.602  19.270  0.00  0.00    +0.000 OA
ATOM     12  H   UNL     1       1.018   1.663  19.448  0.00  0.00    +0.000 HD
ENDBRANCH   6  11
BRANCH   7  13
ATOM     13  O   UNL     1       4.832   1.959  19.273  0.00  0.00    +0.000 OA
ATOM     14  H   UNL     1       5.723   2.174  18.949  0.00  0.00    +0.000 HD
ENDBRANCH   7  13
BRANCH   1  15
ATOM     15  O   UNL     1       2.443   7.108  18.090  0.00  0.00    +0.000 OA
BRANCH  15  16
ATOM     16  C   UNL     1       2.546   8.535  17.999  0.00  0.00    +0.000 C 
BRANCH  16  17
ATOM     17  C   UNL     1       1.139   9.088  17.801  0.00  0.00    +0.000 C 
BRANCH  17  18
ATOM     18  C   UNL     1       0.627   9.822  19.033  0.00  0.00    +0.000 C 
BRANCH  18  19
ATOM     19  C   UNL     1       0.131  11.219  18.663  0.00  0.00    +0.000 C 
BRANCH  19  20
ATOM     20  C   UNL     1      -1.339  11.396  19.035  0.00  0.00    +0.000 C 
BRANCH  20  21
ATOM     21  C   UNL     1      -2.228  10.417  18.269  0.00  0.00    +0.000 C 
BRANCH  21  22
ATOM     22  C   UNL     1      -2.430  10.873  16.825  0.00  0.00    +0.000 C 
BRANCH  22  24
ATOM     23  C   UNL     1      -3.020  10.161  14.484  0.00  0.00    +0.000 C 
ATOM     24  C   UNL     1      -2.862   9.714  15.929  0.00  0.00    +0.000 C 
ENDBRANCH  22  24
ENDBRANCH  21  22
ENDBRANCH  20  21
ENDBRANCH  19  20
ENDBRANCH  18  19
ENDBRANCH  17  18
ENDBRANCH  16  17
ENDBRANCH  15  16
ENDBRANCH   1  15
BRANCH   8  25
ATOM     25  C   UNL     1       5.944   4.587  18.649  0.00  0.00    +0.000 C 
BRANCH  25  26
ATOM     26  O   UNL     1       5.996   3.928  17.386  0.00  0.00    +0.000 OA
ATOM     27  H   UNL     1       6.415   3.058  17.566  0.00  0.00    +0.000 HD
ENDBRANCH  25  26
ENDBRANCH   8  25
TORSDOF 14
ENDMDL
MODEL 4
REMARK VINA RESULT:      -6.3      1.411      1.612
REMARK  Name = 
REMARK  15 active torsions:
REMARK  status: ('A' for Active; 'I' for Inactive)
REMARK    1  A    between atoms: C_1  and  C_2
REMARK    2  A    between atoms: C_2  and  C_3
REMARK    3  A    between atoms: C_3  and  C_4
REMARK    4  A    between atoms: C_4  and  C_5
REMARK    5  A    between atoms: C_5  and  C_6
REMARK    6  A    between atoms: C_6  and  C_7
REMARK    7  A    between atoms: C_7  and  C_8
REMARK    8  A    between atoms: C_8  and  C_9
REMARK    9  A    between atoms: C_9  and  O_10
REMARK   10  A    between atoms: O_10  and  C_11
REMARK   11  A    between atoms: C_15  and  O_16
REMARK   12  A    between atoms: C_17  and  O_18
REMARK   13  A    between atoms: C_19  and  O_20
REMARK   14  A    between atoms: C_21  and  C_22
REMARK   15  A    between atoms: C_22  and  O_23
REMARK                            x       y       z     vdW  Elec       q    Type
REMARK                         _______ _______ _______ _____ _____    ______ ____
ROOT
ATOM      1  C   UNL     1       4.395   4.859  18.054  0.00  0.00    +0.000 C 
ATOM      2  O   UNL     1       3.857   5.883  17.657  0.00  0.00    +0.000 OA
ATOM      3  N   UNL     1       3.725   3.715  18.464  0.00  0.00    +0.000 N 
ATOM      4  C   UNL     1       4.475   2.602  19.053  0.00  0.00    +0.000 C 
ATOM      5  C   UNL     1       4.334   2.617  20.577  0.00  0.00    +0.000 C 
ATOM      6  C   UNL     1       2.841   2.469  20.926  0.00  0.00    +0.000 C 
ATOM      7  C   UNL     1       2.003   3.599  20.278  0.00  0.00    +0.000 C 
ATOM      8  C   UNL     1       2.263   3.689  18.748  0.00  0.00    +0.000 C 
ENDROOT
BRANCH   5   9
ATOM      9  O   UNL     1       5.125   1.570  21.140  0.00  0.00    +0.000 OA
ATOM     10  H   UNL     1       4.983   1.555  22.103  0.00  0.00    +0.000 HD
ENDBRANCH   5   9
BRANCH   6  11
ATOM     11  O   UNL     1       2.653   2.437  22.344  0.00  0.00    +0.000 OA
ATOM     12  H   UNL     1       1.736   2.166  22.527  0.00  0.00    +0.000 HD
ENDBRANCH   6  11
BRANCH   7  13
ATOM     13  O   UNL     1       0.610   3.370  20.538  0.00  0.00    +0.000 OA
ATOM     14  H   UNL     1       0.426   2.417  20.485  0.00  0.00    +0.000 HD
ENDBRANCH   7  13
BRANCH   1  15
ATOM     15  O   UNL     1       5.740   4.756  18.218  0.00  0.00    +0.000 OA
BRANCH  15  16
ATOM     16  C   UNL     1       6.531   5.431  17.231  0.00  0.00    +0.000 C 
BRANCH  16  17
ATOM     17  C   UNL     1       6.774   4.453  16.086  0.00  0.00    +0.000 C 
BRANCH  17  18
ATOM     18  C   UNL     1       6.245   4.976  14.758  0.00  0.00    +0.000 C 
BRANCH  18  19
ATOM     19  C   UNL     1       5.641   3.841  13.931  0.00  0.00    +0.000 C 
BRANCH  19  20
ATOM     20  C   UNL     1       6.357   3.698  12.590  0.00  0.00    +0.000 C 
BRANCH  20  21
ATOM     21  C   UNL     1       5.660   2.673  11.695  0.00  0.00    +0.000 C 
BRANCH  21  22
ATOM     22  C   UNL     1       4.181   3.013  11.520  0.00  0.00    +0.000 C 
BRANCH  22  24
ATOM     23  C   UNL     1       2.768   3.804   9.594  0.00  0.00    +0.000 C 
ATOM     24  C   UNL     1       3.979   4.099  10.466  0.00  0.00    +0.000 C 
ENDBRANCH  22  24
ENDBRANCH  21  22
ENDBRANCH  20  21
ENDBRANCH  19  20
ENDBRANCH  18  19
ENDBRANCH  17  18
ENDBRANCH  16  17
ENDBRANCH  15  16
ENDBRANCH   1  15
BRANCH   8  25
ATOM     25  C   UNL     1       1.391   4.802  18.115  0.00  0.00    +0.000 C 
BRANCH  25  26
ATOM     26  O   UNL     1       0.913   4.451  16.818  0.00  0.00    +0.000 OA
ATOM     27  H   UNL     1      -0.066   4.435  16.900  0.00  0.00    +0.000 HD
ENDBRANCH  25  26
ENDBRANCH   8  25
TORSDOF 14
ENDMDL
MODEL 5
REMARK VINA RESULT:      -6.3      3.955      6.312
REMARK  Name = 
REMARK  15 active torsions:
REMARK  status: ('A' for Active; 'I' for Inactive)
REMARK    1  A    between atoms: C_1  and  C_2
REMARK    2  A    between atoms: C_2  and  C_3
REMARK    3  A    between atoms: C_3  and  C_4
REMARK    4  A    between atoms: C_4  and  C_5
REMARK    5  A    between atoms: C_5  and  C_6
REMARK    6  A    between atoms: C_6  and  C_7
REMARK    7  A    between atoms: C_7  and  C_8
REMARK    8  A    between atoms: C_8  and  C_9
REMARK    9  A    between atoms: C_9  and  O_10
REMARK   10  A    between atoms: O_10  and  C_11
REMARK   11  A    between atoms: C_15  and  O_16
REMARK   12  A    between atoms: C_17  and  O_18
REMARK   13  A    between atoms: C_19  and  O_20
REMARK   14  A    between atoms: C_21  and  C_22
REMARK   15  A    between atoms: C_22  and  O_23
REMARK                            x       y       z     vdW  Elec       q    Type
REMARK                         _______ _______ _______ _____ _____    ______ ____
ROOT
ATOM      1  C   UNL     1       4.802   4.382  18.057  0.00  0.00    +0.000 C 
ATOM      2  O   UNL     1       4.479   5.409  17.476  0.00  0.00    +0.000 OA
ATOM      3  N   UNL     1       3.917   3.419  18.521  0.00  0.00    +0.000 N 
ATOM      4  C   UNL     1       4.414   2.301  19.328  0.00  0.00    +0.000 C 
ATOM      5  C   UNL     1       4.125   2.550  20.811  0.00  0.00    +0.000 C 
ATOM      6  C   UNL     1       2.600   2.674  20.992  0.00  0.00    +0.000 C 
ATOM      7  C   UNL     1       2.026   3.813  20.114  0.00  0.00    +0.000 C 
ATOM      8  C   UNL     1       2.450   3.649  18.627  0.00  0.00    +0.000 C 
ENDROOT
BRANCH   5   9
ATOM      9  O   UNL     1       4.675   1.487  21.589  0.00  0.00    +0.000 OA
ATOM     10  H   UNL     1       4.080   1.308  22.338  0.00  0.00    +0.000 HD
ENDBRANCH   5   9
BRANCH   6  11
ATOM     11  O   UNL     1       2.269   2.869  22.370  0.00  0.00    +0.000 OA
ATOM     12  H   UNL     1       1.302   2.811  22.465  0.00  0.00    +0.000 HD
ENDBRANCH   6  11
BRANCH   7  13
ATOM     13  O   UNL     1       0.596   3.831  20.230  0.00  0.00    +0.000 OA
ATOM     14  H   UNL     1       0.348   3.706  21.161  0.00  0.00    +0.000 HD
ENDBRANCH   7  13
BRANCH   1  15
ATOM     15  O   UNL     1       6.089   4.106  18.394  0.00  0.00    +0.000 OA
BRANCH  15  16
ATOM     16  C   UNL     1       7.083   4.837  17.664  0.00  0.00    +0.000 C 
BRANCH  16  17
ATOM     17  C   UNL     1       8.124   5.327  18.665  0.00  0.00    +0.000 C 
BRANCH  17  18
ATOM     18  C   UNL     1       8.063   6.833  18.871  0.00  0.00    +0.000 C 
BRANCH  18  19
ATOM     19  C   UNL     1       7.676   7.542  17.574  0.00  0.00    +0.000 C 
BRANCH  19  20
ATOM     20  C   UNL     1       7.922   9.046  17.675  0.00  0.00    +0.000 C 
BRANCH  20  21
ATOM     21  C   UNL     1       8.845   9.380  18.847  0.00  0.00    +0.000 C 
BRANCH  21  22
ATOM     22  C   UNL     1       9.481  10.758  18.670  0.00  0.00    +0.000 C 
BRANCH  22  24
ATOM     23  C   UNL     1      11.309  11.889  19.978  0.00  0.00    +0.000 C 
ATOM     24  C   UNL     1       9.882  11.363  20.013  0.00  0.00    +0.000 C 
ENDBRANCH  22  24
ENDBRANCH  21  22
ENDBRANCH  20  21
ENDBRANCH  19  20
ENDBRANCH  18  19
ENDBRANCH  17  18
ENDBRANCH  16  17
ENDBRANCH  15  16
ENDBRANCH   1  15
BRANCH   8  25
ATOM     25  C   UNL     1       1.837   4.778  17.762  0.00  0.00    +0.000 C 
BRANCH  25  26
ATOM     26  O   UNL     1       0.652   4.367  17.084  0.00  0.00    +0.000 OA
ATOM     27  H   UNL     1       0.938   4.160  16.167  0.00  0.00    +0.000 HD
ENDBRANCH  25  26
ENDBRANCH   8  25
TORSDOF 14
ENDMDL
MODEL 6
REMARK VINA RESULT:      -6.1      3.411      5.765
REMARK  Name = 
REMARK  15 active torsions:
REMARK  status: ('A' for Active; 'I' for Inactive)
REMARK    1  A    between atoms: C_1  and  C_2
REMARK    2  A    between atoms: C_2  and  C_3
REMARK    3  A    between atoms: C_3  and  C_4
REMARK    4  A    between atoms: C_4  and  C_5
REMARK    5  A    between atoms: C_5  and  C_6
REMARK    6  A    between atoms: C_6  and  C_7
REMARK    7  A    between atoms: C_7  and  C_8
REMARK    8  A    between atoms: C_8  and  C_9
REMARK    9  A    between atoms: C_9  and  O_10
REMARK   10  A    between atoms: O_10  and  C_11
REMARK   11  A    between atoms: C_15  and  O_16
REMARK   12  A    between atoms: C_17  and  O_18
REMARK   13  A    between atoms: C_19  and  O_20
REMARK   14  A    between atoms: C_21  and  C_22
REMARK   15  A    between atoms: C_22  and  O_23
REMARK                            x       y       z     vdW  Elec       q    Type
REMARK                         _______ _______ _______ _____ _____    ______ ____
ROOT
ATOM      1  C   UNL     1       4.419   5.523  17.266  0.00  0.00    +0.000 C 
ATOM      2  O   UNL     1       4.427   6.739  17.391  0.00  0.00    +0.000 OA
ATOM      3  N   UNL     1       3.449   4.676  17.785  0.00  0.00    +0.000 N 
ATOM      4  C   UNL     1       3.623   3.224  17.690  0.00  0.00    +0.000 C 
ATOM      5  C   UNL     1       4.106   2.661  19.029  0.00  0.00    +0.000 C 
ATOM      6  C   UNL     1       3.045   2.981  20.099  0.00  0.00    +0.000 C 
ATOM      7  C   UNL     1       2.793   4.506  20.195  0.00  0.00    +0.000 C 
ATOM      8  C   UNL     1       2.454   5.111  18.804  0.00  0.00    +0.000 C 
ENDROOT
BRANCH   5   9
ATOM      9  O   UNL     1       4.336   1.258  18.902  0.00  0.00    +0.000 OA
ATOM     10  H   UNL     1       4.578   1.063  17.979  0.00  0.00    +0.000 HD
ENDBRANCH   5   9
BRANCH   6  11
ATOM     11  O   UNL     1       3.427   2.441  21.368  0.00  0.00    +0.000 OA
ATOM     12  H   UNL     1       2.712   2.615  22.005  0.00  0.00    +0.000 HD
ENDBRANCH   6  11
BRANCH   7  13
ATOM     13  O   UNL     1       1.729   4.757  21.125  0.00  0.00    +0.000 OA
ATOM     14  H   UNL     1       1.776   4.109  21.848  0.00  0.00    +0.000 HD
ENDBRANCH   7  13
BRANCH   1  15
ATOM     15  O   UNL     1       5.427   4.843  16.660  0.00  0.00    +0.000 OA
BRANCH  15  16
ATOM     16  C   UNL     1       6.667   5.554  16.552  0.00  0.00    +0.000 C 
BRANCH  16  17
ATOM     17  C   UNL     1       7.533   5.156  17.742  0.00  0.00    +0.000 C 
BRANCH  17  18
ATOM     18  C   UNL     1       7.799   6.324  18.680  0.00  0.00    +0.000 C 
BRANCH  18  19
ATOM     19  C   UNL     1       7.821   7.644  17.909  0.00  0.00    +0.000 C 
BRANCH  19  20
ATOM     20  C   UNL     1       8.556   8.727  18.695  0.00  0.00    +0.000 C 
BRANCH  20  21
ATOM     21  C   UNL     1       8.682  10.015  17.882  0.00  0.00    +0.000 C 
BRANCH  21  22
ATOM     22  C   UNL     1       9.738  10.942  18.480  0.00  0.00    +0.000 C 
BRANCH  22  24
ATOM     23  C   UNL     1       8.316  12.774  17.505  0.00  0.00    +0.000 C 
ATOM     24  C   UNL     1       9.193  12.356  18.674  0.00  0.00    +0.000 C 
ENDBRANCH  22  24
ENDBRANCH  21  22
ENDBRANCH  20  21
ENDBRANCH  19  20
ENDBRANCH  18  19
ENDBRANCH  17  18
ENDBRANCH  16  17
ENDBRANCH  15  16
ENDBRANCH   1  15
BRANCH   8  25
ATOM     25  C   UNL     1       2.173   6.629  18.929  0.00  0.00    +0.000 C 
BRANCH  25  26
ATOM     26  O   UNL     1       2.712   7.190  20.124  0.00  0.00    +0.000 OA
ATOM     27  H   UNL     1       2.030   7.820  20.444  0.00  0.00    +0.000 HD
ENDBRANCH  25  26
ENDBRANCH   8  25
TORSDOF 14
ENDMDL
MODEL 7
REMARK VINA RESULT:      -6.0      3.883      7.259
REMARK  Name = 
REMARK  15 active torsions:
REMARK  status: ('A' for Active; 'I' for Inactive)
REMARK    1  A    between atoms: C_1  and  C_2
REMARK    2  A    between atoms: C_2  and  C_3
REMARK    3  A    between atoms: C_3  and  C_4
REMARK    4  A    between atoms: C_4  and  C_5
REMARK    5  A    between atoms: C_5  and  C_6
REMARK    6  A    between atoms: C_6  and  C_7
REMARK    7  A    between atoms: C_7  and  C_8
REMARK    8  A    between atoms: C_8  and  C_9
REMARK    9  A    between atoms: C_9  and  O_10
REMARK   10  A    between atoms: O_10  and  C_11
REMARK   11  A    between atoms: C_15  and  O_16
REMARK   12  A    between atoms: C_17  and  O_18
REMARK   13  A    between atoms: C_19  and  O_20
REMARK   14  A    between atoms: C_21  and  C_22
REMARK   15  A    between atoms: C_22  and  O_23
REMARK                            x       y       z     vdW  Elec       q    Type
REMARK                         _______ _______ _______ _____ _____    ______ ____
ROOT
ATOM      1  C   UNL     1       3.667   6.239  18.367  0.00  0.00    +0.000 C 
ATOM      2  O   UNL     1       4.450   6.487  17.460  0.00  0.00    +0.000 OA
ATOM      3  N   UNL     1       3.640   5.057  19.094  0.00  0.00    +0.000 N 
ATOM      4  C   UNL     1       2.564   4.821  20.060  0.00  0.00    +0.000 C 
ATOM      5  C   UNL     1       1.512   3.883  19.463  0.00  0.00    +0.000 C 
ATOM      6  C   UNL     1       2.196   2.545  19.120  0.00  0.00    +0.000 C 
ATOM      7  C   UNL     1       3.375   2.758  18.138  0.00  0.00    +0.000 C 
ATOM      8  C   UNL     1       4.368   3.828  18.671  0.00  0.00    +0.000 C 
ENDROOT
BRANCH   5   9
ATOM      9  O   UNL     1       0.439   3.717  20.389  0.00  0.00    +0.000 OA
ATOM     10  H   UNL     1      -0.370   3.498  19.894  0.00  0.00    +0.000 HD
ENDBRANCH   5   9
BRANCH   6  11
ATOM     11  O   UNL     1       1.248   1.613  18.592  0.00  0.00    +0.000 OA
ATOM     12  H   UNL     1       1.723   0.804  18.334  0.00  0.00    +0.000 HD
ENDBRANCH   6  11
BRANCH   7  13
ATOM     13  O   UNL     1       4.049   1.509  17.924  0.00  0.00    +0.000 OA
ATOM     14  H   UNL     1       4.881   1.671  17.449  0.00  0.00    +0.000 HD
ENDBRANCH   7  13
BRANCH   1  15
ATOM     15  O   UNL     1       2.661   7.083  18.716  0.00  0.00    +0.000 OA
BRANCH  15  16
ATOM     16  C   UNL     1       2.110   7.855  17.641  0.00  0.00    +0.000 C 
BRANCH  16  17
ATOM     17  C   UNL     1       2.086   9.314  18.085  0.00  0.00    +0.000 C 
BRANCH  17  18
ATOM     18  C   UNL     1       1.017   9.582  19.135  0.00  0.00    +0.000 C 
BRANCH  18  19
ATOM     19  C   UNL     1       0.131  10.756  18.718  0.00  0.00    +0.000 C 
BRANCH  19  20
ATOM     20  C   UNL     1      -1.334  10.334  18.630  0.00  0.00    +0.000 C 
BRANCH  20  21
ATOM     21  C   UNL     1      -1.699   9.884  17.216  0.00  0.00    +0.000 C 
BRANCH  21  22
ATOM     22  C   UNL     1      -2.686  10.854  16.569  0.00  0.00    +0.000 C 
BRANCH  22  24
ATOM     23  C   UNL     1      -5.003  11.741  16.985  0.00  0.00    +0.000 C 
ATOM     24  C   UNL     1      -3.644  11.445  17.600  0.00  0.00    +0.000 C 
ENDBRANCH  22  24
ENDBRANCH  21  22
ENDBRANCH  20  21
ENDBRANCH  19  20
ENDBRANCH  18  19
ENDBRANCH  17  18
ENDBRANCH  16  17
ENDBRANCH  15  16
ENDBRANCH   1  15
BRANCH   8  25
ATOM     25  C   UNL     1       5.555   4.000  17.691  0.00  0.00    +0.000 C 
BRANCH  25  26
ATOM     26  O   UNL     1       6.777   4.305  18.361  0.00  0.00    +0.000 OA
ATOM     27  H   UNL     1       7.435   4.446  17.645  0.00  0.00    +0.000 HD
ENDBRANCH  25  26
ENDBRANCH   8  25
TORSDOF 14
ENDMDL
MODEL 8
REMARK VINA RESULT:      -6.0      4.025      7.407
REMARK  Name = 
REMARK  15 active torsions:
REMARK  status: ('A' for Active; 'I' for Inactive)
REMARK    1  A    between atoms: C_1  and  C_2
REMARK    2  A    between atoms: C_2  and  C_3
REMARK    3  A    between atoms: C_3  and  C_4
REMARK    4  A    between atoms: C_4  and  C_5
REMARK    5  A    between atoms: C_5  and  C_6
REMARK    6  A    between atoms: C_6  and  C_7
REMARK    7  A    between atoms: C_7  and  C_8
REMARK    8  A    between atoms: C_8  and  C_9
REMARK    9  A    between atoms: C_9  and  O_10
REMARK   10  A    between atoms: O_10  and  C_11
REMARK   11  A    between atoms: C_15  and  O_16
REMARK   12  A    between atoms: C_17  and  O_18
REMARK   13  A    between atoms: C_19  and  O_20
REMARK   14  A    between atoms: C_21  and  C_22
REMARK   15  A    between atoms: C_22  and  O_23
REMARK                            x       y       z     vdW  Elec       q    Type
REMARK                         _______ _______ _______ _____ _____    ______ ____
ROOT
ATOM      1  C   UNL     1       2.915   6.323  19.426  0.00  0.00    +0.000 C 
ATOM      2  O   UNL     1       3.440   6.934  18.506  0.00  0.00    +0.000 OA
ATOM      3  N   UNL     1       3.263   5.043  19.832  0.00  0.00    +0.000 N 
ATOM      4  C   UNL     1       2.466   4.360  20.854  0.00  0.00    +0.000 C 
ATOM      5  C   UNL     1       1.523   3.347  20.200  0.00  0.00    +0.000 C 
ATOM      6  C   UNL     1       2.376   2.312  19.441  0.00  0.00    +0.000 C 
ATOM      7  C   UNL     1       3.275   3.000  18.384  0.00  0.00    +0.000 C 
ATOM      8  C   UNL     1       4.122   4.139  19.017  0.00  0.00    +0.000 C 
ENDROOT
BRANCH   5   9
ATOM      9  O   UNL     1       0.705   2.740  21.200  0.00  0.00    +0.000 OA
ATOM     10  H   UNL     1       1.081   2.940  22.075  0.00  0.00    +0.000 HD
ENDBRANCH   5   9
BRANCH   6  11
ATOM     11  O   UNL     1       1.546   1.314  18.840  0.00  0.00    +0.000 OA
ATOM     12  H   UNL     1       1.661   1.358  17.875  0.00  0.00    +0.000 HD
ENDBRANCH   6  11
BRANCH   7  13
ATOM     13  O   UNL     1       4.127   2.021  17.771  0.00  0.00    +0.000 OA
ATOM     14  H   UNL     1       3.688   1.661  16.983  0.00  0.00    +0.000 HD
ENDBRANCH   7  13
BRANCH   1  15
ATOM     15  O   UNL     1       1.850   6.811  20.114  0.00  0.00    +0.000 OA
BRANCH  15  16
ATOM     16  C   UNL     1       1.703   8.236  20.084  0.00  0.00    +0.000 C 
BRANCH  16  17
ATOM     17  C   UNL     1       0.998   8.655  21.370  0.00  0.00    +0.000 C 
BRANCH  17  18
ATOM     18  C   UNL     1      -0.176   9.587  21.109  0.00  0.00    +0.000 C 
BRANCH  18  19
ATOM     19  C   UNL     1       0.086  10.458  19.880  0.00  0.00    +0.000 C 
BRANCH  19  20
ATOM     20  C   UNL     1      -1.167  10.580  19.016  0.00  0.00    +0.000 C 
BRANCH  20  21
ATOM     21  C   UNL     1      -0.994   9.856  17.681  0.00  0.00    +0.000 C 
BRANCH  21  22
ATOM     22  C   UNL     1      -2.195  10.095  16.767  0.00  0.00    +0.000 C 
BRANCH  22  24
ATOM     23  C   UNL     1      -4.428  11.185  17.164  0.00  0.00    +0.000 C 
ATOM     24  C   UNL     1      -3.508  10.035  17.545  0.00  0.00    +0.000 C 
ENDBRANCH  22  24
ENDBRANCH  21  22
ENDBRANCH  20  21
ENDBRANCH  19  20
ENDBRANCH  18  19
ENDBRANCH  17  18
ENDBRANCH  16  17
ENDBRANCH  15  16
ENDBRANCH   1  15
BRANCH   8  25
ATOM     25  C   UNL     1       5.038   4.790  17.951  0.00  0.00    +0.000 C 
BRANCH  25  26
ATOM     26  O   UNL     1       4.464   4.761  16.646  0.00  0.00    +0.000 OA
ATOM     27  H   UNL     1       4.953   4.058  16.165  0.00  0.00    +0.000 HD
ENDBRANCH  25  26
ENDBRANCH   8  25
TORSDOF 14
ENDMDL
MODEL 9
REMARK VINA RESULT:      -6.0      4.314      8.213
REMARK  Name = 
REMARK  15 active torsions:
REMARK  status: ('A' for Active; 'I' for Inactive)
REMARK    1  A    between atoms: C_1  and  C_2
REMARK    2  A    between atoms: C_2  and  C_3
REMARK    3  A    between atoms: C_3  and  C_4
REMARK    4  A    between atoms: C_4  and  C_5
REMARK    5  A    between atoms: C_5  and  C_6
REMARK    6  A    between atoms: C_6  and  C_7
REMARK    7  A    between atoms: C_7  and  C_8
REMARK    8  A    between atoms: C_8  and  C_9
REMARK    9  A    between atoms: C_9  and  O_10
REMARK   10  A    between atoms: O_10  and  C_11
REMARK   11  A    between atoms: C_15  and  O_16
REMARK   12  A    between atoms: C_17  and  O_18
REMARK   13  A    between atoms: C_19  and  O_20
REMARK   14  A    between atoms: C_21  and  C_22
REMARK   15  A    between atoms: C_22  and  O_23
REMARK                            x       y       z     vdW  Elec       q    Type
REMARK                         _______ _______ _______ _____ _____    ______ ____
ROOT
ATOM      1  C   UNL     1       3.524   6.556  18.068  0.00  0.00    +0.000 C 
ATOM      2  O   UNL     1       4.463   6.716  17.302  0.00  0.00    +0.000 OA
ATOM      3  N   UNL     1       3.545   5.747  19.196  0.00  0.00    +0.000 N 
ATOM      4  C   UNL     1       2.313   5.524  19.957  0.00  0.00    +0.000 C 
ATOM      5  C   UNL     1       1.718   4.157  19.611  0.00  0.00    +0.000 C 
ATOM      6  C   UNL     1       2.749   3.074  19.979  0.00  0.00    +0.000 C 
ATOM      7  C   UNL     1       4.087   3.303  19.233  0.00  0.00    +0.000 C 
ATOM      8  C   UNL     1       4.618   4.747  19.456  0.00  0.00    +0.000 C 
ENDROOT
BRANCH   5   9
ATOM      9  O   UNL     1       0.483   3.983  20.307  0.00  0.00    +0.000 OA
ATOM     10  H   UNL     1       0.191   4.848  20.645  0.00  0.00    +0.000 HD
ENDBRANCH   5   9
BRANCH   6  11
ATOM     11  O   UNL     1       2.229   1.768  19.712  0.00  0.00    +0.000 OA
ATOM     12  H   UNL     1       2.843   1.110  20.082  0.00  0.00    +0.000 HD
ENDBRANCH   6  11
BRANCH   7  13
ATOM     13  O   UNL     1       5.053   2.338  19.678  0.00  0.00    +0.000 OA
ATOM     14  H   UNL     1       5.091   1.605  19.041  0.00  0.00    +0.000 HD
ENDBRANCH   7  13
BRANCH   1  15
ATOM     15  O   UNL     1       2.299   7.102  17.848  0.00  0.00    +0.000 OA
BRANCH  15  16
ATOM     16  C   UNL     1       2.269   8.533  17.792  0.00  0.00    +0.000 C 
BRANCH  16  17
ATOM     17  C   UNL     1       1.486   9.027  19.004  0.00  0.00    +0.000 C 
BRANCH  17  18
ATOM     18  C   UNL     1       0.827  10.376  18.756  0.00  0.00    +0.000 C 
BRANCH  18  19
ATOM     19  C   UNL     1      -0.677  10.300  19.020  0.00  0.00    +0.000 C 
BRANCH  19  20
ATOM     20  C   UNL     1      -1.170  11.548  19.750  0.00  0.00    +0.000 C 
BRANCH  20  21
ATOM     21  C   UNL     1      -0.357  11.807  21.019  0.00  0.00    +0.000 C 
BRANCH  21  22
ATOM     22  C   UNL     1      -1.272  12.067  22.214  0.00  0.00    +0.000 C 
BRANCH  22  24
ATOM     23  C   UNL     1      -0.156   9.904  22.851  0.00  0.00    +0.000 C 
ATOM     24  C   UNL     1      -1.256  10.895  23.194  0.00  0.00    +0.000 C 
ENDBRANCH  22  24
ENDBRANCH  21  22
ENDBRANCH  20  21
ENDBRANCH  19  20
ENDBRANCH  18  19
ENDBRANCH  17  18
ENDBRANCH  16  17
ENDBRANCH  15  16
ENDBRANCH   1  15
BRANCH   8  25
ATOM     25  C   UNL     1       5.972   4.944  18.731  0.00  0.00    +0.000 C 
BRANCH  25  26
ATOM     26  O   UNL     1       6.159   4.022  17.659  0.00  0.00    +0.000 OA
ATOM     27  H   UNL     1       5.998   3.135  18.051  0.00  0.00    +0.000 HD
ENDBRANCH  25  26
ENDBRANCH   8  25
TORSDOF 14
ENDMDL
