MODEL 1
REMARK VINA RESULT:      -7.1      0.000      0.000
REMARK  Name = 
REMARK  13 active torsions:
REMARK  status: ('A' for Active; 'I' for Inactive)
REMARK    1  A    between atoms: C_1  and  N_2
REMARK    2  A    between atoms: N_2  and  C_3
REMARK    3  A    between atoms: C_3  and  C_4
REMARK    4  A    between atoms: C_5  and  C_6
REMARK    5  A    between atoms: C_6  and  N_7
REMARK    6  A    between atoms: C_12  and  C_14
REMARK    7  A    between atoms: C_14  and  C_15
REMARK    8  A    between atoms: C_15  and  N_16
REMARK    9  A    between atoms: C_17  and  O_19
REMARK   10  A    between atoms: O_19  and  C_20
REMARK   11  A    between atoms: C_20  and  C_21
REMARK   12  A    between atoms: C_20  and  C_22
REMARK   13  A    between atoms: C_20  and  C_23
REMARK                            x       y       z     vdW  Elec       q    Type
REMARK                         _______ _______ _______ _____ _____    ______ ____
ROOT
ATOM      1  C   UNL     1       8.142   5.807  19.322  0.00  0.00    +0.000 C 
ATOM      2  N   UNL     1       7.147   6.174  18.320  0.00  0.00    +0.000 N 
ATOM      3  C   UNL     1       6.069   5.292  18.195  0.00  0.00    +0.000 C 
ATOM      4  O   UNL     1       5.936   4.324  18.959  0.00  0.00    +0.000 OA
ENDROOT
BRANCH   2   5
ATOM      5  C   UNL     1       7.436   7.261  17.374  0.00  0.00    +0.000 C 
BRANCH   5   6
ATOM      6  C   UNL     1       8.090   8.448  17.997  0.00  0.00    +0.000 C 
ATOM      7  C   UNL     1       8.648   9.419  18.452  0.00  0.00    +0.000 C 
BRANCH   7   8
ATOM      8  C   UNL     1       9.374  10.612  18.911  0.00  0.00    +0.000 C 
BRANCH   8   9
ATOM      9  N   UNL     1       9.905  11.478  17.850  0.00  0.00    +0.000 NA
ATOM     10  C   UNL     1      11.331  11.784  18.001  0.00  0.00    +0.000 C 
ATOM     11  C   UNL     1      11.373  13.191  18.564  0.00  0.00    +0.000 C 
ATOM     12  C   UNL     1      10.229  13.860  17.832  0.00  0.00    +0.000 C 
ATOM     13  C   UNL     1       9.193  12.750  17.667  0.00  0.00    +0.000 C 
ENDBRANCH   8   9
ENDBRANCH   7   8
ENDBRANCH   5   6
ENDBRANCH   2   5
BRANCH   3  14
ATOM     14  C   UNL     1       5.050   5.549  17.099  0.00  0.00    +0.000 C 
BRANCH  14  15
ATOM     15  C   UNL     1       3.852   6.369  17.613  0.00  0.00    +0.000 C 
BRANCH  15  16
ATOM     16  N   UNL     1       3.219   5.788  18.794  0.00  0.00    +0.000 N 
ATOM     17  C   UNL     1       2.137   4.967  18.664  0.00  0.00    +0.000 C 
ATOM     18  O   UNL     1       1.616   4.740  17.574  0.00  0.00    +0.000 OA
ATOM     19  H   UNL     1       3.672   5.817  19.694  0.00  0.00    +0.000 HD
BRANCH  17  20
ATOM     20  O   UNL     1       1.701   4.480  19.855  0.00  0.00    +0.000 OA
BRANCH  20  21
ATOM     21  C   UNL     1       1.771   3.039  20.070  0.00  0.00    +0.000 C 
ATOM     22  C   UNL     1       1.484   2.671  21.534  0.00  0.00    +0.000 C 
ATOM     23  C   UNL     1       0.704   2.372  19.179  0.00  0.00    +0.000 C 
ATOM     24  C   UNL     1       3.136   2.492  19.621  0.00  0.00    +0.000 C 
ENDBRANCH  20  21
ENDBRANCH  17  20
ENDBRANCH  15  16
ENDBRANCH  14  15
ENDBRANCH   3  14
TORSDOF 9
ENDMDL
MODEL 2
REMARK VINA RESULT:      -7.0      1.673      2.154
REMARK  Name = 
REMARK  13 active torsions:
REMARK  status: ('A' for Active; 'I' for Inactive)
REMARK    1  A    between atoms: C_1  and  N_2
REMARK    2  A    between atoms: N_2  and  C_3
REMARK    3  A    between atoms: C_3  and  C_4
REMARK    4  A    between atoms: C_5  and  C_6
REMARK    5  A    between atoms: C_6  and  N_7
REMARK    6  A    between atoms: C_12  and  C_14
REMARK    7  A    between atoms: C_14  and  C_15
REMARK    8  A    between atoms: C_15  and  N_16
REMARK    9  A    between atoms: C_17  and  O_19
REMARK   10  A    between atoms: O_19  and  C_20
REMARK   11  A    between atoms: C_20  and  C_21
REMARK   12  A    between atoms: C_20  and  C_22
REMARK   13  A    between atoms: C_20  and  C_23
REMARK                            x       y       z     vdW  Elec       q    Type
REMARK                         _______ _______ _______ _____ _____    ______ ____
ROOT
ATOM      1  C   UNL     1       8.126   6.237  19.254  0.00  0.00    +0.000 C 
ATOM      2  N   UNL     1       7.492   6.150  17.943  0.00  0.00    +0.000 N 
ATOM      3  C   UNL     1       7.497   4.880  17.357  0.00  0.00    +0.000 C 
ATOM      4  O   UNL     1       7.928   3.890  17.969  0.00  0.00    +0.000 OA
ENDROOT
BRANCH   2   5
ATOM      5  C   UNL     1       7.119   7.382  17.234  0.00  0.00    +0.000 C 
BRANCH   5   6
ATOM      6  C   UNL     1       7.867   8.590  17.687  0.00  0.00    +0.000 C 
ATOM      7  C   UNL     1       8.432   9.602  18.029  0.00  0.00    +0.000 C 
BRANCH   7   8
ATOM      8  C   UNL     1       9.041  10.888  18.400  0.00  0.00    +0.000 C 
BRANCH   8   9
ATOM      9  N   UNL     1      10.107  10.818  19.407  0.00  0.00    +0.000 NA
ATOM     10  C   UNL     1       9.741  11.417  20.694  0.00  0.00    +0.000 C 
ATOM     11  C   UNL     1      10.422  12.771  20.706  0.00  0.00    +0.000 C 
ATOM     12  C   UNL     1      11.742  12.467  20.029  0.00  0.00    +0.000 C 
ATOM     13  C   UNL     1      11.394  11.397  18.997  0.00  0.00    +0.000 C 
ENDBRANCH   8   9
ENDBRANCH   7   8
ENDBRANCH   5   6
ENDBRANCH   2   5
BRANCH   3  14
ATOM     14  C   UNL     1       6.953   4.733  15.948  0.00  0.00    +0.000 C 
BRANCH  14  15
ATOM     15  C   UNL     1       5.522   4.162  15.943  0.00  0.00    +0.000 C 
BRANCH  15  16
ATOM     16  N   UNL     1       5.027   3.836  17.278  0.00  0.00    +0.000 N 
ATOM     17  C   UNL     1       4.179   4.686  17.926  0.00  0.00    +0.000 C 
ATOM     18  O   UNL     1       3.854   5.773  17.454  0.00  0.00    +0.000 OA
ATOM     19  H   UNL     1       5.137   2.910  17.662  0.00  0.00    +0.000 HD
BRANCH  17  20
ATOM     20  O   UNL     1       3.782   4.210  19.136  0.00  0.00    +0.000 OA
BRANCH  20  21
ATOM     21  C   UNL     1       2.391   3.795  19.283  0.00  0.00    +0.000 C 
ATOM     22  C   UNL     1       2.284   2.381  19.876  0.00  0.00    +0.000 C 
ATOM     23  C   UNL     1       1.698   4.782  20.243  0.00  0.00    +0.000 C 
ATOM     24  C   UNL     1       1.655   3.886  17.937  0.00  0.00    +0.000 C 
ENDBRANCH  20  21
ENDBRANCH  17  20
ENDBRANCH  15  16
ENDBRANCH  14  15
ENDBRANCH   3  14
TORSDOF 9
ENDMDL
MODEL 3
REMARK VINA RESULT:      -6.9      1.841      2.335
REMARK  Name = 
REMARK  13 active torsions:
REMARK  status: ('A' for Active; 'I' for Inactive)
REMARK    1  A    between atoms: C_1  and  N_2
REMARK    2  A    between atoms: N_2  and  C_3
REMARK    3  A    between atoms: C_3  and  C_4
REMARK    4  A    between atoms: C_5  and  C_6
REMARK    5  A    between atoms: C_6  and  N_7
REMARK    6  A    between atoms: C_12  and  C_14
REMARK    7  A    between atoms: C_14  and  C_15
REMARK    8  A    between atoms: C_15  and  N_16
REMARK    9  A    between atoms: C_17  and  O_19
REMARK   10  A    between atoms: O_19  and  C_20
REMARK   11  A    between atoms: C_20  and  C_21
REMARK   12  A    between atoms: C_20  and  C_22
REMARK   13  A    between atoms: C_20  and  C_23
REMARK                            x       y       z     vdW  Elec       q    Type
REMARK                         _______ _______ _______ _____ _____    ______ ____
ROOT
ATOM      1  C   UNL     1       8.120   6.171  19.254  0.00  0.00    +0.000 C 
ATOM      2  N   UNL     1       7.381   6.115  17.997  0.00  0.00    +0.000 N 
ATOM      3  C   UNL     1       7.529   4.932  17.267  0.00  0.00    +0.000 C 
ATOM      4  O   UNL     1       8.169   3.970  17.721  0.00  0.00    +0.000 OA
ENDROOT
BRANCH   2   5
ATOM      5  C   UNL     1       6.751   7.334  17.472  0.00  0.00    +0.000 C 
BRANCH   5   6
ATOM      6  C   UNL     1       7.575   8.565  17.645  0.00  0.00    +0.000 C 
ATOM      7  C   UNL     1       8.234   9.559  17.843  0.00  0.00    +0.000 C 
BRANCH   7   8
ATOM      8  C   UNL     1       9.019  10.753  18.188  0.00  0.00    +0.000 C 
BRANCH   8   9
ATOM      9  N   UNL     1       9.948  10.598  19.315  0.00  0.00    +0.000 NA
ATOM     10  C   UNL     1       9.346  10.899  20.618  0.00  0.00    +0.000 C 
ATOM     11  C   UNL     1       9.844  12.286  20.970  0.00  0.00    +0.000 C 
ATOM     12  C   UNL     1      11.268  12.251  20.456  0.00  0.00    +0.000 C 
ATOM     13  C   UNL     1      11.193  11.370  19.211  0.00  0.00    +0.000 C 
ENDBRANCH   8   9
ENDBRANCH   7   8
ENDBRANCH   5   6
ENDBRANCH   2   5
BRANCH   3  14
ATOM     14  C   UNL     1       6.879   4.842  15.898  0.00  0.00    +0.000 C 
BRANCH  14  15
ATOM     15  C   UNL     1       5.630   3.940  15.916  0.00  0.00    +0.000 C 
BRANCH  15  16
ATOM     16  N   UNL     1       5.269   3.481  17.254  0.00  0.00    +0.000 N 
ATOM     17  C   UNL     1       3.961   3.286  17.588  0.00  0.00    +0.000 C 
ATOM     18  O   UNL     1       3.042   3.549  16.814  0.00  0.00    +0.000 OA
ATOM     19  H   UNL     1       5.967   3.116  17.884  0.00  0.00    +0.000 HD
BRANCH  17  20
ATOM     20  O   UNL     1       3.806   2.817  18.854  0.00  0.00    +0.000 OA
BRANCH  20  21
ATOM     21  C   UNL     1       2.814   3.466  19.705  0.00  0.00    +0.000 C 
ATOM     22  C   UNL     1       1.390   3.268  19.164  0.00  0.00    +0.000 C 
ATOM     23  C   UNL     1       2.900   2.828  21.107  0.00  0.00    +0.000 C 
ATOM     24  C   UNL     1       3.139   4.959  19.871  0.00  0.00    +0.000 C 
ENDBRANCH  20  21
ENDBRANCH  17  20
ENDBRANCH  15  16
ENDBRANCH  14  15
ENDBRANCH   3  14
TORSDOF 9
ENDMDL
MODEL 4
REMARK VINA RESULT:      -6.8      1.568      2.054
REMARK  Name = 
REMARK  13 active torsions:
REMARK  status: ('A' for Active; 'I' for Inactive)
REMARK    1  A    between atoms: C_1  and  N_2
REMARK    2  A    between atoms: N_2  and  C_3
REMARK    3  A    between atoms: C_3  and  C_4
REMARK    4  A    between atoms: C_5  and  C_6
REMARK    5  A    between atoms: C_6  and  N_7
REMARK    6  A    between atoms: C_12  and  C_14
REMARK    7  A    between atoms: C_14  and  C_15
REMARK    8  A    between atoms: C_15  and  N_16
REMARK    9  A    between atoms: C_17  and  O_19
REMARK   10  A    between atoms: O_19  and  C_20
REMARK   11  A    between atoms: C_20  and  C_21
REMARK   12  A    between atoms: C_20  and  C_22
REMARK   13  A    between atoms: C_20  and  C_23
REMARK                            x       y       z     vdW  Elec       q    Type
REMARK                         _______ _______ _______ _____ _____    ______ ____
ROOT
ATOM      1  C   UNL     1       8.104   6.275  19.226  0.00  0.00    +0.000 C 
ATOM      2  N   UNL     1       7.471   6.246  17.912  0.00  0.00    +0.000 N 
ATOM      3  C   UNL     1       7.462   4.999  17.278  0.00  0.00    +0.000 C 
ATOM      4  O   UNL     1       7.880   3.982  17.853  0.00  0.00    +0.000 OA
ENDROOT
BRANCH   2   5
ATOM      5  C   UNL     1       7.114   7.508  17.250  0.00  0.00    +0.000 C 
BRANCH   5   6
ATOM      6  C   UNL     1       7.861   8.693  17.762  0.00  0.00    +0.000 C 
ATOM      7  C   UNL     1       8.514   9.620  18.181  0.00  0.00    +0.000 C 
BRANCH   7   8
ATOM      8  C   UNL     1       9.393  10.682  18.692  0.00  0.00    +0.000 C 
BRANCH   8   9
ATOM      9  N   UNL     1       9.426  11.915  17.896  0.00  0.00    +0.000 NA
ATOM     10  C   UNL     1      10.063  13.042  18.585  0.00  0.00    +0.000 C 
ATOM     11  C   UNL     1       8.915  13.907  19.067  0.00  0.00    +0.000 C 
ATOM     12  C   UNL     1       7.933  13.799  17.921  0.00  0.00    +0.000 C 
ATOM     13  C   UNL     1       8.122  12.376  17.401  0.00  0.00    +0.000 C 
ENDBRANCH   8   9
ENDBRANCH   7   8
ENDBRANCH   5   6
ENDBRANCH   2   5
BRANCH   3  14
ATOM     14  C   UNL     1       6.918   4.911  15.864  0.00  0.00    +0.000 C 
BRANCH  14  15
ATOM     15  C   UNL     1       5.599   4.119  15.806  0.00  0.00    +0.000 C 
BRANCH  15  16
ATOM     16  N   UNL     1       5.040   3.833  17.124  0.00  0.00    +0.000 N 
ATOM     17  C   UNL     1       4.176   4.709  17.713  0.00  0.00    +0.000 C 
ATOM     18  O   UNL     1       3.888   5.788  17.200  0.00  0.00    +0.000 OA
ATOM     19  H   UNL     1       5.120   2.915  17.534  0.00  0.00    +0.000 HD
BRANCH  17  20
ATOM     20  O   UNL     1       3.718   4.268  18.914  0.00  0.00    +0.000 OA
BRANCH  20  21
ATOM     21  C   UNL     1       2.362   3.734  18.974  0.00  0.00    +0.000 C 
ATOM     22  C   UNL     1       1.555   4.100  17.719  0.00  0.00    +0.000 C 
ATOM     23  C   UNL     1       2.458   2.197  19.064  0.00  0.00    +0.000 C 
ATOM     24  C   UNL     1       1.648   4.214  20.248  0.00  0.00    +0.000 C 
ENDBRANCH  20  21
ENDBRANCH  17  20
ENDBRANCH  15  16
ENDBRANCH  14  15
ENDBRANCH   3  14
TORSDOF 9
ENDMDL
MODEL 5
REMARK VINA RESULT:      -6.7      1.219      1.600
REMARK  Name = 
REMARK  13 active torsions:
REMARK  status: ('A' for Active; 'I' for Inactive)
REMARK    1  A    between atoms: C_1  and  N_2
REMARK    2  A    between atoms: N_2  and  C_3
REMARK    3  A    between atoms: C_3  and  C_4
REMARK    4  A    between atoms: C_5  and  C_6
REMARK    5  A    between atoms: C_6  and  N_7
REMARK    6  A    between atoms: C_12  and  C_14
REMARK    7  A    between atoms: C_14  and  C_15
REMARK    8  A    between atoms: C_15  and  N_16
REMARK    9  A    between atoms: C_17  and  O_19
REMARK   10  A    between atoms: O_19  and  C_20
REMARK   11  A    between atoms: C_20  and  C_21
REMARK   12  A    between atoms: C_20  and  C_22
REMARK   13  A    between atoms: C_20  and  C_23
REMARK                            x       y       z     vdW  Elec       q    Type
REMARK                         _______ _______ _______ _____ _____    ______ ____
ROOT
ATOM      1  C   UNL     1       8.367   6.136  19.251  0.00  0.00    +0.000 C 
ATOM      2  N   UNL     1       7.397   6.392  18.192  0.00  0.00    +0.000 N 
ATOM      3  C   UNL     1       6.591   5.304  17.842  0.00  0.00    +0.000 C 
ATOM      4  O   UNL     1       6.644   4.235  18.468  0.00  0.00    +0.000 OA
ENDROOT
BRANCH   2   5
ATOM      5  C   UNL     1       7.480   7.639  17.418  0.00  0.00    +0.000 C 
BRANCH   5   6
ATOM      6  C   UNL     1       8.201   8.740  18.119  0.00  0.00    +0.000 C 
ATOM      7  C   UNL     1       8.750   9.670  18.663  0.00  0.00    +0.000 C 
BRANCH   7   8
ATOM      8  C   UNL     1       9.346  10.866  19.276  0.00  0.00    +0.000 C 
BRANCH   8   9
ATOM      9  N   UNL     1      10.754  11.115  18.939  0.00  0.00    +0.000 NA
ATOM     10  C   UNL     1      11.482  11.857  19.974  0.00  0.00    +0.000 C 
ATOM     11  C   UNL     1      11.563  13.279  19.454  0.00  0.00    +0.000 C 
ATOM     12  C   UNL     1      11.778  13.063  17.972  0.00  0.00    +0.000 C 
ATOM     13  C   UNL     1      10.979  11.799  17.659  0.00  0.00    +0.000 C 
ENDBRANCH   8   9
ENDBRANCH   7   8
ENDBRANCH   5   6
ENDBRANCH   2   5
BRANCH   3  14
ATOM     14  C   UNL     1       5.633   5.462  16.674  0.00  0.00    +0.000 C 
BRANCH  14  15
ATOM     15  C   UNL     1       4.172   5.580  17.145  0.00  0.00    +0.000 C 
BRANCH  15  16
ATOM     16  N   UNL     1       3.719   4.425  17.916  0.00  0.00    +0.000 N 
ATOM     17  C   UNL     1       3.525   4.527  19.262  0.00  0.00    +0.000 C 
ATOM     18  O   UNL     1       3.784   5.555  19.885  0.00  0.00    +0.000 OA
ATOM     19  H   UNL     1       3.356   3.604  17.457  0.00  0.00    +0.000 HD
BRANCH  17  20
ATOM     20  O   UNL     1       3.062   3.375  19.815  0.00  0.00    +0.000 OA
BRANCH  20  21
ATOM     21  C   UNL     1       1.646   3.304  20.159  0.00  0.00    +0.000 C 
ATOM     22  C   UNL     1       0.851   2.502  19.117  0.00  0.00    +0.000 C 
ATOM     23  C   UNL     1       1.522   2.595  21.522  0.00  0.00    +0.000 C 
ATOM     24  C   UNL     1       1.061   4.716  20.332  0.00  0.00    +0.000 C 
ENDBRANCH  20  21
ENDBRANCH  17  20
ENDBRANCH  15  16
ENDBRANCH  14  15
ENDBRANCH   3  14
TORSDOF 9
ENDMDL
MODEL 6
REMARK VINA RESULT:      -6.7      0.959      1.239
REMARK  Name = 
REMARK  13 active torsions:
REMARK  status: ('A' for Active; 'I' for Inactive)
REMARK    1  A    between atoms: C_1  and  N_2
REMARK    2  A    between atoms: N_2  and  C_3
REMARK    3  A    between atoms: C_3  and  C_4
REMARK    4  A    between atoms: C_5  and  C_6
REMARK    5  A    between atoms: C_6  and  N_7
REMARK    6  A    between atoms: C_12  and  C_14
REMARK    7  A    between atoms: C_14  and  C_15
REMARK    8  A    between atoms: C_15  and  N_16
REMARK    9  A    between atoms: C_17  and  O_19
REMARK   10  A    between atoms: O_19  and  C_20
REMARK   11  A    between atoms: C_20  and  C_21
REMARK   12  A    between atoms: C_20  and  C_22
REMARK   13  A    between atoms: C_20  and  C_23
REMARK                            x       y       z     vdW  Elec       q    Type
REMARK                         _______ _______ _______ _____ _____    ______ ____
ROOT
ATOM      1  C   UNL     1       8.118   5.863  19.242  0.00  0.00    +0.000 C 
ATOM      2  N   UNL     1       7.047   6.229  18.322  0.00  0.00    +0.000 N 
ATOM      3  C   UNL     1       5.952   5.359  18.300  0.00  0.00    +0.000 C 
ATOM      4  O   UNL     1       5.873   4.403  19.086  0.00  0.00    +0.000 OA
ENDROOT
BRANCH   2   5
ATOM      5  C   UNL     1       7.269   7.300  17.339  0.00  0.00    +0.000 C 
BRANCH   5   6
ATOM      6  C   UNL     1       8.042   8.459  17.871  0.00  0.00    +0.000 C 
ATOM      7  C   UNL     1       8.619   9.420  18.322  0.00  0.00    +0.000 C 
BRANCH   7   8
ATOM      8  C   UNL     1       9.227  10.623  18.908  0.00  0.00    +0.000 C 
BRANCH   8   9
ATOM      9  N   UNL     1      10.012  11.451  17.983  0.00  0.00    +0.000 NA
ATOM     10  C   UNL     1      11.394  11.672  18.421  0.00  0.00    +0.000 C 
ATOM     11  C   UNL     1      11.407  13.075  18.992  0.00  0.00    +0.000 C 
ATOM     12  C   UNL     1      10.476  13.809  18.050  0.00  0.00    +0.000 C 
ATOM     13  C   UNL     1       9.430  12.763  17.670  0.00  0.00    +0.000 C 
ENDBRANCH   8   9
ENDBRANCH   7   8
ENDBRANCH   5   6
ENDBRANCH   2   5
BRANCH   3  14
ATOM     14  C   UNL     1       4.848   5.614  17.290  0.00  0.00    +0.000 C 
BRANCH  14  15
ATOM     15  C   UNL     1       4.220   4.302  16.784  0.00  0.00    +0.000 C 
BRANCH  15  16
ATOM     16  N   UNL     1       3.615   3.505  17.847  0.00  0.00    +0.000 N 
ATOM     17  C   UNL     1       2.294   3.652  18.154  0.00  0.00    +0.000 C 
ATOM     18  O   UNL     1       1.584   4.493  17.606  0.00  0.00    +0.000 OA
ATOM     19  H   UNL     1       4.094   2.708  18.236  0.00  0.00    +0.000 HD
BRANCH  17  20
ATOM     20  O   UNL     1       1.884   2.805  19.134  0.00  0.00    +0.000 OA
BRANCH  20  21
ATOM     21  C   UNL     1       2.212   3.149  20.514  0.00  0.00    +0.000 C 
ATOM     22  C   UNL     1       1.120   2.679  21.487  0.00  0.00    +0.000 C 
ATOM     23  C   UNL     1       3.532   2.442  20.880  0.00  0.00    +0.000 C 
ATOM     24  C   UNL     1       2.459   4.660  20.649  0.00  0.00    +0.000 C 
ENDBRANCH  20  21
ENDBRANCH  17  20
ENDBRANCH  15  16
ENDBRANCH  14  15
ENDBRANCH   3  14
TORSDOF 9
ENDMDL
MODEL 7
REMARK VINA RESULT:      -6.6      1.239      1.721
REMARK  Name = 
REMARK  13 active torsions:
REMARK  status: ('A' for Active; 'I' for Inactive)
REMARK    1  A    between atoms: C_1  and  N_2
REMARK    2  A    between atoms: N_2  and  C_3
REMARK    3  A    between atoms: C_3  and  C_4
REMARK    4  A    between atoms: C_5  and  C_6
REMARK    5  A    between atoms: C_6  and  N_7
REMARK    6  A    between atoms: C_12  and  C_14
REMARK    7  A    between atoms: C_14  and  C_15
REMARK    8  A    between atoms: C_15  and  N_16
REMARK    9  A    between atoms: C_17  and  O_19
REMARK   10  A    between atoms: O_19  and  C_20
REMARK   11  A    between atoms: C_20  and  C_21
REMARK   12  A    between atoms: C_20  and  C_22
REMARK   13  A    between atoms: C_20  and  C_23
REMARK                            x       y       z     vdW  Elec       q    Type
REMARK                         _______ _______ _______ _____ _____    ______ ____
ROOT
ATOM      1  C   UNL     1       8.303   6.472  19.200  0.00  0.00    +0.000 C 
ATOM      2  N   UNL     1       7.380   6.518  18.070  0.00  0.00    +0.000 N 
ATOM      3  C   UNL     1       6.889   5.278  17.648  0.00  0.00    +0.000 C 
ATOM      4  O   UNL     1       7.152   4.236  18.266  0.00  0.00    +0.000 OA
ENDROOT
BRANCH   2   5
ATOM      5  C   UNL     1       7.217   7.769  17.317  0.00  0.00    +0.000 C 
BRANCH   5   6
ATOM      6  C   UNL     1       8.052   8.895  17.825  0.00  0.00    +0.000 C 
ATOM      7  C   UNL     1       8.694   9.844  18.209  0.00  0.00    +0.000 C 
BRANCH   7   8
ATOM      8  C   UNL     1       9.405  11.062  18.627  0.00  0.00    +0.000 C 
BRANCH   8   9
ATOM      9  N   UNL     1       9.239  12.226  17.746  0.00  0.00    +0.000 NA
ATOM     10  C   UNL     1       9.777  13.469  18.309  0.00  0.00    +0.000 C 
ATOM     11  C   UNL     1       8.566  14.229  18.810  0.00  0.00    +0.000 C 
ATOM     12  C   UNL     1       7.535  13.920  17.746  0.00  0.00    +0.000 C 
ATOM     13  C   UNL     1       7.861  12.492  17.314  0.00  0.00    +0.000 C 
ENDBRANCH   8   9
ENDBRANCH   7   8
ENDBRANCH   5   6
ENDBRANCH   2   5
BRANCH   3  14
ATOM     14  C   UNL     1       6.010   5.234  16.411  0.00  0.00    +0.000 C 
BRANCH  14  15
ATOM     15  C   UNL     1       4.512   5.266  16.771  0.00  0.00    +0.000 C 
BRANCH  15  16
ATOM     16  N   UNL     1       4.213   4.627  18.049  0.00  0.00    +0.000 N 
ATOM     17  C   UNL     1       3.250   3.664  18.131  0.00  0.00    +0.000 C 
ATOM     18  O   UNL     1       2.559   3.347  17.165  0.00  0.00    +0.000 OA
ATOM     19  H   UNL     1       4.828   4.736  18.841  0.00  0.00    +0.000 HD
BRANCH  17  20
ATOM     20  O   UNL     1       3.131   3.145  19.381  0.00  0.00    +0.000 OA
BRANCH  20  21
ATOM     21  C   UNL     1       1.960   3.521  20.167  0.00  0.00    +0.000 C 
ATOM     22  C   UNL     1       0.677   2.890  19.605  0.00  0.00    +0.000 C 
ATOM     23  C   UNL     1       2.169   3.008  21.606  0.00  0.00    +0.000 C 
ATOM     24  C   UNL     1       1.834   5.050  20.249  0.00  0.00    +0.000 C 
ENDBRANCH  20  21
ENDBRANCH  17  20
ENDBRANCH  15  16
ENDBRANCH  14  15
ENDBRANCH   3  14
TORSDOF 9
ENDMDL
MODEL 8
REMARK VINA RESULT:      -6.6      1.564      1.908
REMARK  Name = 
REMARK  13 active torsions:
REMARK  status: ('A' for Active; 'I' for Inactive)
REMARK    1  A    between atoms: C_1  and  N_2
REMARK    2  A    between atoms: N_2  and  C_3
REMARK    3  A    between atoms: C_3  and  C_4
REMARK    4  A    between atoms: C_5  and  C_6
REMARK    5  A    between atoms: C_6  and  N_7
REMARK    6  A    between atoms: C_12  and  C_14
REMARK    7  A    between atoms: C_14  and  C_15
REMARK    8  A    between atoms: C_15  and  N_16
REMARK    9  A    between atoms: C_17  and  O_19
REMARK   10  A    between atoms: O_19  and  C_20
REMARK   11  A    between atoms: C_20  and  C_21
REMARK   12  A    between atoms: C_20  and  C_22
REMARK   13  A    between atoms: C_20  and  C_23
REMARK                            x       y       z     vdW  Elec       q    Type
REMARK                         _______ _______ _______ _____ _____    ______ ____
ROOT
ATOM      1  C   UNL     1       8.078   6.364  19.276  0.00  0.00    +0.000 C 
ATOM      2  N   UNL     1       7.550   6.480  17.921  0.00  0.00    +0.000 N 
ATOM      3  C   UNL     1       7.398   5.272  17.232  0.00  0.00    +0.000 C 
ATOM      4  O   UNL     1       7.609   4.183  17.786  0.00  0.00    +0.000 OA
ENDROOT
BRANCH   2   5
ATOM      5  C   UNL     1       7.443   7.805  17.295  0.00  0.00    +0.000 C 
BRANCH   5   6
ATOM      6  C   UNL     1       8.183   8.879  18.020  0.00  0.00    +0.000 C 
ATOM      7  C   UNL     1       8.809   9.707  18.638  0.00  0.00    +0.000 C 
BRANCH   7   8
ATOM      8  C   UNL     1       9.617  10.635  19.442  0.00  0.00    +0.000 C 
BRANCH   8   9
ATOM      9  N   UNL     1      10.728  11.285  18.735  0.00  0.00    +0.000 NA
ATOM     10  C   UNL     1      11.762  11.817  19.629  0.00  0.00    +0.000 C 
ATOM     11  C   UNL     1      11.504  13.309  19.684  0.00  0.00    +0.000 C 
ATOM     12  C   UNL     1      11.093  13.613  18.259  0.00  0.00    +0.000 C 
ATOM     13  C   UNL     1      10.339  12.361  17.814  0.00  0.00    +0.000 C 
ENDBRANCH   8   9
ENDBRANCH   7   8
ENDBRANCH   5   6
ENDBRANCH   2   5
BRANCH   3  14
ATOM     14  C   UNL     1       6.957   5.321  15.780  0.00  0.00    +0.000 C 
BRANCH  14  15
ATOM     15  C   UNL     1       5.435   5.522  15.650  0.00  0.00    +0.000 C 
BRANCH  15  16
ATOM     16  N   UNL     1       4.660   4.397  16.166  0.00  0.00    +0.000 N 
ATOM     17  C   UNL     1       3.730   4.592  17.145  0.00  0.00    +0.000 C 
ATOM     18  O   UNL     1       3.556   5.688  17.674  0.00  0.00    +0.000 OA
ATOM     19  H   UNL     1       4.649   3.510  15.688  0.00  0.00    +0.000 HD
BRANCH  17  20
ATOM     20  O   UNL     1       3.070   3.451  17.477  0.00  0.00    +0.000 OA
BRANCH  20  21
ATOM     21  C   UNL     1       3.393   2.822  18.753  0.00  0.00    +0.000 C 
ATOM     22  C   UNL     1       4.653   3.437  19.383  0.00  0.00    +0.000 C 
ATOM     23  C   UNL     1       2.206   3.047  19.710  0.00  0.00    +0.000 C 
ATOM     24  C   UNL     1       3.549   1.302  18.581  0.00  0.00    +0.000 C 
ENDBRANCH  20  21
ENDBRANCH  17  20
ENDBRANCH  15  16
ENDBRANCH  14  15
ENDBRANCH   3  14
TORSDOF 9
ENDMDL
MODEL 9
REMARK VINA RESULT:      -6.6      5.717      9.263
REMARK  Name = 
REMARK  13 active torsions:
REMARK  status: ('A' for Active; 'I' for Inactive)
REMARK    1  A    between atoms: C_1  and  N_2
REMARK    2  A    between atoms: N_2  and  C_3
REMARK    3  A    between atoms: C_3  and  C_4
REMARK    4  A    between atoms: C_5  and  C_6
REMARK    5  A    between atoms: C_6  and  N_7
REMARK    6  A    between atoms: C_12  and  C_14
REMARK    7  A    between atoms: C_14  and  C_15
REMARK    8  A    between atoms: C_15  and  N_16
REMARK    9  A    between atoms: C_17  and  O_19
REMARK   10  A    between atoms: O_19  and  C_20
REMARK   11  A    between atoms: C_20  and  C_21
REMARK   12  A    between atoms: C_20  and  C_22
REMARK   13  A    between atoms: C_20  and  C_23
REMARK                            x       y       z     vdW  Elec       q    Type
REMARK                         _______ _______ _______ _____ _____    ______ ____
ROOT
ATOM      1  C   UNL     1       3.135   7.145  18.224  0.00  0.00    +0.000 C 
ATOM      2  N   UNL     1       2.147   7.782  19.089  0.00  0.00    +0.000 N 
ATOM      3  C   UNL     1       1.658   9.012  18.637  0.00  0.00    +0.000 C 
ATOM      4  O   UNL     1       1.980   9.464  17.528  0.00  0.00    +0.000 OA
ENDROOT
BRANCH   2   5
ATOM      5  C   UNL     1       1.912   7.248  20.438  0.00  0.00    +0.000 C 
BRANCH   5   6
ATOM      6  C   UNL     1       1.960   5.759  20.517  0.00  0.00    +0.000 C 
ATOM      7  C   UNL     1       2.044   4.558  20.615  0.00  0.00    +0.000 C 
BRANCH   7   8
ATOM      8  C   UNL     1       2.229   3.111  20.802  0.00  0.00    +0.000 C 
BRANCH   8   9
ATOM      9  N   UNL     1       2.206   2.306  19.574  0.00  0.00    +0.000 NA
ATOM     10  C   UNL     1       3.540   1.943  19.084  0.00  0.00    +0.000 C 
ATOM     11  C   UNL     1       3.807   2.891  17.933  0.00  0.00    +0.000 C 
ATOM     12  C   UNL     1       2.444   2.993  17.283  0.00  0.00    +0.000 C 
ATOM     13  C   UNL     1       1.465   2.898  18.452  0.00  0.00    +0.000 C 
ENDBRANCH   8   9
ENDBRANCH   7   8
ENDBRANCH   5   6
ENDBRANCH   2   5
BRANCH   3  14
ATOM     14  C   UNL     1       0.710   9.785  19.535  0.00  0.00    +0.000 C 
BRANCH  14  15
ATOM     15  C   UNL     1       0.503  11.230  19.040  0.00  0.00    +0.000 C 
BRANCH  15  16
ATOM     16  N   UNL     1      -0.378  11.321  17.880  0.00  0.00    +0.000 N 
ATOM     17  C   UNL     1      -1.658  11.771  18.019  0.00  0.00    +0.000 C 
ATOM     18  O   UNL     1      -2.138  12.049  19.116  0.00  0.00    +0.000 OA
ATOM     19  H   UNL     1      -0.013  11.246  16.943  0.00  0.00    +0.000 HD
BRANCH  17  20
ATOM     20  O   UNL     1      -2.324  11.835  16.836  0.00  0.00    +0.000 OA
BRANCH  20  21
ATOM     21  C   UNL     1      -3.329  10.814  16.563  0.00  0.00    +0.000 C 
ATOM     22  C   UNL     1      -3.181   9.609  17.505  0.00  0.00    +0.000 C 
ATOM     23  C   UNL     1      -4.720  11.442  16.785  0.00  0.00    +0.000 C 
ATOM     24  C   UNL     1      -3.265  10.374  15.091  0.00  0.00    +0.000 C 
ENDBRANCH  20  21
ENDBRANCH  17  20
ENDBRANCH  15  16
ENDBRANCH  14  15
ENDBRANCH   3  14
TORSDOF 9
ENDMDL
