MODEL 1
REMARK VINA RESULT:      -8.7      0.000      0.000
REMARK  Name = 
REMARK  11 active torsions:
REMARK  status: ('A' for Active; 'I' for Inactive)
REMARK    1  A    between atoms: C_1  and  C_2
REMARK    2  A    between atoms: C_2  and  C_3
REMARK    3  A    between atoms: C_3  and  S_4
REMARK    4  A    between atoms: S_4  and  N_7
REMARK    5  A    between atoms: N_7  and  C_8
REMARK    6  A    between atoms: C_11  and  O_12
REMARK    7  A    between atoms: O_12  and  C_13
REMARK    8  A    between atoms: C_14  and  C_15
REMARK    9  A    between atoms: N_17  and  C_18
REMARK   10  A    between atoms: C_24  and  O_25
REMARK   11  A    between atoms: O_25  and  C_26
REMARK                            x       y       z     vdW  Elec       q    Type
REMARK                         _______ _______ _______ _____ _____    ______ ____
ROOT
ATOM      1  C   UNL     1       4.549   4.598  17.785  0.00  0.00    +0.000 A 
ATOM      2  C   UNL     1       4.420   3.434  18.526  0.00  0.00    +0.000 A 
ATOM      3  C   UNL     1       3.563   3.411  19.627  0.00  0.00    +0.000 A 
ATOM      4  C   UNL     1       2.828   4.551  20.014  0.00  0.00    +0.000 A 
ATOM      5  C   UNL     1       2.999   5.752  19.293  0.00  0.00    +0.000 A 
ATOM      6  C   UNL     1       3.863   5.748  18.178  0.00  0.00    +0.000 A 
ATOM      7  F   UNL     1       4.031   6.843  17.416  0.00  0.00    +0.000 F 
ENDROOT
BRANCH   5   8
ATOM      8  C   UNL     1       2.344   7.063  19.596  0.00  0.00    +0.000 C 
ATOM      9  O   UNL     1       2.272   7.906  18.701  0.00  0.00    +0.000 OA
ATOM     10  N   UNL     1       1.876   7.330  20.879  0.00  0.00    +0.000 N 
ATOM     11  H   UNL     1       2.316   6.822  21.640  0.00  0.00    +0.000 HD
BRANCH  10  12
ATOM     12  C   UNL     1       1.232   8.569  21.151  0.00  0.00    +0.000 A 
ATOM     13  C   UNL     1       1.065   9.037  22.465  0.00  0.00    +0.000 A 
ATOM     14  N   UNL     1       0.409  10.164  22.847  0.00  0.00    +0.000 NA
ATOM     15  C   UNL     1      -0.165  10.787  21.804  0.00  0.00    +0.000 A 
ATOM     16  N   UNL     1      -0.968  11.887  21.878  0.00  0.00    +0.000 N 
ATOM     17  N   UNL     1      -1.457  12.286  20.689  0.00  0.00    +0.000 NA
ATOM     18  C   UNL     1      -0.931  11.397  19.838  0.00  0.00    +0.000 A 
ATOM     19  C   UNL     1      -0.090  10.445  20.462  0.00  0.00    +0.000 A 
ATOM     20  C   UNL     1       0.688   9.322  20.105  0.00  0.00    +0.000 A 
ATOM     21  H   UNL     1      -1.233  12.386  22.718  0.00  0.00    +0.000 HD
BRANCH  18  22
ATOM     22  O   UNL     1      -1.242  11.444  18.521  0.00  0.00    +0.000 OA
ATOM     23  C   UNL     1      -2.535  10.926  18.213  0.00  0.00    +0.000 C 
ENDBRANCH  18  22
ENDBRANCH  10  12
ENDBRANCH   5   8
BRANCH   1  24
ATOM     24  N   UNL     1       5.468   4.639  16.687  0.00  0.00    +0.000 N 
ATOM     25  H   UNL     1       5.475   3.796  16.109  0.00  0.00    +0.000 HD
BRANCH  24  26
ATOM     26  S   UNL     1       7.072   5.016  17.086  0.00  0.00    +0.000 S 
ATOM     27  O   UNL     1       7.839   4.542  15.950  0.00  0.00    +0.000 OA
ATOM     28  O   UNL     1       7.366   4.572  18.429  0.00  0.00    +0.000 OA
BRANCH  26  29
ATOM     29  C   UNL     1       7.052   6.809  17.039  0.00  0.00    +0.000 C 
BRANCH  29  31
ATOM     30  C   UNL     1       8.215   8.857  17.952  0.00  0.00    +0.000 C 
ATOM     31  C   UNL     1       7.909   7.384  18.164  0.00  0.00    +0.000 C 
ENDBRANCH  29  31
ENDBRANCH  26  29
ENDBRANCH  24  26
ENDBRANCH   1  24
BRANCH   4  32
ATOM     32  O   UNL     1       1.982   4.540  21.100  0.00  0.00    +0.000 OA
ATOM     33  C   UNL     1       1.629   3.250  21.614  0.00  0.00    +0.000 C 
ENDBRANCH   4  32
TORSDOF 8
ENDMDL
MODEL 2
REMARK VINA RESULT:      -8.6      1.932      2.457
REMARK  Name = 
REMARK  11 active torsions:
REMARK  status: ('A' for Active; 'I' for Inactive)
REMARK    1  A    between atoms: C_1  and  C_2
REMARK    2  A    between atoms: C_2  and  C_3
REMARK    3  A    between atoms: C_3  and  S_4
REMARK    4  A    between atoms: S_4  and  N_7
REMARK    5  A    between atoms: N_7  and  C_8
REMARK    6  A    between atoms: C_11  and  O_12
REMARK    7  A    between atoms: O_12  and  C_13
REMARK    8  A    between atoms: C_14  and  C_15
REMARK    9  A    between atoms: N_17  and  C_18
REMARK   10  A    between atoms: C_24  and  O_25
REMARK   11  A    between atoms: O_25  and  C_26
REMARK                            x       y       z     vdW  Elec       q    Type
REMARK                         _______ _______ _______ _____ _____    ______ ____
ROOT
ATOM      1  C   UNL     1       4.898   4.769  17.400  0.00  0.00    +0.000 A 
ATOM      2  C   UNL     1       4.298   3.526  17.516  0.00  0.00    +0.000 A 
ATOM      3  C   UNL     1       3.031   3.424  18.093  0.00  0.00    +0.000 A 
ATOM      4  C   UNL     1       2.347   4.560  18.574  0.00  0.00    +0.000 A 
ATOM      5  C   UNL     1       2.980   5.820  18.507  0.00  0.00    +0.000 A 
ATOM      6  C   UNL     1       4.255   5.898  17.909  0.00  0.00    +0.000 A 
ATOM      7  F   UNL     1       4.891   7.074  17.765  0.00  0.00    +0.000 F 
ENDROOT
BRANCH   5   8
ATOM      8  C   UNL     1       2.426   7.113  19.015  0.00  0.00    +0.000 C 
ATOM      9  O   UNL     1       2.494   8.107  18.293  0.00  0.00    +0.000 OA
ATOM     10  N   UNL     1       1.893   7.188  20.299  0.00  0.00    +0.000 N 
ATOM     11  H   UNL     1       2.229   6.507  20.973  0.00  0.00    +0.000 HD
BRANCH  10  12
ATOM     12  C   UNL     1       1.345   8.415  20.764  0.00  0.00    +0.000 A 
ATOM     13  C   UNL     1       1.486   8.822  22.102  0.00  0.00    +0.000 A 
ATOM     14  N   UNL     1       0.949   9.933  22.672  0.00  0.00    +0.000 NA
ATOM     15  C   UNL     1       0.165  10.607  21.814  0.00  0.00    +0.000 A 
ATOM     16  N   UNL     1      -0.585  11.705  22.117  0.00  0.00    +0.000 N 
ATOM     17  N   UNL     1      -1.323  12.162  21.088  0.00  0.00    +0.000 NA
ATOM     18  C   UNL     1      -1.016  11.312  20.101  0.00  0.00    +0.000 A 
ATOM     19  C   UNL     1      -0.070  10.327  20.476  0.00  0.00    +0.000 A 
ATOM     20  C   UNL     1       0.591   9.219  19.904  0.00  0.00    +0.000 A 
ATOM     21  H   UNL     1      -0.646  12.165  23.017  0.00  0.00    +0.000 HD
BRANCH  18  22
ATOM     22  O   UNL     1      -1.614  11.422  18.892  0.00  0.00    +0.000 OA
ATOM     23  C   UNL     1      -2.965  11.873  18.955  0.00  0.00    +0.000 C 
ENDBRANCH  18  22
ENDBRANCH  10  12
ENDBRANCH   5   8
BRANCH   1  24
ATOM     24  N   UNL     1       6.219   4.868  16.856  0.00  0.00    +0.000 N 
ATOM     25  H   UNL     1       6.854   5.464  17.392  0.00  0.00    +0.000 HD
BRANCH  24  26
ATOM     26  S   UNL     1       6.311   5.332  15.228  0.00  0.00    +0.000 S 
ATOM     27  O   UNL     1       7.731   5.499  14.988  0.00  0.00    +0.000 OA
ATOM     28  O   UNL     1       5.374   6.399  14.964  0.00  0.00    +0.000 OA
BRANCH  26  29
ATOM     29  C   UNL     1       5.773   3.841  14.389  0.00  0.00    +0.000 C 
BRANCH  29  31
ATOM     30  C   UNL     1       5.347   3.177  11.989  0.00  0.00    +0.000 C 
ATOM     31  C   UNL     1       6.331   3.795  12.969  0.00  0.00    +0.000 C 
ENDBRANCH  29  31
ENDBRANCH  26  29
ENDBRANCH  24  26
ENDBRANCH   1  24
BRANCH   4  32
ATOM     32  O   UNL     1       1.099   4.470  19.149  0.00  0.00    +0.000 OA
ATOM     33  C   UNL     1       1.023   3.756  20.389  0.00  0.00    +0.000 C 
ENDBRANCH   4  32
TORSDOF 8
ENDMDL
MODEL 3
REMARK VINA RESULT:      -8.4      2.875      3.567
REMARK  Name = 
REMARK  11 active torsions:
REMARK  status: ('A' for Active; 'I' for Inactive)
REMARK    1  A    between atoms: C_1  and  C_2
REMARK    2  A    between atoms: C_2  and  C_3
REMARK    3  A    between atoms: C_3  and  S_4
REMARK    4  A    between atoms: S_4  and  N_7
REMARK    5  A    between atoms: N_7  and  C_8
REMARK    6  A    between atoms: C_11  and  O_12
REMARK    7  A    between atoms: O_12  and  C_13
REMARK    8  A    between atoms: C_14  and  C_15
REMARK    9  A    between atoms: N_17  and  C_18
REMARK   10  A    between atoms: C_24  and  O_25
REMARK   11  A    between atoms: O_25  and  C_26
REMARK                            x       y       z     vdW  Elec       q    Type
REMARK                         _______ _______ _______ _____ _____    ______ ____
ROOT
ATOM      1  C   UNL     1       4.956   5.019  17.356  0.00  0.00    +0.000 A 
ATOM      2  C   UNL     1       4.395   3.771  17.572  0.00  0.00    +0.000 A 
ATOM      3  C   UNL     1       3.126   3.677  18.146  0.00  0.00    +0.000 A 
ATOM      4  C   UNL     1       2.400   4.825  18.523  0.00  0.00    +0.000 A 
ATOM      5  C   UNL     1       2.992   6.095  18.354  0.00  0.00    +0.000 A 
ATOM      6  C   UNL     1       4.270   6.166  17.762  0.00  0.00    +0.000 A 
ATOM      7  F   UNL     1       4.869   7.345  17.524  0.00  0.00    +0.000 F 
ENDROOT
BRANCH   5   8
ATOM      8  C   UNL     1       2.390   7.408  18.746  0.00  0.00    +0.000 C 
ATOM      9  O   UNL     1       2.261   7.661  19.944  0.00  0.00    +0.000 OA
ATOM     10  N   UNL     1       1.944   8.292  17.768  0.00  0.00    +0.000 N 
ATOM     11  H   UNL     1       1.685   7.889  16.873  0.00  0.00    +0.000 HD
BRANCH  10  12
ATOM     12  C   UNL     1       1.397   9.548  18.150  0.00  0.00    +0.000 A 
ATOM     13  C   UNL     1       0.009   9.747  18.239  0.00  0.00    +0.000 A 
ATOM     14  N   UNL     1      -0.626  10.915  18.525  0.00  0.00    +0.000 NA
ATOM     15  C   UNL     1       0.238  11.937  18.647  0.00  0.00    +0.000 A 
ATOM     16  N   UNL     1      -0.099  13.245  18.836  0.00  0.00    +0.000 N 
ATOM     17  N   UNL     1       0.956  14.081  18.875  0.00  0.00    +0.000 NA
ATOM     18  C   UNL     1       1.995  13.254  18.705  0.00  0.00    +0.000 A 
ATOM     19  C   UNL     1       1.623  11.894  18.582  0.00  0.00    +0.000 A 
ATOM     20  C   UNL     1       2.239  10.640  18.384  0.00  0.00    +0.000 A 
ATOM     21  H   UNL     1      -1.036  13.621  18.920  0.00  0.00    +0.000 HD
BRANCH  18  22
ATOM     22  O   UNL     1       3.255  13.744  18.637  0.00  0.00    +0.000 OA
ATOM     23  C   UNL     1       3.400  14.841  17.737  0.00  0.00    +0.000 C 
ENDBRANCH  18  22
ENDBRANCH  10  12
ENDBRANCH   5   8
BRANCH   1  24
ATOM     24  N   UNL     1       6.279   5.116  16.817  0.00  0.00    +0.000 N 
ATOM     25  H   UNL     1       6.884   5.784  17.298  0.00  0.00    +0.000 HD
BRANCH  24  26
ATOM     26  S   UNL     1       6.373   5.424  15.152  0.00  0.00    +0.000 S 
ATOM     27  O   UNL     1       7.777   5.705  14.925  0.00  0.00    +0.000 OA
ATOM     28  O   UNL     1       5.347   6.363  14.764  0.00  0.00    +0.000 OA
BRANCH  26  29
ATOM     29  C   UNL     1       6.004   3.813  14.458  0.00  0.00    +0.000 C 
BRANCH  29  31
ATOM     30  C   UNL     1       5.323   3.244  12.092  0.00  0.00    +0.000 C 
ATOM     31  C   UNL     1       6.437   3.749  12.995  0.00  0.00    +0.000 C 
ENDBRANCH  29  31
ENDBRANCH  26  29
ENDBRANCH  24  26
ENDBRANCH   1  24
BRANCH   4  32
ATOM     32  O   UNL     1       1.149   4.743  19.093  0.00  0.00    +0.000 OA
ATOM     33  C   UNL     1       1.007   3.818  20.178  0.00  0.00    +0.000 C 
ENDBRANCH   4  32
TORSDOF 8
ENDMDL
MODEL 4
REMARK VINA RESULT:      -8.3      3.823      8.557
REMARK  Name = 
REMARK  11 active torsions:
REMARK  status: ('A' for Active; 'I' for Inactive)
REMARK    1  A    between atoms: C_1  and  C_2
REMARK    2  A    between atoms: C_2  and  C_3
REMARK    3  A    between atoms: C_3  and  S_4
REMARK    4  A    between atoms: S_4  and  N_7
REMARK    5  A    between atoms: N_7  and  C_8
REMARK    6  A    between atoms: C_11  and  O_12
REMARK    7  A    between atoms: O_12  and  C_13
REMARK    8  A    between atoms: C_14  and  C_15
REMARK    9  A    between atoms: N_17  and  C_18
REMARK   10  A    between atoms: C_24  and  O_25
REMARK   11  A    between atoms: O_25  and  C_26
REMARK                            x       y       z     vdW  Elec       q    Type
REMARK                         _______ _______ _______ _____ _____    ______ ____
ROOT
ATOM      1  C   UNL     1       2.542   5.518  20.682  0.00  0.00    +0.000 A 
ATOM      2  C   UNL     1       1.696   6.605  20.824  0.00  0.00    +0.000 A 
ATOM      3  C   UNL     1       1.679   7.597  19.843  0.00  0.00    +0.000 A 
ATOM      4  C   UNL     1       2.514   7.528  18.709  0.00  0.00    +0.000 A 
ATOM      5  C   UNL     1       3.416   6.449  18.589  0.00  0.00    +0.000 A 
ATOM      6  C   UNL     1       3.408   5.453  19.588  0.00  0.00    +0.000 A 
ATOM      7  F   UNL     1       4.204   4.372  19.509  0.00  0.00    +0.000 F 
ENDROOT
BRANCH   5   8
ATOM      8  C   UNL     1       4.407   6.246  17.486  0.00  0.00    +0.000 C 
ATOM      9  O   UNL     1       5.175   7.167  17.209  0.00  0.00    +0.000 OA
ATOM     10  N   UNL     1       4.414   5.056  16.764  0.00  0.00    +0.000 N 
ATOM     11  H   UNL     1       3.543   4.535  16.734  0.00  0.00    +0.000 HD
BRANCH  10  12
ATOM     12  C   UNL     1       5.376   4.863  15.734  0.00  0.00    +0.000 A 
ATOM     13  C   UNL     1       6.574   5.595  15.702  0.00  0.00    +0.000 A 
ATOM     14  N   UNL     1       7.529   5.546  14.735  0.00  0.00    +0.000 NA
ATOM     15  C   UNL     1       7.170   4.745  13.717  0.00  0.00    +0.000 A 
ATOM     16  N   UNL     1       7.871   4.566  12.561  0.00  0.00    +0.000 N 
ATOM     17  N   UNL     1       7.267   3.748  11.678  0.00  0.00    +0.000 NA
ATOM     18  C   UNL     1       6.142   3.402  12.316  0.00  0.00    +0.000 A 
ATOM     19  C   UNL     1       6.027   3.968  13.609  0.00  0.00    +0.000 A 
ATOM     20  C   UNL     1       5.113   3.976  14.684  0.00  0.00    +0.000 A 
ATOM     21  H   UNL     1       8.754   4.998  12.317  0.00  0.00    +0.000 HD
BRANCH  18  22
ATOM     22  O   UNL     1       5.230   2.607  11.710  0.00  0.00    +0.000 OA
ATOM     23  C   UNL     1       4.070   3.302  11.254  0.00  0.00    +0.000 C 
ENDBRANCH  18  22
ENDBRANCH  10  12
ENDBRANCH   5   8
BRANCH   1  24
ATOM     24  N   UNL     1       2.600   4.526  21.713  0.00  0.00    +0.000 N 
ATOM     25  H   UNL     1       3.523   4.405  22.133  0.00  0.00    +0.000 HD
BRANCH  24  26
ATOM     26  S   UNL     1       2.008   2.993  21.293  0.00  0.00    +0.000 S 
ATOM     27  O   UNL     1       1.331   2.536  22.491  0.00  0.00    +0.000 OA
ATOM     28  O   UNL     1       3.053   2.212  20.675  0.00  0.00    +0.000 OA
BRANCH  26  29
ATOM     29  C   UNL     1       0.763   3.402  20.068  0.00  0.00    +0.000 C 
BRANCH  29  31
ATOM     30  C   UNL     1       1.248   3.695  17.605  0.00  0.00    +0.000 C 
ATOM     31  C   UNL     1       1.066   2.705  18.744  0.00  0.00    +0.000 C 
ENDBRANCH  29  31
ENDBRANCH  26  29
ENDBRANCH  24  26
ENDBRANCH   1  24
BRANCH   4  32
ATOM     32  O   UNL     1       2.508   8.503  17.737  0.00  0.00    +0.000 OA
ATOM     33  C   UNL     1       1.513   9.525  17.872  0.00  0.00    +0.000 C 
ENDBRANCH   4  32
TORSDOF 8
ENDMDL
MODEL 5
REMARK VINA RESULT:      -8.3      1.786      2.175
REMARK  Name = 
REMARK  11 active torsions:
REMARK  status: ('A' for Active; 'I' for Inactive)
REMARK    1  A    between atoms: C_1  and  C_2
REMARK    2  A    between atoms: C_2  and  C_3
REMARK    3  A    between atoms: C_3  and  S_4
REMARK    4  A    between atoms: S_4  and  N_7
REMARK    5  A    between atoms: N_7  and  C_8
REMARK    6  A    between atoms: C_11  and  O_12
REMARK    7  A    between atoms: O_12  and  C_13
REMARK    8  A    between atoms: C_14  and  C_15
REMARK    9  A    between atoms: N_17  and  C_18
REMARK   10  A    between atoms: C_24  and  O_25
REMARK   11  A    between atoms: O_25  and  C_26
REMARK                            x       y       z     vdW  Elec       q    Type
REMARK                         _______ _______ _______ _____ _____    ______ ____
ROOT
ATOM      1  C   UNL     1       5.099   4.038  18.487  0.00  0.00    +0.000 A 
ATOM      2  C   UNL     1       4.508   2.988  17.803  0.00  0.00    +0.000 A 
ATOM      3  C   UNL     1       3.117   2.915  17.720  0.00  0.00    +0.000 A 
ATOM      4  C   UNL     1       2.291   3.884  18.327  0.00  0.00    +0.000 A 
ATOM      5  C   UNL     1       2.889   4.924  19.070  0.00  0.00    +0.000 A 
ATOM      6  C   UNL     1       4.297   4.982  19.131  0.00  0.00    +0.000 A 
ATOM      7  F   UNL     1       4.931   5.975  19.777  0.00  0.00    +0.000 F 
ENDROOT
BRANCH   5   8
ATOM      8  C   UNL     1       2.167   6.000  19.820  0.00  0.00    +0.000 C 
ATOM      9  O   UNL     1       1.479   5.681  20.790  0.00  0.00    +0.000 OA
ATOM     10  N   UNL     1       2.241   7.321  19.389  0.00  0.00    +0.000 N 
ATOM     11  H   UNL     1       2.444   7.470  18.406  0.00  0.00    +0.000 HD
BRANCH  10  12
ATOM     12  C   UNL     1       1.572   8.340  20.123  0.00  0.00    +0.000 A 
ATOM     13  C   UNL     1       1.485   8.298  21.525  0.00  0.00    +0.000 A 
ATOM     14  N   UNL     1       0.817   9.173  22.323  0.00  0.00    +0.000 NA
ATOM     15  C   UNL     1       0.144  10.089  21.606  0.00  0.00    +0.000 A 
ATOM     16  N   UNL     1      -0.693  11.038  22.115  0.00  0.00    +0.000 N 
ATOM     17  N   UNL     1      -1.284  11.803  21.178  0.00  0.00    +0.000 NA
ATOM     18  C   UNL     1      -0.789  11.309  20.037  0.00  0.00    +0.000 A 
ATOM     19  C   UNL     1       0.132  10.251  20.229  0.00  0.00    +0.000 A 
ATOM     20  C   UNL     1       0.923   9.380  19.450  0.00  0.00    +0.000 A 
ATOM     21  H   UNL     1      -0.913  11.188  23.092  0.00  0.00    +0.000 HD
BRANCH  18  22
ATOM     22  O   UNL     1      -1.198  11.802  18.844  0.00  0.00    +0.000 OA
ATOM     23  C   UNL     1      -0.660  13.086  18.534  0.00  0.00    +0.000 C 
ENDBRANCH  18  22
ENDBRANCH  10  12
ENDBRANCH   5   8
BRANCH   1  24
ATOM     24  N   UNL     1       6.524   4.084  18.618  0.00  0.00    +0.000 N 
ATOM     25  H   UNL     1       6.855   4.313  19.557  0.00  0.00    +0.000 HD
BRANCH  24  26
ATOM     26  S   UNL     1       7.331   5.088  17.516  0.00  0.00    +0.000 S 
ATOM     27  O   UNL     1       8.298   4.213  16.883  0.00  0.00    +0.000 OA
ATOM     28  O   UNL     1       7.738   6.311  18.167  0.00  0.00    +0.000 OA
BRANCH  26  29
ATOM     29  C   UNL     1       6.037   5.446  16.327  0.00  0.00    +0.000 C 
BRANCH  29  31
ATOM     30  C   UNL     1       5.629   4.036  14.270  0.00  0.00    +0.000 C 
ATOM     31  C   UNL     1       6.500   5.103  14.913  0.00  0.00    +0.000 C 
ENDBRANCH  29  31
ENDBRANCH  26  29
ENDBRANCH  24  26
ENDBRANCH   1  24
BRANCH   4  32
ATOM     32  O   UNL     1       0.918   3.821  18.254  0.00  0.00    +0.000 OA
ATOM     33  C   UNL     1       0.305   2.671  18.851  0.00  0.00    +0.000 C 
ENDBRANCH   4  32
TORSDOF 8
ENDMDL
MODEL 6
REMARK VINA RESULT:      -8.2      1.183      1.356
REMARK  Name = 
REMARK  11 active torsions:
REMARK  status: ('A' for Active; 'I' for Inactive)
REMARK    1  A    between atoms: C_1  and  C_2
REMARK    2  A    between atoms: C_2  and  C_3
REMARK    3  A    between atoms: C_3  and  S_4
REMARK    4  A    between atoms: S_4  and  N_7
REMARK    5  A    between atoms: N_7  and  C_8
REMARK    6  A    between atoms: C_11  and  O_12
REMARK    7  A    between atoms: O_12  and  C_13
REMARK    8  A    between atoms: C_14  and  C_15
REMARK    9  A    between atoms: N_17  and  C_18
REMARK   10  A    between atoms: C_24  and  O_25
REMARK   11  A    between atoms: O_25  and  C_26
REMARK                            x       y       z     vdW  Elec       q    Type
REMARK                         _______ _______ _______ _____ _____    ______ ____
ROOT
ATOM      1  C   UNL     1       4.411   4.957  16.995  0.00  0.00    +0.000 A 
ATOM      2  C   UNL     1       4.391   3.752  17.678  0.00  0.00    +0.000 A 
ATOM      3  C   UNL     1       3.664   3.645  18.864  0.00  0.00    +0.000 A 
ATOM      4  C   UNL     1       2.953   4.740  19.395  0.00  0.00    +0.000 A 
ATOM      5  C   UNL     1       3.017   5.984  18.731  0.00  0.00    +0.000 A 
ATOM      6  C   UNL     1       3.750   6.065  17.528  0.00  0.00    +0.000 A 
ATOM      7  F   UNL     1       3.808   7.205  16.817  0.00  0.00    +0.000 F 
ENDROOT
BRANCH   5   8
ATOM      8  C   UNL     1       2.373   7.258  19.180  0.00  0.00    +0.000 C 
ATOM      9  O   UNL     1       2.227   8.165  18.360  0.00  0.00    +0.000 OA
ATOM     10  N   UNL     1       1.997   7.419  20.510  0.00  0.00    +0.000 N 
ATOM     11  H   UNL     1       2.495   6.861  21.196  0.00  0.00    +0.000 HD
BRANCH  10  12
ATOM     12  C   UNL     1       1.362   8.624  20.922  0.00  0.00    +0.000 A 
ATOM     13  C   UNL     1       1.273   8.980  22.278  0.00  0.00    +0.000 A 
ATOM     14  N   UNL     1       0.633  10.064  22.791  0.00  0.00    +0.000 NA
ATOM     15  C   UNL     1      -0.007  10.764  21.840  0.00  0.00    +0.000 A 
ATOM     16  N   UNL     1      -0.813  11.844  22.053  0.00  0.00    +0.000 N 
ATOM     17  N   UNL     1      -1.376  12.334  20.933  0.00  0.00    +0.000 NA
ATOM     18  C   UNL     1      -0.897  11.525  19.981  0.00  0.00    +0.000 A 
ATOM     19  C   UNL     1      -0.012  10.534  20.472  0.00  0.00    +0.000 A 
ATOM     20  C   UNL     1       0.750   9.454  19.977  0.00  0.00    +0.000 A 
ATOM     21  H   UNL     1      -1.029  12.269  22.947  0.00  0.00    +0.000 HD
BRANCH  18  22
ATOM     22  O   UNL     1      -1.288  11.676  18.694  0.00  0.00    +0.000 OA
ATOM     23  C   UNL     1      -2.327  10.783  18.297  0.00  0.00    +0.000 C 
ENDBRANCH  18  22
ENDBRANCH  10  12
ENDBRANCH   5   8
BRANCH   1  24
ATOM     24  N   UNL     1       5.199   5.084  15.807  0.00  0.00    +0.000 N 
ATOM     25  H   UNL     1       5.222   4.246  15.222  0.00  0.00    +0.000 HD
BRANCH  24  26
ATOM     26  S   UNL     1       6.796   5.608  16.036  0.00  0.00    +0.000 S 
ATOM     27  O   UNL     1       6.653   6.955  16.555  0.00  0.00    +0.000 OA
ATOM     28  O   UNL     1       7.580   5.337  14.855  0.00  0.00    +0.000 OA
BRANCH  26  29
ATOM     29  C   UNL     1       7.343   4.548  17.375  0.00  0.00    +0.000 C 
BRANCH  29  31
ATOM     30  C   UNL     1       6.870   5.522  19.658  0.00  0.00    +0.000 C 
ATOM     31  C   UNL     1       7.883   5.383  18.533  0.00  0.00    +0.000 C 
ENDBRANCH  29  31
ENDBRANCH  26  29
ENDBRANCH  24  26
ENDBRANCH   1  24
BRANCH   4  32
ATOM     32  O   UNL     1       2.236   4.647  20.567  0.00  0.00    +0.000 OA
ATOM     33  C   UNL     1       2.348   3.409  21.280  0.00  0.00    +0.000 C 
ENDBRANCH   4  32
TORSDOF 8
ENDMDL
MODEL 7
REMARK VINA RESULT:      -8.2      3.622      8.600
REMARK  Name = 
REMARK  11 active torsions:
REMARK  status: ('A' for Active; 'I' for Inactive)
REMARK    1  A    between atoms: C_1  and  C_2
REMARK    2  A    between atoms: C_2  and  C_3
REMARK    3  A    between atoms: C_3  and  S_4
REMARK    4  A    between atoms: S_4  and  N_7
REMARK    5  A    between atoms: N_7  and  C_8
REMARK    6  A    between atoms: C_11  and  O_12
REMARK    7  A    between atoms: O_12  and  C_13
REMARK    8  A    between atoms: C_14  and  C_15
REMARK    9  A    between atoms: N_17  and  C_18
REMARK   10  A    between atoms: C_24  and  O_25
REMARK   11  A    between atoms: O_25  and  C_26
REMARK                            x       y       z     vdW  Elec       q    Type
REMARK                         _______ _______ _______ _____ _____    ______ ____
ROOT
ATOM      1  C   UNL     1      -0.707  11.186  18.785  0.00  0.00    +0.000 A 
ATOM      2  C   UNL     1      -0.910  11.932  19.935  0.00  0.00    +0.000 A 
ATOM      3  C   UNL     1      -0.315  11.528  21.131  0.00  0.00    +0.000 A 
ATOM      4  C   UNL     1       0.483  10.368  21.203  0.00  0.00    +0.000 A 
ATOM      5  C   UNL     1       0.647   9.577  20.045  0.00  0.00    +0.000 A 
ATOM      6  C   UNL     1       0.045  10.011  18.846  0.00  0.00    +0.000 A 
ATOM      7  F   UNL     1       0.204   9.334  17.696  0.00  0.00    +0.000 F 
ENDROOT
BRANCH   5   8
ATOM      8  C   UNL     1       1.411   8.294  19.955  0.00  0.00    +0.000 C 
ATOM      9  O   UNL     1       1.404   7.535  20.925  0.00  0.00    +0.000 OA
ATOM     10  N   UNL     1       2.150   8.000  18.813  0.00  0.00    +0.000 N 
ATOM     11  H   UNL     1       2.462   8.789  18.256  0.00  0.00    +0.000 HD
BRANCH  10  12
ATOM     12  C   UNL     1       2.852   6.766  18.726  0.00  0.00    +0.000 A 
ATOM     13  C   UNL     1       4.003   6.630  17.932  0.00  0.00    +0.000 A 
ATOM     14  N   UNL     1       4.712   5.490  17.718  0.00  0.00    +0.000 NA
ATOM     15  C   UNL     1       4.138   4.427  18.307  0.00  0.00    +0.000 A 
ATOM     16  N   UNL     1       4.558   3.134  18.197  0.00  0.00    +0.000 N 
ATOM     17  N   UNL     1       3.777   2.250  18.846  0.00  0.00    +0.000 NA
ATOM     18  C   UNL     1       2.833   3.029  19.387  0.00  0.00    +0.000 A 
ATOM     19  C   UNL     1       3.010   4.407  19.113  0.00  0.00    +0.000 A 
ATOM     20  C   UNL     1       2.367   5.633  19.387  0.00  0.00    +0.000 A 
ATOM     21  H   UNL     1       5.356   2.802  17.670  0.00  0.00    +0.000 HD
BRANCH  18  22
ATOM     22  O   UNL     1       1.815   2.481  20.091  0.00  0.00    +0.000 OA
ATOM     23  C   UNL     1       1.915   2.679  21.500  0.00  0.00    +0.000 C 
ENDBRANCH  18  22
ENDBRANCH  10  12
ENDBRANCH   5   8
BRANCH   1  24
ATOM     24  N   UNL     1      -1.359  11.569  17.569  0.00  0.00    +0.000 N 
ATOM     25  H   UNL     1      -1.404  12.578  17.412  0.00  0.00    +0.000 HD
BRANCH  24  26
ATOM     26  S   UNL     1      -2.913  10.931  17.337  0.00  0.00    +0.000 S 
ATOM     27  O   UNL     1      -3.781  11.851  18.045  0.00  0.00    +0.000 OA
ATOM     28  O   UNL     1      -2.916   9.518  17.631  0.00  0.00    +0.000 OA
BRANCH  26  29
ATOM     29  C   UNL     1      -3.152  11.177  15.576  0.00  0.00    +0.000 C 
BRANCH  29  31
ATOM     30  C   UNL     1      -3.662   9.923  13.443  0.00  0.00    +0.000 C 
ATOM     31  C   UNL     1      -3.050   9.848  14.832  0.00  0.00    +0.000 C 
ENDBRANCH  29  31
ENDBRANCH  26  29
ENDBRANCH  24  26
ENDBRANCH   1  24
BRANCH   4  32
ATOM     32  O   UNL     1       1.071   9.958  22.379  0.00  0.00    +0.000 OA
ATOM     33  C   UNL     1       0.181   9.512  23.410  0.00  0.00    +0.000 C 
ENDBRANCH   4  32
TORSDOF 8
ENDMDL
MODEL 8
REMARK VINA RESULT:      -8.1      2.173      2.705
REMARK  Name = 
REMARK  11 active torsions:
REMARK  status: ('A' for Active; 'I' for Inactive)
REMARK    1  A    between atoms: C_1  and  C_2
REMARK    2  A    between atoms: C_2  and  C_3
REMARK    3  A    between atoms: C_3  and  S_4
REMARK    4  A    between atoms: S_4  and  N_7
REMARK    5  A    between atoms: N_7  and  C_8
REMARK    6  A    between atoms: C_11  and  O_12
REMARK    7  A    between atoms: O_12  and  C_13
REMARK    8  A    between atoms: C_14  and  C_15
REMARK    9  A    between atoms: N_17  and  C_18
REMARK   10  A    between atoms: C_24  and  O_25
REMARK   11  A    between atoms: O_25  and  C_26
REMARK                            x       y       z     vdW  Elec       q    Type
REMARK                         _______ _______ _______ _____ _____    ______ ____
ROOT
ATOM      1  C   UNL     1       4.879   4.579  17.298  0.00  0.00    +0.000 A 
ATOM      2  C   UNL     1       4.317   3.317  17.200  0.00  0.00    +0.000 A 
ATOM      3  C   UNL     1       3.037   3.092  17.708  0.00  0.00    +0.000 A 
ATOM      4  C   UNL     1       2.300   4.120  18.331  0.00  0.00    +0.000 A 
ATOM      5  C   UNL     1       2.892   5.393  18.481  0.00  0.00    +0.000 A 
ATOM      6  C   UNL     1       4.183   5.599  17.950  0.00  0.00    +0.000 A 
ATOM      7  F   UNL     1       4.783   6.800  18.011  0.00  0.00    +0.000 F 
ENDROOT
BRANCH   5   8
ATOM      8  C   UNL     1       2.278   6.577  19.160  0.00  0.00    +0.000 C 
ATOM      9  O   UNL     1       2.006   6.492  20.358  0.00  0.00    +0.000 OA
ATOM     10  N   UNL     1       1.980   7.724  18.431  0.00  0.00    +0.000 N 
ATOM     11  H   UNL     1       1.825   7.604  17.434  0.00  0.00    +0.000 HD
BRANCH  10  12
ATOM     12  C   UNL     1       1.421   8.853  19.090  0.00  0.00    +0.000 A 
ATOM     13  C   UNL     1       1.499   9.001  20.485  0.00  0.00    +0.000 A 
ATOM     14  N   UNL     1       0.944   9.996  21.227  0.00  0.00    +0.000 NA
ATOM     15  C   UNL     1       0.208  10.831  20.474  0.00  0.00    +0.000 A 
ATOM     16  N   UNL     1      -0.546  11.867  20.941  0.00  0.00    +0.000 N 
ATOM     17  N   UNL     1      -1.230  12.520  19.982  0.00  0.00    +0.000 NA
ATOM     18  C   UNL     1      -0.881  11.863  18.869  0.00  0.00    +0.000 A 
ATOM     19  C   UNL     1       0.037  10.809  19.098  0.00  0.00    +0.000 A 
ATOM     20  C   UNL     1       0.716   9.816  18.360  0.00  0.00    +0.000 A 
ATOM     21  H   UNL     1      -0.647  12.153  21.907  0.00  0.00    +0.000 HD
BRANCH  18  22
ATOM     22  O   UNL     1      -1.418  12.205  17.675  0.00  0.00    +0.000 OA
ATOM     23  C   UNL     1      -2.424  11.305  17.214  0.00  0.00    +0.000 C 
ENDBRANCH  18  22
ENDBRANCH  10  12
ENDBRANCH   5   8
BRANCH   1  24
ATOM     24  N   UNL     1       6.213   4.798  16.826  0.00  0.00    +0.000 N 
ATOM     25  H   UNL     1       6.760   5.452  17.390  0.00  0.00    +0.000 HD
BRANCH  24  26
ATOM     26  S   UNL     1       6.351   5.262  15.201  0.00  0.00    +0.000 S 
ATOM     27  O   UNL     1       7.761   5.557  15.037  0.00  0.00    +0.000 OA
ATOM     28  O   UNL     1       5.337   6.237  14.877  0.00  0.00    +0.000 OA
BRANCH  26  29
ATOM     29  C   UNL     1       5.998   3.724  14.348  0.00  0.00    +0.000 C 
BRANCH  29  31
ATOM     30  C   UNL     1       5.334   3.232  11.960  0.00  0.00    +0.000 C 
ATOM     31  C   UNL     1       6.392   3.825  12.877  0.00  0.00    +0.000 C 
ENDBRANCH  29  31
ENDBRANCH  26  29
ENDBRANCH  24  26
ENDBRANCH   1  24
BRANCH   4  32
ATOM     32  O   UNL     1       1.037   3.909  18.838  0.00  0.00    +0.000 OA
ATOM     33  C   UNL     1       0.929   2.926  19.876  0.00  0.00    +0.000 C 
ENDBRANCH   4  32
TORSDOF 8
ENDMDL
MODEL 9
REMARK VINA RESULT:      -8.1      3.272      8.745
REMARK  Name = 
REMARK  11 active torsions:
REMARK  status: ('A' for Active; 'I' for Inactive)
REMARK    1  A    between atoms: C_1  and  C_2
REMARK    2  A    between atoms: C_2  and  C_3
REMARK    3  A    between atoms: C_3  and  S_4
REMARK    4  A    between atoms: S_4  and  N_7
REMARK    5  A    between atoms: N_7  and  C_8
REMARK    6  A    between atoms: C_11  and  O_12
REMARK    7  A    between atoms: O_12  and  C_13
REMARK    8  A    between atoms: C_14  and  C_15
REMARK    9  A    between atoms: N_17  and  C_18
REMARK   10  A    between atoms: C_24  and  O_25
REMARK   11  A    between atoms: O_25  and  C_26
REMARK                            x       y       z     vdW  Elec       q    Type
REMARK                         _______ _______ _______ _____ _____    ______ ____
ROOT
ATOM      1  C   UNL     1      -0.990  11.143  18.622  0.00  0.00    +0.000 A 
ATOM      2  C   UNL     1      -1.184  11.829  19.810  0.00  0.00    +0.000 A 
ATOM      3  C   UNL     1      -0.464  11.456  20.946  0.00  0.00    +0.000 A 
ATOM      4  C   UNL     1       0.454  10.386  20.919  0.00  0.00    +0.000 A 
ATOM      5  C   UNL     1       0.613   9.651  19.725  0.00  0.00    +0.000 A 
ATOM      6  C   UNL     1      -0.118  10.053  18.587  0.00  0.00    +0.000 A 
ATOM      7  F   UNL     1       0.026   9.430  17.405  0.00  0.00    +0.000 F 
ENDROOT
BRANCH   5   8
ATOM      8  C   UNL     1       1.497   8.459  19.534  0.00  0.00    +0.000 C 
ATOM      9  O   UNL     1       1.699   7.716  20.495  0.00  0.00    +0.000 OA
ATOM     10  N   UNL     1       2.112   8.235  18.306  0.00  0.00    +0.000 N 
ATOM     11  H   UNL     1       2.261   9.047  17.715  0.00  0.00    +0.000 HD
BRANCH  10  12
ATOM     12  C   UNL     1       2.931   7.086  18.127  0.00  0.00    +0.000 A 
ATOM     13  C   UNL     1       2.377   5.799  18.019  0.00  0.00    +0.000 A 
ATOM     14  N   UNL     1       3.060   4.628  17.916  0.00  0.00    +0.000 NA
ATOM     15  C   UNL     1       4.387   4.813  18.009  0.00  0.00    +0.000 A 
ATOM     16  N   UNL     1       5.328   3.826  18.037  0.00  0.00    +0.000 N 
ATOM     17  N   UNL     1       6.588   4.276  18.187  0.00  0.00    +0.000 NA
ATOM     18  C   UNL     1       6.423   5.603  18.251  0.00  0.00    +0.000 A 
ATOM     19  C   UNL     1       5.073   6.013  18.120  0.00  0.00    +0.000 A 
ATOM     20  C   UNL     1       4.324   7.209  18.121  0.00  0.00    +0.000 A 
ATOM     21  H   UNL     1       5.158   2.829  17.983  0.00  0.00    +0.000 HD
BRANCH  18  22
ATOM     22  O   UNL     1       7.485   6.416  18.454  0.00  0.00    +0.000 OA
ATOM     23  C   UNL     1       7.607   7.460  17.490  0.00  0.00    +0.000 C 
ENDBRANCH  18  22
ENDBRANCH  10  12
ENDBRANCH   5   8
BRANCH   1  24
ATOM     24  N   UNL     1      -1.766  11.489  17.470  0.00  0.00    +0.000 N 
ATOM     25  H   UNL     1      -1.836  12.493  17.292  0.00  0.00    +0.000 HD
BRANCH  24  26
ATOM     26  S   UNL     1      -3.331  10.836  17.415  0.00  0.00    +0.000 S 
ATOM     27  O   UNL     1      -4.127  11.764  18.194  0.00  0.00    +0.000 OA
ATOM     28  O   UNL     1      -3.291   9.429  17.734  0.00  0.00    +0.000 OA
BRANCH  26  29
ATOM     29  C   UNL     1      -3.756  11.047  15.686  0.00  0.00    +0.000 C 
BRANCH  29  31
ATOM     30  C   UNL     1      -3.560   9.888  13.449  0.00  0.00    +0.000 C 
ATOM     31  C   UNL     1      -2.926  10.109  14.813  0.00  0.00    +0.000 C 
ENDBRANCH  29  31
ENDBRANCH  26  29
ENDBRANCH  24  26
ENDBRANCH   1  24
BRANCH   4  32
ATOM     32  O   UNL     1       1.166  10.008  22.035  0.00  0.00    +0.000 OA
ATOM     33  C   UNL     1       0.399   9.504  23.135  0.00  0.00    +0.000 C 
ENDBRANCH   4  32
TORSDOF 8
ENDMDL
