MODEL 1
REMARK VINA RESULT:      -6.4      0.000      0.000
REMARK  Name = 
REMARK  4 active torsions:
REMARK  status: ('A' for Active; 'I' for Inactive)
REMARK    1  A    between atoms: C_2  and  C_3
REMARK    2  A    between atoms: C_3  and  N_4
REMARK    3  A    between atoms: N_7  and  S_8
REMARK    4  A    between atoms: S_8  and  C_11
REMARK                            x       y       z     vdW  Elec       q    Type
REMARK                         _______ _______ _______ _____ _____    ______ ____
ROOT
ATOM      1  N   UNL     1       2.159   6.633  20.412  0.00  0.00    +0.000 NA
ATOM      2  C   UNL     1       2.104   5.294  21.043  0.00  0.00    +0.000 C 
ATOM      3  C   UNL     1       1.345   4.187  20.273  0.00  0.00    +0.000 C 
ATOM      4  N   UNL     1       1.729   4.109  18.833  0.00  0.00    +0.000 NA
ATOM      5  C   UNL     1       1.781   5.446  18.179  0.00  0.00    +0.000 C 
ATOM      6  C   UNL     1       2.586   6.470  19.004  0.00  0.00    +0.000 C 
ENDROOT
BRANCH   4   7
ATOM      7  S   UNL     1       2.982   3.034  18.437  0.00  0.00    +0.000 S 
ATOM      8  O   UNL     1       3.466   2.408  19.652  0.00  0.00    +0.000 OA
ATOM      9  O   UNL     1       2.552   2.242  17.308  0.00  0.00    +0.000 OA
BRANCH   7  10
ATOM     10  C   UNL     1       4.362   3.987  17.830  0.00  0.00    +0.000 A 
ATOM     11  C   UNL     1       4.772   4.326  16.550  0.00  0.00    +0.000 A 
ATOM     12  C   UNL     1       5.973   5.094  16.552  0.00  0.00    +0.000 A 
ATOM     13  C   UNL     1       6.411   5.320  17.832  0.00  0.00    +0.000 A 
ATOM     14 CL   UNL     1       7.810   6.202  18.293  0.00  0.00    +0.000 Cl
ATOM     15  S   UNL     1       5.418   4.633  19.017  0.00  0.00    +0.000 S 
ENDBRANCH   7  10
ENDBRANCH   4   7
BRANCH   1  16
ATOM     16  C   UNL     1       0.891   7.390  20.508  0.00  0.00    +0.000 C 
BRANCH  16  18
ATOM     17  O   UNL     1       1.410   8.928  22.267  0.00  0.00    +0.000 OA
ATOM     18  C   UNL     1       1.071   8.807  21.085  0.00  0.00    +0.000 C 
ATOM     19  N   UNL     1       0.848   9.914  20.284  0.00  0.00    +0.000 N 
ATOM     20  C   UNL     1       1.089  11.256  20.822  0.00  0.00    +0.000 C 
ATOM     21  C   UNL     1      -0.235  12.009  20.958  0.00  0.00    +0.000 C 
ATOM     22  O   UNL     1      -0.893  12.089  19.681  0.00  0.00    +0.000 OA
ATOM     23  C   UNL     1      -1.174  10.775  19.167  0.00  0.00    +0.000 C 
ATOM     24  C   UNL     1       0.105   9.925  19.020  0.00  0.00    +0.000 C 
ENDBRANCH  16  18
ENDBRANCH   1  16
TORSDOF 4
ENDMDL
MODEL 2
REMARK VINA RESULT:      -6.4      3.977      5.936
REMARK  Name = 
REMARK  4 active torsions:
REMARK  status: ('A' for Active; 'I' for Inactive)
REMARK    1  A    between atoms: C_2  and  C_3
REMARK    2  A    between atoms: C_3  and  N_4
REMARK    3  A    between atoms: N_7  and  S_8
REMARK    4  A    between atoms: S_8  and  C_11
REMARK                            x       y       z     vdW  Elec       q    Type
REMARK                         _______ _______ _______ _____ _____    ______ ____
ROOT
ATOM      1  N   UNL     1       4.304   6.436  19.064  0.00  0.00    +0.000 NA
ATOM      2  C   UNL     1       4.877   5.079  18.909  0.00  0.00    +0.000 C 
ATOM      3  C   UNL     1       4.789   4.437  17.504  0.00  0.00    +0.000 C 
ATOM      4  N   UNL     1       5.231   5.355  16.414  0.00  0.00    +0.000 NA
ATOM      5  C   UNL     1       4.658   6.723  16.548  0.00  0.00    +0.000 C 
ATOM      6  C   UNL     1       4.823   7.291  17.972  0.00  0.00    +0.000 C 
ENDROOT
BRANCH   4   7
ATOM      7  S   UNL     1       6.865   5.271  15.963  0.00  0.00    +0.000 S 
ATOM      8  O   UNL     1       7.414   6.613  15.928  0.00  0.00    +0.000 OA
ATOM      9  O   UNL     1       7.491   4.227  16.743  0.00  0.00    +0.000 OA
BRANCH   7  10
ATOM     10  C   UNL     1       6.950   4.697  14.277  0.00  0.00    +0.000 A 
ATOM     11  C   UNL     1       7.708   5.102  13.189  0.00  0.00    +0.000 A 
ATOM     12  C   UNL     1       7.411   4.353  12.012  0.00  0.00    +0.000 A 
ATOM     13  C   UNL     1       6.455   3.402  12.263  0.00  0.00    +0.000 A 
ATOM     14 CL   UNL     1       5.809   2.279  11.135  0.00  0.00    +0.000 Cl
ATOM     15  S   UNL     1       5.915   3.393  13.867  0.00  0.00    +0.000 S 
ENDBRANCH   7  10
ENDBRANCH   4   7
BRANCH   1  16
ATOM     16  C   UNL     1       2.825   6.457  19.110  0.00  0.00    +0.000 C 
BRANCH  16  18
ATOM     17  O   UNL     1       2.436   5.467  21.254  0.00  0.00    +0.000 OA
ATOM     18  C   UNL     1       2.230   5.382  20.038  0.00  0.00    +0.000 C 
ATOM     19  N   UNL     1       1.486   4.342  19.507  0.00  0.00    +0.000 N 
ATOM     20  C   UNL     1       0.867   3.363  20.405  0.00  0.00    +0.000 C 
ATOM     21  C   UNL     1       1.532   1.997  20.226  0.00  0.00    +0.000 C 
ATOM     22  O   UNL     1       1.420   1.567  18.857  0.00  0.00    +0.000 OA
ATOM     23  C   UNL     1       2.065   2.501  17.973  0.00  0.00    +0.000 C 
ATOM     24  C   UNL     1       1.478   3.921  18.102  0.00  0.00    +0.000 C 
ENDBRANCH  16  18
ENDBRANCH   1  16
TORSDOF 4
ENDMDL
MODEL 3
REMARK VINA RESULT:      -6.4      4.650      8.846
REMARK  Name = 
REMARK  4 active torsions:
REMARK  status: ('A' for Active; 'I' for Inactive)
REMARK    1  A    between atoms: C_2  and  C_3
REMARK    2  A    between atoms: C_3  and  N_4
REMARK    3  A    between atoms: N_7  and  S_8
REMARK    4  A    between atoms: S_8  and  C_11
REMARK                            x       y       z     vdW  Elec       q    Type
REMARK                         _______ _______ _______ _____ _____    ______ ____
ROOT
ATOM      1  N   UNL     1       1.957   8.002  20.225  0.00  0.00    +0.000 NA
ATOM      2  C   UNL     1       1.759   8.993  19.144  0.00  0.00    +0.000 C 
ATOM      3  C   UNL     1       0.318   9.516  18.926  0.00  0.00    +0.000 C 
ATOM      4  N   UNL     1      -0.349   9.935  20.194  0.00  0.00    +0.000 NA
ATOM      5  C   UNL     1      -0.167   8.946  21.292  0.00  0.00    +0.000 C 
ATOM      6  C   UNL     1       1.303   8.512  21.453  0.00  0.00    +0.000 C 
ENDROOT
BRANCH   4   7
ATOM      7  S   UNL     1      -0.199  11.570  20.628  0.00  0.00    +0.000 S 
ATOM      8  O   UNL     1       0.822  11.693  21.650  0.00  0.00    +0.000 OA
ATOM      9  O   UNL     1      -0.141  12.352  19.415  0.00  0.00    +0.000 OA
BRANCH   7  10
ATOM     10  C   UNL     1      -1.711  12.074  21.428  0.00  0.00    +0.000 A 
ATOM     11  C   UNL     1      -2.850  12.708  20.956  0.00  0.00    +0.000 A 
ATOM     12  C   UNL     1      -3.809  12.936  21.986  0.00  0.00    +0.000 A 
ATOM     13  C   UNL     1      -3.364  12.449  23.189  0.00  0.00    +0.000 A 
ATOM     14 CL   UNL     1      -4.202  12.505  24.687  0.00  0.00    +0.000 Cl
ATOM     15  S   UNL     1      -1.834  11.732  23.103  0.00  0.00    +0.000 S 
ENDBRANCH   7  10
ENDBRANCH   4   7
BRANCH   1  16
ATOM     16  C   UNL     1       1.479   6.644  19.884  0.00  0.00    +0.000 C 
BRANCH  16  18
ATOM     17  O   UNL     1       3.749   5.982  19.512  0.00  0.00    +0.000 OA
ATOM     18  C   UNL     1       2.612   5.602  19.810  0.00  0.00    +0.000 C 
ATOM     19  N   UNL     1       2.345   4.269  20.071  0.00  0.00    +0.000 N 
ATOM     20  C   UNL     1       3.443   3.298  20.066  0.00  0.00    +0.000 C 
ATOM     21  C   UNL     1       3.282   2.334  18.889  0.00  0.00    +0.000 C 
ATOM     22  O   UNL     1       2.013   1.661  18.969  0.00  0.00    +0.000 OA
ATOM     23  C   UNL     1       0.929   2.605  18.928  0.00  0.00    +0.000 C 
ATOM     24  C   UNL     1       1.020   3.641  20.068  0.00  0.00    +0.000 C 
ENDBRANCH  16  18
ENDBRANCH   1  16
TORSDOF 4
ENDMDL
MODEL 4
REMARK VINA RESULT:      -6.4      4.455      8.670
REMARK  Name = 
REMARK  4 active torsions:
REMARK  status: ('A' for Active; 'I' for Inactive)
REMARK    1  A    between atoms: C_2  and  C_3
REMARK    2  A    between atoms: C_3  and  N_4
REMARK    3  A    between atoms: N_7  and  S_8
REMARK    4  A    between atoms: S_8  and  C_11
REMARK                            x       y       z     vdW  Elec       q    Type
REMARK                         _______ _______ _______ _____ _____    ______ ____
ROOT
ATOM      1  N   UNL     1       2.338   8.076  18.904  0.00  0.00    +0.000 NA
ATOM      2  C   UNL     1       1.995   9.300  18.144  0.00  0.00    +0.000 C 
ATOM      3  C   UNL     1       0.547   9.829  18.284  0.00  0.00    +0.000 C 
ATOM      4  N   UNL     1       0.088   9.907  19.701  0.00  0.00    +0.000 NA
ATOM      5  C   UNL     1       0.417   8.681  20.479  0.00  0.00    +0.000 C 
ATOM      6  C   UNL     1       1.887   8.252  20.303  0.00  0.00    +0.000 C 
ENDROOT
BRANCH   4   7
ATOM      7  S   UNL     1       0.329  11.386  20.500  0.00  0.00    +0.000 S 
ATOM      8  O   UNL     1       1.199  11.168  21.639  0.00  0.00    +0.000 OA
ATOM      9  O   UNL     1       0.637  12.387  19.504  0.00  0.00    +0.000 OA
BRANCH   7  10
ATOM     10  C   UNL     1      -1.227  11.900  21.202  0.00  0.00    +0.000 A 
ATOM     11  C   UNL     1      -2.341  12.516  20.653  0.00  0.00    +0.000 A 
ATOM     12  C   UNL     1      -3.357  12.763  21.624  0.00  0.00    +0.000 A 
ATOM     13  C   UNL     1      -2.977  12.307  22.860  0.00  0.00    +0.000 A 
ATOM     14 CL   UNL     1      -3.896  12.393  24.308  0.00  0.00    +0.000 Cl
ATOM     15  S   UNL     1      -1.440  11.597  22.876  0.00  0.00    +0.000 S 
ENDBRANCH   7  10
ENDBRANCH   4   7
BRANCH   1  16
ATOM     16  C   UNL     1       1.791   6.835  18.312  0.00  0.00    +0.000 C 
BRANCH  16  18
ATOM     17  O   UNL     1       3.784   5.864  17.407  0.00  0.00    +0.000 OA
ATOM     18  C   UNL     1       2.837   5.710  18.186  0.00  0.00    +0.000 C 
ATOM     19  N   UNL     1       2.702   4.552  18.933  0.00  0.00    +0.000 N 
ATOM     20  C   UNL     1       3.739   3.519  18.858  0.00  0.00    +0.000 C 
ATOM     21  C   UNL     1       3.179   2.266  18.183  0.00  0.00    +0.000 C 
ATOM     22  O   UNL     1       2.035   1.781  18.908  0.00  0.00    +0.000 OA
ATOM     23  C   UNL     1       0.995   2.774  18.947  0.00  0.00    +0.000 C 
ATOM     24  C   UNL     1       1.476   4.091  19.591  0.00  0.00    +0.000 C 
ENDBRANCH  16  18
ENDBRANCH   1  16
TORSDOF 4
ENDMDL
MODEL 5
REMARK VINA RESULT:      -6.4      1.309      1.436
REMARK  Name = 
REMARK  4 active torsions:
REMARK  status: ('A' for Active; 'I' for Inactive)
REMARK    1  A    between atoms: C_2  and  C_3
REMARK    2  A    between atoms: C_3  and  N_4
REMARK    3  A    between atoms: N_7  and  S_8
REMARK    4  A    between atoms: S_8  and  C_11
REMARK                            x       y       z     vdW  Elec       q    Type
REMARK                         _______ _______ _______ _____ _____    ______ ____
ROOT
ATOM      1  N   UNL     1       2.223   6.525  20.508  0.00  0.00    +0.000 NA
ATOM      2  C   UNL     1       1.844   5.110  20.724  0.00  0.00    +0.000 C 
ATOM      3  C   UNL     1       1.548   4.263  19.463  0.00  0.00    +0.000 C 
ATOM      4  N   UNL     1       2.591   4.404  18.406  0.00  0.00    +0.000 NA
ATOM      5  C   UNL     1       2.979   5.822  18.168  0.00  0.00    +0.000 C 
ATOM      6  C   UNL     1       3.287   6.573  19.479  0.00  0.00    +0.000 C 
ENDROOT
BRANCH   4   7
ATOM      7  S   UNL     1       3.861   3.277  18.433  0.00  0.00    +0.000 S 
ATOM      8  O   UNL     1       4.319   3.118  19.800  0.00  0.00    +0.000 OA
ATOM      9  O   UNL     1       3.465   2.137  17.639  0.00  0.00    +0.000 OA
BRANCH   7  10
ATOM     10  C   UNL     1       5.250   3.981  17.564  0.00  0.00    +0.000 A 
ATOM     11  C   UNL     1       6.410   4.600  18.003  0.00  0.00    +0.000 A 
ATOM     12  C   UNL     1       7.234   5.035  16.923  0.00  0.00    +0.000 A 
ATOM     13  C   UNL     1       6.672   4.711  15.715  0.00  0.00    +0.000 A 
ATOM     14 CL   UNL     1       7.328   5.040  14.162  0.00  0.00    +0.000 Cl
ATOM     15  S   UNL     1       5.191   3.905  15.852  0.00  0.00    +0.000 S 
ENDBRANCH   7  10
ENDBRANCH   4   7
BRANCH   1  16
ATOM     16  C   UNL     1       1.084   7.398  20.147  0.00  0.00    +0.000 C 
BRANCH  16  18
ATOM     17  O   UNL     1       1.322   8.732  22.121  0.00  0.00    +0.000 OA
ATOM     18  C   UNL     1       1.081   8.737  20.909  0.00  0.00    +0.000 C 
ATOM     19  N   UNL     1       0.806   9.916  20.236  0.00  0.00    +0.000 N 
ATOM     20  C   UNL     1       0.874  11.191  20.956  0.00  0.00    +0.000 C 
ATOM     21  C   UNL     1      -0.525  11.799  21.074  0.00  0.00    +0.000 C 
ATOM     22  O   UNL     1      -1.096  11.987  19.766  0.00  0.00    +0.000 OA
ATOM     23  C   UNL     1      -1.208  10.732  19.072  0.00  0.00    +0.000 C 
ATOM     24  C   UNL     1       0.157  10.027  18.926  0.00  0.00    +0.000 C 
ENDBRANCH  16  18
ENDBRANCH   1  16
TORSDOF 4
ENDMDL
MODEL 6
REMARK VINA RESULT:      -6.2      2.004      2.482
REMARK  Name = 
REMARK  4 active torsions:
REMARK  status: ('A' for Active; 'I' for Inactive)
REMARK    1  A    between atoms: C_2  and  C_3
REMARK    2  A    between atoms: C_3  and  N_4
REMARK    3  A    between atoms: N_7  and  S_8
REMARK    4  A    between atoms: S_8  and  C_11
REMARK                            x       y       z     vdW  Elec       q    Type
REMARK                         _______ _______ _______ _____ _____    ______ ____
ROOT
ATOM      1  N   UNL     1       2.526   7.020  18.149  0.00  0.00    +0.000 NA
ATOM      2  C   UNL     1       3.976   6.798  18.346  0.00  0.00    +0.000 C 
ATOM      3  C   UNL     1       4.392   5.875  19.517  0.00  0.00    +0.000 C 
ATOM      4  N   UNL     1       3.623   4.596  19.554  0.00  0.00    +0.000 NA
ATOM      5  C   UNL     1       2.160   4.800  19.365  0.00  0.00    +0.000 C 
ATOM      6  C   UNL     1       1.845   5.704  18.157  0.00  0.00    +0.000 C 
ENDROOT
BRANCH   4   7
ATOM      7  S   UNL     1       4.305   3.275  18.734  0.00  0.00    +0.000 S 
ATOM      8  O   UNL     1       5.022   2.450  19.686  0.00  0.00    +0.000 OA
ATOM      9  O   UNL     1       3.292   2.713  17.871  0.00  0.00    +0.000 OA
BRANCH   7  10
ATOM     10  C   UNL     1       5.560   3.893  17.627  0.00  0.00    +0.000 A 
ATOM     11  C   UNL     1       6.838   4.383  17.845  0.00  0.00    +0.000 A 
ATOM     12  C   UNL     1       7.474   4.794  16.636  0.00  0.00    +0.000 A 
ATOM     13  C   UNL     1       6.658   4.582  15.555  0.00  0.00    +0.000 A 
ATOM     14 CL   UNL     1       7.026   4.927  13.913  0.00  0.00    +0.000 Cl
ATOM     15  S   UNL     1       5.160   3.906  15.960  0.00  0.00    +0.000 S 
ENDBRANCH   7  10
ENDBRANCH   4   7
BRANCH   1  16
ATOM     16  C   UNL     1       1.924   7.944  19.137  0.00  0.00    +0.000 C 
BRANCH  16  18
ATOM     17  O   UNL     1       1.942   9.653  17.460  0.00  0.00    +0.000 OA
ATOM     18  C   UNL     1       1.423   9.259  18.510  0.00  0.00    +0.000 C 
ATOM     19  N   UNL     1       0.413   9.979  19.126  0.00  0.00    +0.000 N 
ATOM     20  C   UNL     1      -0.104  11.192  18.486  0.00  0.00    +0.000 C 
ATOM     21  C   UNL     1       0.269  12.420  19.318  0.00  0.00    +0.000 C 
ATOM     22  O   UNL     1      -0.254  12.292  20.652  0.00  0.00    +0.000 OA
ATOM     23  C   UNL     1       0.284  11.128  21.303  0.00  0.00    +0.000 C 
ATOM     24  C   UNL     1      -0.019   9.834  20.520  0.00  0.00    +0.000 C 
ENDBRANCH  16  18
ENDBRANCH   1  16
TORSDOF 4
ENDMDL
MODEL 7
REMARK VINA RESULT:      -6.2      4.632      8.764
REMARK  Name = 
REMARK  4 active torsions:
REMARK  status: ('A' for Active; 'I' for Inactive)
REMARK    1  A    between atoms: C_2  and  C_3
REMARK    2  A    between atoms: C_3  and  N_4
REMARK    3  A    between atoms: N_7  and  S_8
REMARK    4  A    between atoms: S_8  and  C_11
REMARK                            x       y       z     vdW  Elec       q    Type
REMARK                         _______ _______ _______ _____ _____    ______ ____
ROOT
ATOM      1  N   UNL     1       2.254   8.164  18.957  0.00  0.00    +0.000 NA
ATOM      2  C   UNL     1       1.880   9.354  18.159  0.00  0.00    +0.000 C 
ATOM      3  C   UNL     1       0.429   9.872  18.310  0.00  0.00    +0.000 C 
ATOM      4  N   UNL     1      -0.001   9.999  19.733  0.00  0.00    +0.000 NA
ATOM      5  C   UNL     1       0.360   8.807  20.550  0.00  0.00    +0.000 C 
ATOM      6  C   UNL     1       1.831   8.389  20.358  0.00  0.00    +0.000 C 
ENDROOT
BRANCH   4   7
ATOM      7  S   UNL     1       0.241  11.510  20.469  0.00  0.00    +0.000 S 
ATOM      8  O   UNL     1       1.376  11.420  21.366  0.00  0.00    +0.000 OA
ATOM      9  O   UNL     1       0.178  12.523  19.441  0.00  0.00    +0.000 OA
BRANCH   7  10
ATOM     10  C   UNL     1      -1.156  11.843  21.528  0.00  0.00    +0.000 A 
ATOM     11  C   UNL     1      -1.400  11.569  22.865  0.00  0.00    +0.000 A 
ATOM     12  C   UNL     1      -2.692  12.008  23.281  0.00  0.00    +0.000 A 
ATOM     13  C   UNL     1      -3.362  12.611  22.247  0.00  0.00    +0.000 A 
ATOM     14 CL   UNL     1      -4.939  13.288  22.309  0.00  0.00    +0.000 Cl
ATOM     15  S   UNL     1      -2.479  12.659  20.805  0.00  0.00    +0.000 S 
ENDBRANCH   7  10
ENDBRANCH   4   7
BRANCH   1  16
ATOM     16  C   UNL     1       1.709   6.895  18.426  0.00  0.00    +0.000 C 
BRANCH  16  18
ATOM     17  O   UNL     1       3.711   5.970  17.494  0.00  0.00    +0.000 OA
ATOM     18  C   UNL     1       2.774   5.791  18.280  0.00  0.00    +0.000 C 
ATOM     19  N   UNL     1       2.668   4.624  19.018  0.00  0.00    +0.000 N 
ATOM     20  C   UNL     1       3.723   3.611  18.923  0.00  0.00    +0.000 C 
ATOM     21  C   UNL     1       3.180   2.355  18.241  0.00  0.00    +0.000 C 
ATOM     22  O   UNL     1       2.052   1.842  18.973  0.00  0.00    +0.000 OA
ATOM     23  C   UNL     1       0.994   2.815  19.030  0.00  0.00    +0.000 C 
ATOM     24  C   UNL     1       1.457   4.135  19.682  0.00  0.00    +0.000 C 
ENDBRANCH  16  18
ENDBRANCH   1  16
TORSDOF 4
ENDMDL
MODEL 8
REMARK VINA RESULT:      -6.2      3.540      4.187
REMARK  Name = 
REMARK  4 active torsions:
REMARK  status: ('A' for Active; 'I' for Inactive)
REMARK    1  A    between atoms: C_2  and  C_3
REMARK    2  A    between atoms: C_3  and  N_4
REMARK    3  A    between atoms: N_7  and  S_8
REMARK    4  A    between atoms: S_8  and  C_11
REMARK                            x       y       z     vdW  Elec       q    Type
REMARK                         _______ _______ _______ _____ _____    ______ ____
ROOT
ATOM      1  N   UNL     1       3.770   5.430  19.034  0.00  0.00    +0.000 NA
ATOM      2  C   UNL     1       4.095   4.215  18.253  0.00  0.00    +0.000 C 
ATOM      3  C   UNL     1       4.191   4.373  16.716  0.00  0.00    +0.000 C 
ATOM      4  N   UNL     1       5.023   5.540  16.300  0.00  0.00    +0.000 NA
ATOM      5  C   UNL     1       4.704   6.775  17.069  0.00  0.00    +0.000 C 
ATOM      6  C   UNL     1       4.664   6.525  18.590  0.00  0.00    +0.000 C 
ENDROOT
BRANCH   4   7
ATOM      7  S   UNL     1       6.670   5.239  16.019  0.00  0.00    +0.000 S 
ATOM      8  O   UNL     1       7.396   6.493  16.090  0.00  0.00    +0.000 OA
ATOM      9  O   UNL     1       7.060   4.102  16.820  0.00  0.00    +0.000 OA
BRANCH   7  10
ATOM     10  C   UNL     1       6.856   4.696  14.330  0.00  0.00    +0.000 A 
ATOM     11  C   UNL     1       7.648   5.149  13.286  0.00  0.00    +0.000 A 
ATOM     12  C   UNL     1       7.437   4.408  12.086  0.00  0.00    +0.000 A 
ATOM     13  C   UNL     1       6.509   3.416  12.277  0.00  0.00    +0.000 A 
ATOM     14 CL   UNL     1       5.962   2.288  11.104  0.00  0.00    +0.000 Cl
ATOM     15  S   UNL     1       5.895   3.359  13.853  0.00  0.00    +0.000 S 
ENDBRANCH   7  10
ENDBRANCH   4   7
BRANCH   1  16
ATOM     16  C   UNL     1       2.347   5.829  18.951  0.00  0.00    +0.000 C 
BRANCH  16  18
ATOM     17  O   UNL     1       1.488   5.823  21.186  0.00  0.00    +0.000 OA
ATOM     18  C   UNL     1       1.836   6.522  20.229  0.00  0.00    +0.000 C 
ATOM     19  N   UNL     1       1.768   7.904  20.287  0.00  0.00    +0.000 N 
ATOM     20  C   UNL     1       1.347   8.555  21.531  0.00  0.00    +0.000 C 
ATOM     21  C   UNL     1      -0.008   9.236  21.330  0.00  0.00    +0.000 C 
ATOM     22  O   UNL     1       0.073  10.196  20.261  0.00  0.00    +0.000 OA
ATOM     23  C   UNL     1       0.442   9.556  19.026  0.00  0.00    +0.000 C 
ATOM     24  C   UNL     1       1.791   8.815  19.139  0.00  0.00    +0.000 C 
ENDBRANCH  16  18
ENDBRANCH   1  16
TORSDOF 4
ENDMDL
MODEL 9
REMARK VINA RESULT:      -6.2      5.205      9.289
REMARK  Name = 
REMARK  4 active torsions:
REMARK  status: ('A' for Active; 'I' for Inactive)
REMARK    1  A    between atoms: C_2  and  C_3
REMARK    2  A    between atoms: C_3  and  N_4
REMARK    3  A    between atoms: N_7  and  S_8
REMARK    4  A    between atoms: S_8  and  C_11
REMARK                            x       y       z     vdW  Elec       q    Type
REMARK                         _______ _______ _______ _____ _____    ______ ____
ROOT
ATOM      1  N   UNL     1       1.637   8.687  20.787  0.00  0.00    +0.000 NA
ATOM      2  C   UNL     1       0.942   9.552  19.806  0.00  0.00    +0.000 C 
ATOM      3  C   UNL     1      -0.563   9.820  20.050  0.00  0.00    +0.000 C 
ATOM      4  N   UNL     1      -0.865  10.219  21.456  0.00  0.00    +0.000 NA
ATOM      5  C   UNL     1      -0.181   9.354  22.457  0.00  0.00    +0.000 C 
ATOM      6  C   UNL     1       1.319   9.174  22.149  0.00  0.00    +0.000 C 
ENDROOT
BRANCH   4   7
ATOM      7  S   UNL     1      -0.876  11.883  21.789  0.00  0.00    +0.000 S 
ATOM      8  O   UNL     1      -0.368  12.097  23.130  0.00  0.00    +0.000 OA
ATOM      9  O   UNL     1      -0.305  12.571  20.654  0.00  0.00    +0.000 OA
BRANCH   7  10
ATOM     10  C   UNL     1      -2.573  12.428  21.850  0.00  0.00    +0.000 A 
ATOM     11  C   UNL     1      -3.458  12.838  20.864  0.00  0.00    +0.000 A 
ATOM     12  C   UNL     1      -4.726  13.214  21.397  0.00  0.00    +0.000 A 
ATOM     13  C   UNL     1      -4.754  13.055  22.759  0.00  0.00    +0.000 A 
ATOM     14 CL   UNL     1      -6.081  13.382  23.799  0.00  0.00    +0.000 Cl
ATOM     15  S   UNL     1      -3.302  12.470  23.401  0.00  0.00    +0.000 S 
ENDBRANCH   7  10
ENDBRANCH   4   7
BRANCH   1  16
ATOM     16  C   UNL     1       1.323   7.248  20.641  0.00  0.00    +0.000 C 
BRANCH  16  18
ATOM     17  O   UNL     1       2.849   7.019  18.811  0.00  0.00    +0.000 OA
ATOM     18  C   UNL     1       2.370   6.479  19.814  0.00  0.00    +0.000 C 
ATOM     19  N   UNL     1       2.754   5.204  20.195  0.00  0.00    +0.000 N 
ATOM     20  C   UNL     1       3.802   4.509  19.442  0.00  0.00    +0.000 C 
ATOM     21  C   UNL     1       3.205   3.308  18.707  0.00  0.00    +0.000 C 
ATOM     22  O   UNL     1       2.579   2.413  19.645  0.00  0.00    +0.000 OA
ATOM     23  C   UNL     1       1.519   3.077  20.355  0.00  0.00    +0.000 C 
ATOM     24  C   UNL     1       2.022   4.324  21.111  0.00  0.00    +0.000 C 
ENDBRANCH  16  18
ENDBRANCH   1  16
TORSDOF 4
ENDMDL
