MODEL 1
REMARK VINA RESULT:      -7.1      0.000      0.000
REMARK  Name = 
REMARK  13 active torsions:
REMARK  status: ('A' for Active; 'I' for Inactive)
REMARK    1  A    between atoms: C_1  and  C_2
REMARK    2  A    between atoms: C_2  and  N_3
REMARK    3  A    between atoms: N_3  and  C_4
REMARK    4  A    between atoms: N_3  and  S_6
REMARK    5  A    between atoms: C_4  and  C_5
REMARK    6  A    between atoms: S_6  and  C_9
REMARK    7  A    between atoms: C_12  and  C_13
REMARK    8  A    between atoms: C_16  and  S_17
REMARK    9  A    between atoms: S_17  and  N_20
REMARK   10  A    between atoms: N_20  and  C_21
REMARK   11  A    between atoms: N_20  and  C_23
REMARK   12  A    between atoms: C_21  and  C_22
REMARK   13  A    between atoms: C_23  and  C_24
REMARK                            x       y       z     vdW  Elec       q    Type
REMARK                         _______ _______ _______ _____ _____    ______ ____
ROOT
ATOM      1  C   UNL     1       3.746   5.327  18.576  0.00  0.00    +0.000 A 
ATOM      2  C   UNL     1       2.997   5.318  19.749  0.00  0.00    +0.000 A 
ATOM      3  C   UNL     1       2.208   6.429  20.066  0.00  0.00    +0.000 A 
ATOM      4  C   UNL     1       2.176   7.572  19.240  0.00  0.00    +0.000 A 
ATOM      5  C   UNL     1       2.917   7.529  18.042  0.00  0.00    +0.000 A 
ATOM      6  C   UNL     1       3.696   6.419  17.709  0.00  0.00    +0.000 A 
ENDROOT
BRANCH   4   7
ATOM      7  C   UNL     1       1.444   8.796  19.631  0.00  0.00    +0.000 A 
ATOM      8  C   UNL     1       1.303   9.870  18.734  0.00  0.00    +0.000 A 
ATOM      9  C   UNL     1       0.611  11.031  19.085  0.00  0.00    +0.000 A 
ATOM     10  C   UNL     1       0.028  11.141  20.350  0.00  0.00    +0.000 A 
ATOM     11  C   UNL     1       0.172  10.102  21.267  0.00  0.00    +0.000 A 
ATOM     12  C   UNL     1       0.853   8.935  20.901  0.00  0.00    +0.000 A 
BRANCH  10  13
ATOM     13  S   UNL     1      -0.586  12.724  20.870  0.00  0.00    +0.000 S 
ATOM     14  O   UNL     1       0.202  13.105  22.022  0.00  0.00    +0.000 OA
ATOM     15  O   UNL     1      -0.602  13.554  19.684  0.00  0.00    +0.000 OA
BRANCH  13  16
ATOM     16  N   UNL     1      -2.238  12.557  21.423  0.00  0.00    +0.000 NA
BRANCH  16  17
ATOM     17  C   UNL     1      -2.472  13.139  22.794  0.00  0.00    +0.000 C 
ATOM     18  C   UNL     1      -3.275  12.252  23.737  0.00  0.00    +0.000 C 
ENDBRANCH  16  17
BRANCH  16  19
ATOM     19  C   UNL     1      -3.177  13.212  20.423  0.00  0.00    +0.000 C 
ATOM     20  C   UNL     1      -4.596  12.673  20.423  0.00  0.00    +0.000 C 
ENDBRANCH  16  19
ENDBRANCH  13  16
ENDBRANCH  10  13
ENDBRANCH   4   7
BRANCH   1  21
ATOM     21  S   UNL     1       4.862   3.990  18.234  0.00  0.00    +0.000 S 
ATOM     22  O   UNL     1       4.114   2.986  17.508  0.00  0.00    +0.000 OA
ATOM     23  O   UNL     1       5.555   3.667  19.457  0.00  0.00    +0.000 OA
BRANCH  21  24
ATOM     24  N   UNL     1       6.026   4.677  17.158  0.00  0.00    +0.000 NA
BRANCH  24  26
ATOM     25  C   UNL     1       7.630   6.257  18.304  0.00  0.00    +0.000 C 
ATOM     26  C   UNL     1       7.375   4.852  17.780  0.00  0.00    +0.000 C 
ENDBRANCH  24  26
BRANCH  24  27
ATOM     27  C   UNL     1       6.020   4.029  15.809  0.00  0.00    +0.000 C 
ATOM     28  C   UNL     1       6.891   4.747  14.789  0.00  0.00    +0.000 C 
ENDBRANCH  24  27
ENDBRANCH  21  24
ENDBRANCH   1  21
TORSDOF 9
ENDMDL
MODEL 2
REMARK VINA RESULT:      -7.1      1.056      1.759
REMARK  Name = 
REMARK  13 active torsions:
REMARK  status: ('A' for Active; 'I' for Inactive)
REMARK    1  A    between atoms: C_1  and  C_2
REMARK    2  A    between atoms: C_2  and  N_3
REMARK    3  A    between atoms: N_3  and  C_4
REMARK    4  A    between atoms: N_3  and  S_6
REMARK    5  A    between atoms: C_4  and  C_5
REMARK    6  A    between atoms: S_6  and  C_9
REMARK    7  A    between atoms: C_12  and  C_13
REMARK    8  A    between atoms: C_16  and  S_17
REMARK    9  A    between atoms: S_17  and  N_20
REMARK   10  A    between atoms: N_20  and  C_21
REMARK   11  A    between atoms: N_20  and  C_23
REMARK   12  A    between atoms: C_21  and  C_22
REMARK   13  A    between atoms: C_23  and  C_24
REMARK                            x       y       z     vdW  Elec       q    Type
REMARK                         _______ _______ _______ _____ _____    ______ ____
ROOT
ATOM      1  C   UNL     1       3.869   5.588  18.507  0.00  0.00    +0.000 A 
ATOM      2  C   UNL     1       3.844   6.642  17.597  0.00  0.00    +0.000 A 
ATOM      3  C   UNL     1       3.049   7.761  17.868  0.00  0.00    +0.000 A 
ATOM      4  C   UNL     1       2.249   7.836  19.028  0.00  0.00    +0.000 A 
ATOM      5  C   UNL     1       2.331   6.768  19.944  0.00  0.00    +0.000 A 
ATOM      6  C   UNL     1       3.132   5.653  19.690  0.00  0.00    +0.000 A 
ENDROOT
BRANCH   4   7
ATOM      7  C   UNL     1       1.314   8.958  19.258  0.00  0.00    +0.000 A 
ATOM      8  C   UNL     1       1.038   9.888  18.240  0.00  0.00    +0.000 A 
ATOM      9  C   UNL     1       0.154  10.950  18.439  0.00  0.00    +0.000 A 
ATOM     10  C   UNL     1      -0.489  11.102  19.670  0.00  0.00    +0.000 A 
ATOM     11  C   UNL     1      -0.217  10.209  20.704  0.00  0.00    +0.000 A 
ATOM     12  C   UNL     1       0.657   9.138  20.491  0.00  0.00    +0.000 A 
BRANCH  10  13
ATOM     13  S   UNL     1      -1.371  12.610  19.989  0.00  0.00    +0.000 S 
ATOM     14  O   UNL     1      -0.781  13.614  19.130  0.00  0.00    +0.000 OA
ATOM     15  O   UNL     1      -2.777  12.281  19.875  0.00  0.00    +0.000 OA
BRANCH  13  16
ATOM     16  N   UNL     1      -1.078  13.122  21.637  0.00  0.00    +0.000 NA
BRANCH  16  17
ATOM     17  C   UNL     1      -0.424  14.477  21.735  0.00  0.00    +0.000 C 
ATOM     18  C   UNL     1      -0.724  15.241  23.018  0.00  0.00    +0.000 C 
ENDBRANCH  16  17
BRANCH  16  19
ATOM     19  C   UNL     1      -2.388  13.130  22.407  0.00  0.00    +0.000 C 
ATOM     20  C   UNL     1      -2.608  11.934  23.317  0.00  0.00    +0.000 C 
ENDBRANCH  16  19
ENDBRANCH  13  16
ENDBRANCH  10  13
ENDBRANCH   4   7
BRANCH   1  21
ATOM     21  S   UNL     1       4.755   4.103  18.109  0.00  0.00    +0.000 S 
ATOM     22  O   UNL     1       3.856   3.259  17.351  0.00  0.00    +0.000 OA
ATOM     23  O   UNL     1       5.388   3.629  19.316  0.00  0.00    +0.000 OA
BRANCH  21  24
ATOM     24  N   UNL     1       6.015   4.634  17.052  0.00  0.00    +0.000 NA
BRANCH  24  26
ATOM     25  C   UNL     1       7.637   6.163  18.241  0.00  0.00    +0.000 C 
ATOM     26  C   UNL     1       7.342   4.761  17.730  0.00  0.00    +0.000 C 
ENDBRANCH  24  26
BRANCH  24  27
ATOM     27  C   UNL     1       6.027   3.895  15.751  0.00  0.00    +0.000 C 
ATOM     28  C   UNL     1       6.600   4.708  14.599  0.00  0.00    +0.000 C 
ENDBRANCH  24  27
ENDBRANCH  21  24
ENDBRANCH   1  21
TORSDOF 9
ENDMDL
MODEL 3
REMARK VINA RESULT:      -7.1      1.121      1.933
REMARK  Name = 
REMARK  13 active torsions:
REMARK  status: ('A' for Active; 'I' for Inactive)
REMARK    1  A    between atoms: C_1  and  C_2
REMARK    2  A    between atoms: C_2  and  N_3
REMARK    3  A    between atoms: N_3  and  C_4
REMARK    4  A    between atoms: N_3  and  S_6
REMARK    5  A    between atoms: C_4  and  C_5
REMARK    6  A    between atoms: S_6  and  C_9
REMARK    7  A    between atoms: C_12  and  C_13
REMARK    8  A    between atoms: C_16  and  S_17
REMARK    9  A    between atoms: S_17  and  N_20
REMARK   10  A    between atoms: N_20  and  C_21
REMARK   11  A    between atoms: N_20  and  C_23
REMARK   12  A    between atoms: C_21  and  C_22
REMARK   13  A    between atoms: C_23  and  C_24
REMARK                            x       y       z     vdW  Elec       q    Type
REMARK                         _______ _______ _______ _____ _____    ______ ____
ROOT
ATOM      1  C   UNL     1       3.784   5.551  18.463  0.00  0.00    +0.000 A 
ATOM      2  C   UNL     1       3.014   5.607  19.621  0.00  0.00    +0.000 A 
ATOM      3  C   UNL     1       2.220   6.733  19.861  0.00  0.00    +0.000 A 
ATOM      4  C   UNL     1       2.204   7.829  18.971  0.00  0.00    +0.000 A 
ATOM      5  C   UNL     1       2.966   7.718  17.791  0.00  0.00    +0.000 A 
ATOM      6  C   UNL     1       3.750   6.592  17.535  0.00  0.00    +0.000 A 
ENDROOT
BRANCH   4   7
ATOM      7  C   UNL     1       1.465   9.072  19.280  0.00  0.00    +0.000 A 
ATOM      8  C   UNL     1       0.655   9.165  20.425  0.00  0.00    +0.000 A 
ATOM      9  C   UNL     1      -0.045  10.332  20.734  0.00  0.00    +0.000 A 
ATOM     10  C   UNL     1       0.059  11.450  19.902  0.00  0.00    +0.000 A 
ATOM     11  C   UNL     1       0.836  11.379  18.747  0.00  0.00    +0.000 A 
ATOM     12  C   UNL     1       1.547  10.210  18.454  0.00  0.00    +0.000 A 
BRANCH  10  13
ATOM     13  S   UNL     1      -1.059  12.807  20.155  0.00  0.00    +0.000 S 
ATOM     14  O   UNL     1      -1.399  12.794  21.561  0.00  0.00    +0.000 OA
ATOM     15  O   UNL     1      -0.420  13.964  19.563  0.00  0.00    +0.000 OA
BRANCH  13  16
ATOM     16  N   UNL     1      -2.543  12.514  19.275  0.00  0.00    +0.000 NA
BRANCH  16  17
ATOM     17  C   UNL     1      -2.565  11.184  18.565  0.00  0.00    +0.000 C 
ATOM     18  C   UNL     1      -2.423  11.266  17.050  0.00  0.00    +0.000 C 
ENDBRANCH  16  17
BRANCH  16  19
ATOM     19  C   UNL     1      -3.724  12.605  20.227  0.00  0.00    +0.000 C 
ATOM     20  C   UNL     1      -5.090  12.607  19.562  0.00  0.00    +0.000 C 
ENDBRANCH  16  19
ENDBRANCH  13  16
ENDBRANCH  10  13
ENDBRANCH   4   7
BRANCH   1  21
ATOM     21  S   UNL     1       4.905   4.197  18.216  0.00  0.00    +0.000 S 
ATOM     22  O   UNL     1       4.129   3.089  17.699  0.00  0.00    +0.000 OA
ATOM     23  O   UNL     1       5.703   4.059  19.411  0.00  0.00    +0.000 OA
BRANCH  21  24
ATOM     24  N   UNL     1       5.961   4.747  16.964  0.00  0.00    +0.000 NA
BRANCH  24  26
ATOM     25  C   UNL     1       7.500   6.620  17.672  0.00  0.00    +0.000 C 
ATOM     26  C   UNL     1       7.320   5.126  17.460  0.00  0.00    +0.000 C 
ENDBRANCH  24  26
BRANCH  24  27
ATOM     27  C   UNL     1       5.942   3.858  15.760  0.00  0.00    +0.000 C 
ATOM     28  C   UNL     1       6.685   4.439  14.567  0.00  0.00    +0.000 C 
ENDBRANCH  24  27
ENDBRANCH  21  24
ENDBRANCH   1  21
TORSDOF 9
ENDMDL
MODEL 4
REMARK VINA RESULT:      -7.1      0.445      1.254
REMARK  Name = 
REMARK  13 active torsions:
REMARK  status: ('A' for Active; 'I' for Inactive)
REMARK    1  A    between atoms: C_1  and  C_2
REMARK    2  A    between atoms: C_2  and  N_3
REMARK    3  A    between atoms: N_3  and  C_4
REMARK    4  A    between atoms: N_3  and  S_6
REMARK    5  A    between atoms: C_4  and  C_5
REMARK    6  A    between atoms: S_6  and  C_9
REMARK    7  A    between atoms: C_12  and  C_13
REMARK    8  A    between atoms: C_16  and  S_17
REMARK    9  A    between atoms: S_17  and  N_20
REMARK   10  A    between atoms: N_20  and  C_21
REMARK   11  A    between atoms: N_20  and  C_23
REMARK   12  A    between atoms: C_21  and  C_22
REMARK   13  A    between atoms: C_23  and  C_24
REMARK                            x       y       z     vdW  Elec       q    Type
REMARK                         _______ _______ _______ _____ _____    ______ ____
ROOT
ATOM      1  C   UNL     1       3.662   5.387  18.497  0.00  0.00    +0.000 A 
ATOM      2  C   UNL     1       2.903   5.411  19.664  0.00  0.00    +0.000 A 
ATOM      3  C   UNL     1       2.166   6.557  19.977  0.00  0.00    +0.000 A 
ATOM      4  C   UNL     1       2.195   7.702  19.153  0.00  0.00    +0.000 A 
ATOM      5  C   UNL     1       2.943   7.626  17.961  0.00  0.00    +0.000 A 
ATOM      6  C   UNL     1       3.671   6.481  17.632  0.00  0.00    +0.000 A 
ENDROOT
BRANCH   4   7
ATOM      7  C   UNL     1       1.518   8.959  19.541  0.00  0.00    +0.000 A 
ATOM      8  C   UNL     1       1.308   9.985  18.602  0.00  0.00    +0.000 A 
ATOM      9  C   UNL     1       0.668  11.175  18.950  0.00  0.00    +0.000 A 
ATOM     10  C   UNL     1       0.207  11.365  20.255  0.00  0.00    +0.000 A 
ATOM     11  C   UNL     1       0.422  10.375  21.212  0.00  0.00    +0.000 A 
ATOM     12  C   UNL     1       1.051   9.178  20.850  0.00  0.00    +0.000 A 
BRANCH  10  13
ATOM     13  S   UNL     1      -0.336  12.985  20.740  0.00  0.00    +0.000 S 
ATOM     14  O   UNL     1       0.253  13.237  22.038  0.00  0.00    +0.000 OA
ATOM     15  O   UNL     1      -0.043  13.855  19.620  0.00  0.00    +0.000 OA
BRANCH  13  16
ATOM     16  N   UNL     1      -2.071  12.977  20.968  0.00  0.00    +0.000 NA
BRANCH  16  17
ATOM     17  C   UNL     1      -2.822  12.367  19.812  0.00  0.00    +0.000 C 
ATOM     18  C   UNL     1      -4.336  12.530  19.875  0.00  0.00    +0.000 C 
ENDBRANCH  16  17
BRANCH  16  19
ATOM     19  C   UNL     1      -2.412  12.235  22.249  0.00  0.00    +0.000 C 
ATOM     20  C   UNL     1      -3.021  13.090  23.346  0.00  0.00    +0.000 C 
ENDBRANCH  16  19
ENDBRANCH  13  16
ENDBRANCH  10  13
ENDBRANCH   4   7
BRANCH   1  21
ATOM     21  S   UNL     1       4.715   3.999  18.161  0.00  0.00    +0.000 S 
ATOM     22  O   UNL     1       3.912   3.010  17.473  0.00  0.00    +0.000 OA
ATOM     23  O   UNL     1       5.422   3.674  19.376  0.00  0.00    +0.000 OA
BRANCH  21  24
ATOM     24  N   UNL     1       5.883   4.616  17.046  0.00  0.00    +0.000 NA
BRANCH  24  26
ATOM     25  C   UNL     1       7.500   6.324  17.967  0.00  0.00    +0.000 C 
ATOM     26  C   UNL     1       7.222   4.860  17.666  0.00  0.00    +0.000 C 
ENDBRANCH  24  26
BRANCH  24  27
ATOM     27  C   UNL     1       5.902   3.862  15.753  0.00  0.00    +0.000 C 
ATOM     28  C   UNL     1       6.384   4.695  14.574  0.00  0.00    +0.000 C 
ENDBRANCH  24  27
ENDBRANCH  21  24
ENDBRANCH   1  21
TORSDOF 9
ENDMDL
MODEL 5
REMARK VINA RESULT:      -7.1      1.110     10.206
REMARK  Name = 
REMARK  13 active torsions:
REMARK  status: ('A' for Active; 'I' for Inactive)
REMARK    1  A    between atoms: C_1  and  C_2
REMARK    2  A    between atoms: C_2  and  N_3
REMARK    3  A    between atoms: N_3  and  C_4
REMARK    4  A    between atoms: N_3  and  S_6
REMARK    5  A    between atoms: C_4  and  C_5
REMARK    6  A    between atoms: S_6  and  C_9
REMARK    7  A    between atoms: C_12  and  C_13
REMARK    8  A    between atoms: C_16  and  S_17
REMARK    9  A    between atoms: S_17  and  N_20
REMARK   10  A    between atoms: N_20  and  C_21
REMARK   11  A    between atoms: N_20  and  C_23
REMARK   12  A    between atoms: C_21  and  C_22
REMARK   13  A    between atoms: C_23  and  C_24
REMARK                            x       y       z     vdW  Elec       q    Type
REMARK                         _______ _______ _______ _____ _____    ______ ____
ROOT
ATOM      1  C   UNL     1      -0.223  10.851  21.296  0.00  0.00    +0.000 A 
ATOM      2  C   UNL     1       0.240  10.941  19.986  0.00  0.00    +0.000 A 
ATOM      3  C   UNL     1       0.925   9.858  19.426  0.00  0.00    +0.000 A 
ATOM      4  C   UNL     1       1.183   8.684  20.166  0.00  0.00    +0.000 A 
ATOM      5  C   UNL     1       0.665   8.614  21.474  0.00  0.00    +0.000 A 
ATOM      6  C   UNL     1      -0.032   9.685  22.038  0.00  0.00    +0.000 A 
ENDROOT
BRANCH   4   7
ATOM      7  C   UNL     1       2.013   7.587  19.622  0.00  0.00    +0.000 A 
ATOM      8  C   UNL     1       2.103   6.352  20.289  0.00  0.00    +0.000 A 
ATOM      9  C   UNL     1       2.877   5.304  19.788  0.00  0.00    +0.000 A 
ATOM     10  C   UNL     1       3.577   5.465  18.590  0.00  0.00    +0.000 A 
ATOM     11  C   UNL     1       3.525   6.685  17.919  0.00  0.00    +0.000 A 
ATOM     12  C   UNL     1       2.734   7.725  18.421  0.00  0.00    +0.000 A 
BRANCH  10  13
ATOM     13  S   UNL     1       4.774   4.235  18.131  0.00  0.00    +0.000 S 
ATOM     14  O   UNL     1       5.626   4.050  19.285  0.00  0.00    +0.000 OA
ATOM     15  O   UNL     1       4.016   3.124  17.592  0.00  0.00    +0.000 OA
BRANCH  13  16
ATOM     16  N   UNL     1       5.789   4.856  16.849  0.00  0.00    +0.000 NA
BRANCH  16  17
ATOM     17  C   UNL     1       7.180   5.214  17.308  0.00  0.00    +0.000 C 
ATOM     18  C   UNL     1       7.398   6.695  17.594  0.00  0.00    +0.000 C 
ENDBRANCH  16  17
BRANCH  16  19
ATOM     19  C   UNL     1       5.869   3.837  15.724  0.00  0.00    +0.000 C 
ATOM     20  C   UNL     1       6.561   4.322  14.462  0.00  0.00    +0.000 C 
ENDBRANCH  16  19
ENDBRANCH  13  16
ENDBRANCH  10  13
ENDBRANCH   4   7
BRANCH   1  21
ATOM     21  S   UNL     1      -0.963  12.267  22.068  0.00  0.00    +0.000 S 
ATOM     22  O   UNL     1       0.117  13.121  22.516  0.00  0.00    +0.000 OA
ATOM     23  O   UNL     1      -1.973  11.795  22.983  0.00  0.00    +0.000 OA
BRANCH  21  24
ATOM     24  N   UNL     1      -1.784  13.069  20.777  0.00  0.00    +0.000 NA
BRANCH  24  26
ATOM     25  C   UNL     1      -4.149  13.928  20.998  0.00  0.00    +0.000 C 
ATOM     26  C   UNL     1      -3.243  12.742  20.710  0.00  0.00    +0.000 C 
ENDBRANCH  24  26
BRANCH  24  27
ATOM     27  C   UNL     1      -1.448  14.526  20.695  0.00  0.00    +0.000 C 
ATOM     28  C   UNL     1      -0.604  14.884  19.482  0.00  0.00    +0.000 C 
ENDBRANCH  24  27
ENDBRANCH  21  24
ENDBRANCH   1  21
TORSDOF 9
ENDMDL
MODEL 6
REMARK VINA RESULT:      -7.0      1.298      2.028
REMARK  Name = 
REMARK  13 active torsions:
REMARK  status: ('A' for Active; 'I' for Inactive)
REMARK    1  A    between atoms: C_1  and  C_2
REMARK    2  A    between atoms: C_2  and  N_3
REMARK    3  A    between atoms: N_3  and  C_4
REMARK    4  A    between atoms: N_3  and  S_6
REMARK    5  A    between atoms: C_4  and  C_5
REMARK    6  A    between atoms: S_6  and  C_9
REMARK    7  A    between atoms: C_12  and  C_13
REMARK    8  A    between atoms: C_16  and  S_17
REMARK    9  A    between atoms: S_17  and  N_20
REMARK   10  A    between atoms: N_20  and  C_21
REMARK   11  A    between atoms: N_20  and  C_23
REMARK   12  A    between atoms: C_21  and  C_22
REMARK   13  A    between atoms: C_23  and  C_24
REMARK                            x       y       z     vdW  Elec       q    Type
REMARK                         _______ _______ _______ _____ _____    ______ ____
ROOT
ATOM      1  C   UNL     1       3.748   5.781  18.488  0.00  0.00    +0.000 A 
ATOM      2  C   UNL     1       3.774   6.887  17.644  0.00  0.00    +0.000 A 
ATOM      3  C   UNL     1       3.001   8.009  17.960  0.00  0.00    +0.000 A 
ATOM      4  C   UNL     1       2.171   8.036  19.102  0.00  0.00    +0.000 A 
ATOM      5  C   UNL     1       2.202   6.914  19.953  0.00  0.00    +0.000 A 
ATOM      6  C   UNL     1       2.981   5.795  19.654  0.00  0.00    +0.000 A 
ENDROOT
BRANCH   4   7
ATOM      7  C   UNL     1       1.259   9.167  19.375  0.00  0.00    +0.000 A 
ATOM      8  C   UNL     1       0.492   9.207  20.553  0.00  0.00    +0.000 A 
ATOM      9  C   UNL     1      -0.371  10.269  20.829  0.00  0.00    +0.000 A 
ATOM     10  C   UNL     1      -0.479  11.333  19.930  0.00  0.00    +0.000 A 
ATOM     11  C   UNL     1       0.251  11.309  18.743  0.00  0.00    +0.000 A 
ATOM     12  C   UNL     1       1.126  10.248  18.482  0.00  0.00    +0.000 A 
BRANCH  10  13
ATOM     13  S   UNL     1      -1.786  12.513  20.160  0.00  0.00    +0.000 S 
ATOM     14  O   UNL     1      -1.956  12.655  21.590  0.00  0.00    +0.000 OA
ATOM     15  O   UNL     1      -1.436  13.658  19.345  0.00  0.00    +0.000 OA
BRANCH  13  16
ATOM     16  N   UNL     1      -3.284  11.857  19.537  0.00  0.00    +0.000 NA
BRANCH  16  17
ATOM     17  C   UNL     1      -4.469  12.766  19.747  0.00  0.00    +0.000 C 
ATOM     18  C   UNL     1      -5.447  12.304  20.821  0.00  0.00    +0.000 C 
ENDBRANCH  16  17
BRANCH  16  19
ATOM     19  C   UNL     1      -3.129  11.554  18.056  0.00  0.00    +0.000 C 
ATOM     20  C   UNL     1      -3.241  10.085  17.683  0.00  0.00    +0.000 C 
ENDBRANCH  16  19
ENDBRANCH  13  16
ENDBRANCH  10  13
ENDBRANCH   4   7
BRANCH   1  21
ATOM     21  S   UNL     1       4.608   4.299  18.025  0.00  0.00    +0.000 S 
ATOM     22  O   UNL     1       3.687   3.498  17.247  0.00  0.00    +0.000 OA
ATOM     23  O   UNL     1       5.246   3.770  19.206  0.00  0.00    +0.000 OA
BRANCH  21  24
ATOM     24  N   UNL     1       5.863   4.851  16.975  0.00  0.00    +0.000 NA
BRANCH  24  26
ATOM     25  C   UNL     1       7.566   6.121  18.343  0.00  0.00    +0.000 C 
ATOM     26  C   UNL     1       7.217   4.834  17.611  0.00  0.00    +0.000 C 
ENDBRANCH  24  26
BRANCH  24  27
ATOM     27  C   UNL     1       5.788   4.238  15.611  0.00  0.00    +0.000 C 
ATOM     28  C   UNL     1       6.932   4.651  14.698  0.00  0.00    +0.000 C 
ENDBRANCH  24  27
ENDBRANCH  21  24
ENDBRANCH   1  21
TORSDOF 9
ENDMDL
MODEL 7
REMARK VINA RESULT:      -7.0      1.131     10.125
REMARK  Name = 
REMARK  13 active torsions:
REMARK  status: ('A' for Active; 'I' for Inactive)
REMARK    1  A    between atoms: C_1  and  C_2
REMARK    2  A    between atoms: C_2  and  N_3
REMARK    3  A    between atoms: N_3  and  C_4
REMARK    4  A    between atoms: N_3  and  S_6
REMARK    5  A    between atoms: C_4  and  C_5
REMARK    6  A    between atoms: S_6  and  C_9
REMARK    7  A    between atoms: C_12  and  C_13
REMARK    8  A    between atoms: C_16  and  S_17
REMARK    9  A    between atoms: S_17  and  N_20
REMARK   10  A    between atoms: N_20  and  C_21
REMARK   11  A    between atoms: N_20  and  C_23
REMARK   12  A    between atoms: C_21  and  C_22
REMARK   13  A    between atoms: C_23  and  C_24
REMARK                            x       y       z     vdW  Elec       q    Type
REMARK                         _______ _______ _______ _____ _____    ______ ____
ROOT
ATOM      1  C   UNL     1      -0.319  10.777  21.181  0.00  0.00    +0.000 A 
ATOM      2  C   UNL     1       0.153  10.820  19.872  0.00  0.00    +0.000 A 
ATOM      3  C   UNL     1       0.882   9.737  19.371  0.00  0.00    +0.000 A 
ATOM      4  C   UNL     1       1.176   8.611  20.170  0.00  0.00    +0.000 A 
ATOM      5  C   UNL     1       0.648   8.586  21.476  0.00  0.00    +0.000 A 
ATOM      6  C   UNL     1      -0.093   9.656  21.981  0.00  0.00    +0.000 A 
ENDROOT
BRANCH   4   7
ATOM      7  C   UNL     1       2.050   7.520  19.687  0.00  0.00    +0.000 A 
ATOM      8  C   UNL     1       2.743   7.636  18.469  0.00  0.00    +0.000 A 
ATOM      9  C   UNL     1       3.575   6.618  18.001  0.00  0.00    +0.000 A 
ATOM     10  C   UNL     1       3.746   5.453  18.753  0.00  0.00    +0.000 A 
ATOM     11  C   UNL     1       3.054   5.301  19.953  0.00  0.00    +0.000 A 
ATOM     12  C   UNL     1       2.234   6.334  20.423  0.00  0.00    +0.000 A 
BRANCH  10  13
ATOM     13  S   UNL     1       4.568   4.068  18.006  0.00  0.00    +0.000 S 
ATOM     14  O   UNL     1       5.173   3.324  19.089  0.00  0.00    +0.000 OA
ATOM     15  O   UNL     1       3.588   3.443  17.142  0.00  0.00    +0.000 OA
BRANCH  13  16
ATOM     16  N   UNL     1       5.877   4.640  16.995  0.00  0.00    +0.000 NA
BRANCH  16  17
ATOM     17  C   UNL     1       7.215   4.638  17.692  0.00  0.00    +0.000 C 
ATOM     18  C   UNL     1       7.584   5.951  18.372  0.00  0.00    +0.000 C 
ENDBRANCH  16  17
BRANCH  16  19
ATOM     19  C   UNL     1       5.955   3.793  15.736  0.00  0.00    +0.000 C 
ATOM     20  C   UNL     1       6.015   4.575  14.436  0.00  0.00    +0.000 C 
ENDBRANCH  16  19
ENDBRANCH  13  16
ENDBRANCH  10  13
ENDBRANCH   4   7
BRANCH   1  21
ATOM     21  S   UNL     1      -1.117  12.200  21.877  0.00  0.00    +0.000 S 
ATOM     22  O   UNL     1      -0.076  13.065  22.391  0.00  0.00    +0.000 OA
ATOM     23  O   UNL     1      -2.191  11.737  22.723  0.00  0.00    +0.000 OA
BRANCH  21  24
ATOM     24  N   UNL     1      -1.844  12.982  20.518  0.00  0.00    +0.000 NA
BRANCH  24  26
ATOM     25  C   UNL     1      -3.996  14.234  20.947  0.00  0.00    +0.000 C 
ATOM     26  C   UNL     1      -3.339  12.926  20.534  0.00  0.00    +0.000 C 
ENDBRANCH  24  26
BRANCH  24  27
ATOM     27  C   UNL     1      -1.255  14.330  20.243  0.00  0.00    +0.000 C 
ATOM     28  C   UNL     1      -0.395  14.370  18.989  0.00  0.00    +0.000 C 
ENDBRANCH  24  27
ENDBRANCH  21  24
ENDBRANCH   1  21
TORSDOF 9
ENDMDL
MODEL 8
REMARK VINA RESULT:      -7.0      1.735      2.402
REMARK  Name = 
REMARK  13 active torsions:
REMARK  status: ('A' for Active; 'I' for Inactive)
REMARK    1  A    between atoms: C_1  and  C_2
REMARK    2  A    between atoms: C_2  and  N_3
REMARK    3  A    between atoms: N_3  and  C_4
REMARK    4  A    between atoms: N_3  and  S_6
REMARK    5  A    between atoms: C_4  and  C_5
REMARK    6  A    between atoms: S_6  and  C_9
REMARK    7  A    between atoms: C_12  and  C_13
REMARK    8  A    between atoms: C_16  and  S_17
REMARK    9  A    between atoms: S_17  and  N_20
REMARK   10  A    between atoms: N_20  and  C_21
REMARK   11  A    between atoms: N_20  and  C_23
REMARK   12  A    between atoms: C_21  and  C_22
REMARK   13  A    between atoms: C_23  and  C_24
REMARK                            x       y       z     vdW  Elec       q    Type
REMARK                         _______ _______ _______ _____ _____    ______ ____
ROOT
ATOM      1  C   UNL     1       3.860   5.591  18.480  0.00  0.00    +0.000 A 
ATOM      2  C   UNL     1       3.864   6.660  17.588  0.00  0.00    +0.000 A 
ATOM      3  C   UNL     1       3.067   7.778  17.856  0.00  0.00    +0.000 A 
ATOM      4  C   UNL     1       2.238   7.838  18.996  0.00  0.00    +0.000 A 
ATOM      5  C   UNL     1       2.290   6.755  19.896  0.00  0.00    +0.000 A 
ATOM      6  C   UNL     1       3.092   5.640  19.645  0.00  0.00    +0.000 A 
ENDROOT
BRANCH   4   7
ATOM      7  C   UNL     1       1.302   8.961  19.221  0.00  0.00    +0.000 A 
ATOM      8  C   UNL     1       1.090   9.476  20.511  0.00  0.00    +0.000 A 
ATOM      9  C   UNL     1       0.214  10.539  20.741  0.00  0.00    +0.000 A 
ATOM     10  C   UNL     1      -0.468  11.125  19.672  0.00  0.00    +0.000 A 
ATOM     11  C   UNL     1      -0.295  10.620  18.384  0.00  0.00    +0.000 A 
ATOM     12  C   UNL     1       0.598   9.565  18.162  0.00  0.00    +0.000 A 
BRANCH  10  13
ATOM     13  S   UNL     1      -1.782  12.267  20.022  0.00  0.00    +0.000 S 
ATOM     14  O   UNL     1      -2.757  12.098  18.967  0.00  0.00    +0.000 OA
ATOM     15  O   UNL     1      -2.148  12.040  21.405  0.00  0.00    +0.000 OA
BRANCH  13  16
ATOM     16  N   UNL     1      -1.182  13.906  19.896  0.00  0.00    +0.000 NA
BRANCH  16  17
ATOM     17  C   UNL     1      -0.438  14.367  21.124  0.00  0.00    +0.000 C 
ATOM     18  C   UNL     1      -1.031  15.593  21.808  0.00  0.00    +0.000 C 
ENDBRANCH  16  17
BRANCH  16  19
ATOM     19  C   UNL     1      -0.281  14.025  18.678  0.00  0.00    +0.000 C 
ATOM     20  C   UNL     1       1.175  14.334  18.981  0.00  0.00    +0.000 C 
ENDBRANCH  16  19
ENDBRANCH  13  16
ENDBRANCH  10  13
ENDBRANCH   4   7
BRANCH   1  21
ATOM     21  S   UNL     1       4.749   4.108  18.081  0.00  0.00    +0.000 S 
ATOM     22  O   UNL     1       3.870   3.287  17.276  0.00  0.00    +0.000 OA
ATOM     23  O   UNL     1       5.337   3.603  19.298  0.00  0.00    +0.000 OA
BRANCH  21  24
ATOM     24  N   UNL     1       6.047   4.652  17.079  0.00  0.00    +0.000 NA
BRANCH  24  26
ATOM     25  C   UNL     1       7.622   6.132  18.386  0.00  0.00    +0.000 C 
ATOM     26  C   UNL     1       7.352   4.754  17.804  0.00  0.00    +0.000 C 
ENDBRANCH  24  26
BRANCH  24  27
ATOM     27  C   UNL     1       6.098   3.941  15.763  0.00  0.00    +0.000 C 
ATOM     28  C   UNL     1       6.867   4.702  14.693  0.00  0.00    +0.000 C 
ENDBRANCH  24  27
ENDBRANCH  21  24
ENDBRANCH   1  21
TORSDOF 9
ENDMDL
MODEL 9
REMARK VINA RESULT:      -6.9      1.349      1.964
REMARK  Name = 
REMARK  13 active torsions:
REMARK  status: ('A' for Active; 'I' for Inactive)
REMARK    1  A    between atoms: C_1  and  C_2
REMARK    2  A    between atoms: C_2  and  N_3
REMARK    3  A    between atoms: N_3  and  C_4
REMARK    4  A    between atoms: N_3  and  S_6
REMARK    5  A    between atoms: C_4  and  C_5
REMARK    6  A    between atoms: S_6  and  C_9
REMARK    7  A    between atoms: C_12  and  C_13
REMARK    8  A    between atoms: C_16  and  S_17
REMARK    9  A    between atoms: S_17  and  N_20
REMARK   10  A    between atoms: N_20  and  C_21
REMARK   11  A    between atoms: N_20  and  C_23
REMARK   12  A    between atoms: C_21  and  C_22
REMARK   13  A    between atoms: C_23  and  C_24
REMARK                            x       y       z     vdW  Elec       q    Type
REMARK                         _______ _______ _______ _____ _____    ______ ____
ROOT
ATOM      1  C   UNL     1       3.178   5.468  18.909  0.00  0.00    +0.000 A 
ATOM      2  C   UNL     1       2.504   5.293  20.114  0.00  0.00    +0.000 A 
ATOM      3  C   UNL     1       1.775   6.359  20.652  0.00  0.00    +0.000 A 
ATOM      4  C   UNL     1       1.729   7.618  20.016  0.00  0.00    +0.000 A 
ATOM      5  C   UNL     1       2.390   7.745  18.778  0.00  0.00    +0.000 A 
ATOM      6  C   UNL     1       3.109   6.683  18.225  0.00  0.00    +0.000 A 
ENDROOT
BRANCH   4   7
ATOM      7  C   UNL     1       1.064   8.783  20.640  0.00  0.00    +0.000 A 
ATOM      8  C   UNL     1       0.354   8.647  21.845  0.00  0.00    +0.000 A 
ATOM      9  C   UNL     1      -0.276   9.736  22.450  0.00  0.00    +0.000 A 
ATOM     10  C   UNL     1      -0.198  11.002  21.864  0.00  0.00    +0.000 A 
ATOM     11  C   UNL     1       0.480  11.161  20.657  0.00  0.00    +0.000 A 
ATOM     12  C   UNL     1       1.121  10.067  20.066  0.00  0.00    +0.000 A 
BRANCH  10  13
ATOM     13  S   UNL     1      -1.241  12.296  22.490  0.00  0.00    +0.000 S 
ATOM     14  O   UNL     1      -2.347  11.640  23.151  0.00  0.00    +0.000 OA
ATOM     15  O   UNL     1      -0.369  13.188  23.227  0.00  0.00    +0.000 OA
BRANCH  13  16
ATOM     16  N   UNL     1      -1.917  13.201  21.153  0.00  0.00    +0.000 NA
BRANCH  16  17
ATOM     17  C   UNL     1      -3.064  12.496  20.475  0.00  0.00    +0.000 C 
ATOM     18  C   UNL     1      -2.748  11.946  19.089  0.00  0.00    +0.000 C 
ENDBRANCH  16  17
BRANCH  16  19
ATOM     19  C   UNL     1      -2.373  14.566  21.642  0.00  0.00    +0.000 C 
ATOM     20  C   UNL     1      -3.875  14.727  21.797  0.00  0.00    +0.000 C 
ENDBRANCH  16  19
ENDBRANCH  13  16
ENDBRANCH  10  13
ENDBRANCH   4   7
BRANCH   1  21
ATOM     21  S   UNL     1       4.223   4.175  18.289  0.00  0.00    +0.000 S 
ATOM     22  O   UNL     1       3.499   3.513  17.226  0.00  0.00    +0.000 OA
ATOM     23  O   UNL     1       4.734   3.438  19.420  0.00  0.00    +0.000 OA
BRANCH  21  24
ATOM     24  N   UNL     1       5.561   5.015  17.588  0.00  0.00    +0.000 NA
BRANCH  24  26
ATOM     25  C   UNL     1       7.555   6.454  18.166  0.00  0.00    +0.000 C 
ATOM     26  C   UNL     1       6.666   5.285  18.559  0.00  0.00    +0.000 C 
ENDBRANCH  24  26
BRANCH  24  27
ATOM     27  C   UNL     1       5.987   4.431  16.277  0.00  0.00    +0.000 C 
ATOM     28  C   UNL     1       5.688   5.332  15.088  0.00  0.00    +0.000 C 
ENDBRANCH  24  27
ENDBRANCH  21  24
ENDBRANCH   1  21
TORSDOF 9
ENDMDL
