MODEL 1
REMARK VINA RESULT:      -7.7      0.000      0.000
REMARK  Name = 
REMARK  6 active torsions:
REMARK  status: ('A' for Active; 'I' for Inactive)
REMARK    1  A    between atoms: C_1  and  O_2
REMARK    2  A    between atoms: O_2  and  C_3
REMARK    3  A    between atoms: N_12  and  C_13
REMARK    4  A    between atoms: C_15  and  C_16
REMARK    5  A    between atoms: C_16  and  O_17
REMARK    6  A    between atoms: C_20  and  O_21
REMARK                            x       y       z     vdW  Elec       q    Type
REMARK                         _______ _______ _______ _____ _____    ______ ____
ROOT
ATOM      1  C   UNL     1       7.169   6.853  17.870  0.00  0.00    +0.000 A 
ATOM      2  N   UNL     1       8.089   6.384  18.738  0.00  0.00    +0.000 NA
ATOM      3  C   UNL     1       7.686   5.532  19.693  0.00  0.00    +0.000 A 
ATOM      4  N   UNL     1       8.661   5.104  20.575  0.00  0.00    +0.000 N 
ATOM      5  N   UNL     1       6.436   5.093  19.907  0.00  0.00    +0.000 NA
ATOM      6  C   UNL     1       5.551   5.587  19.027  0.00  0.00    +0.000 A 
ATOM      7  C   UNL     1       5.839   6.465  17.993  0.00  0.00    +0.000 A 
ATOM      8  C   UNL     1       4.626   6.719  17.302  0.00  0.00    +0.000 A 
ATOM      9  C   UNL     1       3.638   5.983  17.920  0.00  0.00    +0.000 A 
ATOM     10  N   UNL     1       4.204   5.307  18.977  0.00  0.00    +0.000 N 
ATOM     11  H   UNL     1       9.409   5.784  20.592  0.00  0.00    +0.000 HD
ATOM     12  H   UNL     1       8.229   4.879  21.460  0.00  0.00    +0.000 HD
ENDROOT
BRANCH  10  13
ATOM     13  C   UNL     1       3.523   4.393  19.883  0.00  0.00    +0.000 C 
ATOM     14  O   UNL     1       3.394   3.097  19.242  0.00  0.00    +0.000 OA
ATOM     15  C   UNL     1       2.179   2.482  19.737  0.00  0.00    +0.000 C 
ATOM     16  C   UNL     1       1.531   3.483  20.682  0.00  0.00    +0.000 C 
ATOM     17  F   UNL     1       2.005   3.234  21.947  0.00  0.00    +0.000 F 
ATOM     18  C   UNL     1       2.101   4.817  20.247  0.00  0.00    +0.000 C 
BRANCH  18  19
ATOM     19  O   UNL     1       2.004   5.790  21.281  0.00  0.00    +0.000 OA
ATOM     20  H   UNL     1       1.086   6.125  21.283  0.00  0.00    +0.000 HD
ENDBRANCH  18  19
BRANCH  15  21
ATOM     21  C   UNL     1       1.292   2.116  18.547  0.00  0.00    +0.000 C 
BRANCH  21  22
ATOM     22  O   UNL     1       2.066   1.933  17.366  0.00  0.00    +0.000 OA
ATOM     23  H   UNL     1       1.730   2.571  16.710  0.00  0.00    +0.000 HD
ENDBRANCH  21  22
ENDBRANCH  15  21
ENDBRANCH  10  13
BRANCH   1  25
ATOM     24  C   UNL     1       8.001   8.979  17.401  0.00  0.00    +0.000 C 
ATOM     25  O   UNL     1       7.534   7.741  16.878  0.00  0.00    +0.000 OA
ENDBRANCH   1  25
TORSDOF 5
ENDMDL
MODEL 2
REMARK VINA RESULT:      -7.6      1.415      1.588
REMARK  Name = 
REMARK  6 active torsions:
REMARK  status: ('A' for Active; 'I' for Inactive)
REMARK    1  A    between atoms: C_1  and  O_2
REMARK    2  A    between atoms: O_2  and  C_3
REMARK    3  A    between atoms: N_12  and  C_13
REMARK    4  A    between atoms: C_15  and  C_16
REMARK    5  A    between atoms: C_16  and  O_17
REMARK    6  A    between atoms: C_20  and  O_21
REMARK                            x       y       z     vdW  Elec       q    Type
REMARK                         _______ _______ _______ _____ _____    ______ ____
ROOT
ATOM      1  C   UNL     1       7.008   5.581  16.848  0.00  0.00    +0.000 A 
ATOM      2  N   UNL     1       7.884   5.716  17.866  0.00  0.00    +0.000 NA
ATOM      3  C   UNL     1       7.477   5.387  19.101  0.00  0.00    +0.000 A 
ATOM      4  N   UNL     1       8.402   5.570  20.113  0.00  0.00    +0.000 N 
ATOM      5  N   UNL     1       6.261   4.946  19.460  0.00  0.00    +0.000 NA
ATOM      6  C   UNL     1       5.419   4.834  18.421  0.00  0.00    +0.000 A 
ATOM      7  C   UNL     1       5.716   5.132  17.099  0.00  0.00    +0.000 A 
ATOM      8  C   UNL     1       4.554   4.859  16.332  0.00  0.00    +0.000 A 
ATOM      9  C   UNL     1       3.589   4.392  17.196  0.00  0.00    +0.000 A 
ATOM     10  N   UNL     1       4.117   4.391  18.468  0.00  0.00    +0.000 N 
ATOM     11  H   UNL     1       9.076   6.264  19.820  0.00  0.00    +0.000 HD
ATOM     12  H   UNL     1       7.912   5.746  20.979  0.00  0.00    +0.000 HD
ENDROOT
BRANCH  10  13
ATOM     13  C   UNL     1       3.445   3.949  19.682  0.00  0.00    +0.000 C 
ATOM     14  O   UNL     1       2.915   2.614  19.472  0.00  0.00    +0.000 OA
ATOM     15  C   UNL     1       1.717   2.485  20.277  0.00  0.00    +0.000 C 
ATOM     16  C   UNL     1       1.500   3.827  20.961  0.00  0.00    +0.000 C 
ATOM     17  F   UNL     1       2.148   3.791  22.172  0.00  0.00    +0.000 F 
ATOM     18  C   UNL     1       2.248   4.809  20.084  0.00  0.00    +0.000 C 
BRANCH  18  19
ATOM     19  O   UNL     1       2.569   6.003  20.790  0.00  0.00    +0.000 OA
ATOM     20  H   UNL     1       3.283   6.452  20.297  0.00  0.00    +0.000 HD
ENDBRANCH  18  19
BRANCH  15  21
ATOM     21  C   UNL     1       0.556   2.077  19.371  0.00  0.00    +0.000 C 
BRANCH  21  22
ATOM     22  O   UNL     1       1.008   1.799  18.050  0.00  0.00    +0.000 OA
ATOM     23  H   UNL     1       0.832   0.854  17.886  0.00  0.00    +0.000 HD
ENDBRANCH  21  22
ENDBRANCH  15  21
ENDBRANCH  10  13
BRANCH   1  25
ATOM     24  C   UNL     1       7.241   4.832  14.654  0.00  0.00    +0.000 C 
ATOM     25  O   UNL     1       7.377   5.919  15.560  0.00  0.00    +0.000 OA
ENDBRANCH   1  25
TORSDOF 5
ENDMDL
MODEL 3
REMARK VINA RESULT:      -7.5      1.851      2.106
REMARK  Name = 
REMARK  6 active torsions:
REMARK  status: ('A' for Active; 'I' for Inactive)
REMARK    1  A    between atoms: C_1  and  O_2
REMARK    2  A    between atoms: O_2  and  C_3
REMARK    3  A    between atoms: N_12  and  C_13
REMARK    4  A    between atoms: C_15  and  C_16
REMARK    5  A    between atoms: C_16  and  O_17
REMARK    6  A    between atoms: C_20  and  O_21
REMARK                            x       y       z     vdW  Elec       q    Type
REMARK                         _______ _______ _______ _____ _____    ______ ____
ROOT
ATOM      1  C   UNL     1       7.446   7.275  17.742  0.00  0.00    +0.000 A 
ATOM      2  N   UNL     1       8.163   6.803  18.782  0.00  0.00    +0.000 NA
ATOM      3  C   UNL     1       7.806   5.626  19.318  0.00  0.00    +0.000 A 
ATOM      4  N   UNL     1       8.554   5.200  20.400  0.00  0.00    +0.000 N 
ATOM      5  N   UNL     1       6.779   4.848  18.944  0.00  0.00    +0.000 NA
ATOM      6  C   UNL     1       6.088   5.356  17.912  0.00  0.00    +0.000 A 
ATOM      7  C   UNL     1       6.356   6.553  17.266  0.00  0.00    +0.000 A 
ATOM      8  C   UNL     1       5.398   6.701  16.230  0.00  0.00    +0.000 A 
ATOM      9  C   UNL     1       4.583   5.590  16.261  0.00  0.00    +0.000 A 
ATOM     10  N   UNL     1       4.999   4.782  17.295  0.00  0.00    +0.000 N 
ATOM     11  H   UNL     1       8.984   6.004  20.838  0.00  0.00    +0.000 HD
ATOM     12  H   UNL     1       7.979   4.613  20.987  0.00  0.00    +0.000 HD
ENDROOT
BRANCH  10  13
ATOM     13  C   UNL     1       4.431   3.494  17.668  0.00  0.00    +0.000 C 
ATOM     14  O   UNL     1       3.105   3.374  17.088  0.00  0.00    +0.000 OA
ATOM     15  C   UNL     1       2.308   2.557  17.980  0.00  0.00    +0.000 C 
ATOM     16  C   UNL     1       3.191   2.214  19.171  0.00  0.00    +0.000 C 
ATOM     17  F   UNL     1       3.835   1.033  18.890  0.00  0.00    +0.000 F 
ATOM     18  C   UNL     1       4.242   3.304  19.172  0.00  0.00    +0.000 C 
BRANCH  18  19
ATOM     19  O   UNL     1       5.409   2.908  19.884  0.00  0.00    +0.000 OA
ATOM     20  H   UNL     1       5.662   3.649  20.469  0.00  0.00    +0.000 HD
ENDBRANCH  18  19
BRANCH  15  21
ATOM     21  C   UNL     1       1.050   3.332  18.368  0.00  0.00    +0.000 C 
BRANCH  21  22
ATOM     22  O   UNL     1       0.474   2.814  19.562  0.00  0.00    +0.000 OA
ATOM     23  H   UNL     1       0.633   1.853  19.556  0.00  0.00    +0.000 HD
ENDBRANCH  21  22
ENDBRANCH  15  21
ENDBRANCH  10  13
BRANCH   1  25
ATOM     24  C   UNL     1       8.351   9.394  18.093  0.00  0.00    +0.000 C 
ATOM     25  O   UNL     1       7.767   8.489  17.165  0.00  0.00    +0.000 OA
ENDBRANCH   1  25
TORSDOF 5
ENDMDL
MODEL 4
REMARK VINA RESULT:      -7.3      1.803      2.277
REMARK  Name = 
REMARK  6 active torsions:
REMARK  status: ('A' for Active; 'I' for Inactive)
REMARK    1  A    between atoms: C_1  and  O_2
REMARK    2  A    between atoms: O_2  and  C_3
REMARK    3  A    between atoms: N_12  and  C_13
REMARK    4  A    between atoms: C_15  and  C_16
REMARK    5  A    between atoms: C_16  and  O_17
REMARK    6  A    between atoms: C_20  and  O_21
REMARK                            x       y       z     vdW  Elec       q    Type
REMARK                         _______ _______ _______ _____ _____    ______ ____
ROOT
ATOM      1  C   UNL     1       6.762   7.103  17.368  0.00  0.00    +0.000 A 
ATOM      2  N   UNL     1       7.784   6.228  17.462  0.00  0.00    +0.000 NA
ATOM      3  C   UNL     1       7.496   4.935  17.678  0.00  0.00    +0.000 A 
ATOM      4  N   UNL     1       8.579   4.084  17.796  0.00  0.00    +0.000 N 
ATOM      5  N   UNL     1       6.278   4.395  17.836  0.00  0.00    +0.000 NA
ATOM      6  C   UNL     1       5.290   5.300  17.742  0.00  0.00    +0.000 A 
ATOM      7  C   UNL     1       5.452   6.658  17.514  0.00  0.00    +0.000 A 
ATOM      8  C   UNL     1       4.158   7.239  17.474  0.00  0.00    +0.000 A 
ATOM      9  C   UNL     1       3.245   6.224  17.664  0.00  0.00    +0.000 A 
ATOM     10  N   UNL     1       3.940   5.049  17.840  0.00  0.00    +0.000 N 
ATOM     11  H   UNL     1       9.389   4.620  18.080  0.00  0.00    +0.000 HD
ATOM     12  H   UNL     1       8.322   3.302  18.382  0.00  0.00    +0.000 HD
ENDROOT
BRANCH  10  13
ATOM     13  C   UNL     1       3.365   3.728  18.046  0.00  0.00    +0.000 C 
ATOM     14  O   UNL     1       1.917   3.837  18.064  0.00  0.00    +0.000 OA
ATOM     15  C   UNL     1       1.410   2.804  18.945  0.00  0.00    +0.000 C 
ATOM     16  C   UNL     1       2.619   2.076  19.513  0.00  0.00    +0.000 C 
ATOM     17  F   UNL     1       2.908   1.026  18.677  0.00  0.00    +0.000 F 
ATOM     18  C   UNL     1       3.746   3.078  19.375  0.00  0.00    +0.000 C 
BRANCH  18  19
ATOM     19  O   UNL     1       5.019   2.442  19.396  0.00  0.00    +0.000 OA
ATOM     20  H   UNL     1       5.686   3.112  19.152  0.00  0.00    +0.000 HD
ENDBRANCH  18  19
BRANCH  15  21
ATOM     21  C   UNL     1       0.540   3.456  20.019  0.00  0.00    +0.000 C 
BRANCH  21  22
ATOM     22  O   UNL     1       0.786   2.882  21.298  0.00  0.00    +0.000 OA
ATOM     23  H   UNL     1       0.580   3.568  21.958  0.00  0.00    +0.000 HD
ENDBRANCH  21  22
ENDBRANCH  15  21
ENDBRANCH  10  13
BRANCH   1  25
ATOM     24  C   UNL     1       8.105   8.923  17.927  0.00  0.00    +0.000 C 
ATOM     25  O   UNL     1       7.009   8.445  17.158  0.00  0.00    +0.000 OA
ENDBRANCH   1  25
TORSDOF 5
ENDMDL
MODEL 5
REMARK VINA RESULT:      -7.1      3.053      5.839
REMARK  Name = 
REMARK  6 active torsions:
REMARK  status: ('A' for Active; 'I' for Inactive)
REMARK    1  A    between atoms: C_1  and  O_2
REMARK    2  A    between atoms: O_2  and  C_3
REMARK    3  A    between atoms: N_12  and  C_13
REMARK    4  A    between atoms: C_15  and  C_16
REMARK    5  A    between atoms: C_16  and  O_17
REMARK    6  A    between atoms: C_20  and  O_21
REMARK                            x       y       z     vdW  Elec       q    Type
REMARK                         _______ _______ _______ _____ _____    ______ ____
ROOT
ATOM      1  C   UNL     1       1.964   3.007  19.861  0.00  0.00    +0.000 A 
ATOM      2  N   UNL     1       2.520   1.908  19.311  0.00  0.00    +0.000 NA
ATOM      3  C   UNL     1       3.585   2.066  18.511  0.00  0.00    +0.000 A 
ATOM      4  N   UNL     1       4.099   0.912  17.949  0.00  0.00    +0.000 N 
ATOM      5  N   UNL     1       4.170   3.224  18.167  0.00  0.00    +0.000 NA
ATOM      6  C   UNL     1       3.584   4.292  18.729  0.00  0.00    +0.000 A 
ATOM      7  C   UNL     1       2.486   4.265  19.576  0.00  0.00    +0.000 A 
ATOM      8  C   UNL     1       2.204   5.604  19.948  0.00  0.00    +0.000 A 
ATOM      9  C   UNL     1       3.138   6.409  19.334  0.00  0.00    +0.000 A 
ATOM     10  N   UNL     1       3.967   5.606  18.582  0.00  0.00    +0.000 N 
ATOM     11  H   UNL     1       3.373   0.208  17.924  0.00  0.00    +0.000 HD
ATOM     12  H   UNL     1       4.542   1.142  17.071  0.00  0.00    +0.000 HD
ENDROOT
BRANCH  10  13
ATOM     13  C   UNL     1       5.107   6.044  17.791  0.00  0.00    +0.000 C 
ATOM     14  O   UNL     1       4.841   5.782  16.388  0.00  0.00    +0.000 OA
ATOM     15  C   UNL     1       6.109   5.510  15.743  0.00  0.00    +0.000 C 
ATOM     16  C   UNL     1       7.176   5.566  16.827  0.00  0.00    +0.000 C 
ATOM     17  F   UNL     1       7.644   6.856  16.889  0.00  0.00    +0.000 F 
ATOM     18  C   UNL     1       6.409   5.309  18.107  0.00  0.00    +0.000 C 
BRANCH  18  19
ATOM     19  O   UNL     1       7.115   5.789  19.246  0.00  0.00    +0.000 OA
ATOM     20  H   UNL     1       7.919   6.241  18.924  0.00  0.00    +0.000 HD
ENDBRANCH  18  19
BRANCH  15  21
ATOM     21  C   UNL     1       6.027   4.151  15.049  0.00  0.00    +0.000 C 
BRANCH  21  22
ATOM     22  O   UNL     1       5.932   3.094  15.998  0.00  0.00    +0.000 OA
ATOM     23  H   UNL     1       5.462   3.454  16.772  0.00  0.00    +0.000 HD
ENDBRANCH  21  22
ENDBRANCH  15  21
ENDBRANCH  10  13
BRANCH   1  25
ATOM     24  C   UNL     1       1.208   2.592  22.026  0.00  0.00    +0.000 C 
ATOM     25  O   UNL     1       0.858   2.895  20.681  0.00  0.00    +0.000 OA
ENDBRANCH   1  25
TORSDOF 5
ENDMDL
MODEL 6
REMARK VINA RESULT:      -7.0      1.359      2.192
REMARK  Name = 
REMARK  6 active torsions:
REMARK  status: ('A' for Active; 'I' for Inactive)
REMARK    1  A    between atoms: C_1  and  O_2
REMARK    2  A    between atoms: O_2  and  C_3
REMARK    3  A    between atoms: N_12  and  C_13
REMARK    4  A    between atoms: C_15  and  C_16
REMARK    5  A    between atoms: C_16  and  O_17
REMARK    6  A    between atoms: C_20  and  O_21
REMARK                            x       y       z     vdW  Elec       q    Type
REMARK                         _______ _______ _______ _____ _____    ______ ____
ROOT
ATOM      1  C   UNL     1       7.512   7.079  17.816  0.00  0.00    +0.000 A 
ATOM      2  N   UNL     1       8.143   6.632  18.921  0.00  0.00    +0.000 NA
ATOM      3  C   UNL     1       7.564   5.652  19.631  0.00  0.00    +0.000 A 
ATOM      4  N   UNL     1       8.237   5.249  20.770  0.00  0.00    +0.000 N 
ATOM      5  N   UNL     1       6.387   5.059  19.378  0.00  0.00    +0.000 NA
ATOM      6  C   UNL     1       5.789   5.537  18.276  0.00  0.00    +0.000 A 
ATOM      7  C   UNL     1       6.283   6.538  17.453  0.00  0.00    +0.000 A 
ATOM      8  C   UNL     1       5.348   6.723  16.402  0.00  0.00    +0.000 A 
ATOM      9  C   UNL     1       4.320   5.827  16.602  0.00  0.00    +0.000 A 
ATOM     10  N   UNL     1       4.588   5.117  17.751  0.00  0.00    +0.000 N 
ATOM     11  H   UNL     1       8.837   6.003  21.080  0.00  0.00    +0.000 HD
ATOM     12  H   UNL     1       7.569   4.893  21.439  0.00  0.00    +0.000 HD
ENDROOT
BRANCH  10  13
ATOM     13  C   UNL     1       3.774   4.051  18.316  0.00  0.00    +0.000 C 
ATOM     14  O   UNL     1       2.453   4.570  18.620  0.00  0.00    +0.000 OA
ATOM     15  C   UNL     1       1.947   3.840  19.765  0.00  0.00    +0.000 C 
ATOM     16  C   UNL     1       3.041   2.872  20.189  0.00  0.00    +0.000 C 
ATOM     17  F   UNL     1       2.837   1.689  19.521  0.00  0.00    +0.000 F 
ATOM     18  C   UNL     1       4.308   3.486  19.632  0.00  0.00    +0.000 C 
BRANCH  18  19
ATOM     19  O   UNL     1       5.345   2.519  19.500  0.00  0.00    +0.000 OA
ATOM     20  H   UNL     1       5.204   1.843  20.191  0.00  0.00    +0.000 HD
ENDBRANCH  18  19
BRANCH  15  21
ATOM     21  C   UNL     1       1.569   4.838  20.858  0.00  0.00    +0.000 C 
BRANCH  21  22
ATOM     22  O   UNL     1       2.276   6.064  20.703  0.00  0.00    +0.000 OA
ATOM     23  H   UNL     1       2.845   6.161  21.487  0.00  0.00    +0.000 HD
ENDBRANCH  21  22
ENDBRANCH  15  21
ENDBRANCH  10  13
BRANCH   1  25
ATOM     24  C   UNL     1       8.181   9.311  17.786  0.00  0.00    +0.000 C 
ATOM     25  O   UNL     1       8.063   8.095  17.059  0.00  0.00    +0.000 OA
ENDBRANCH   1  25
TORSDOF 5
ENDMDL
MODEL 7
REMARK VINA RESULT:      -7.0      3.275      6.101
REMARK  Name = 
REMARK  6 active torsions:
REMARK  status: ('A' for Active; 'I' for Inactive)
REMARK    1  A    between atoms: C_1  and  O_2
REMARK    2  A    between atoms: O_2  and  C_3
REMARK    3  A    between atoms: N_12  and  C_13
REMARK    4  A    between atoms: C_15  and  C_16
REMARK    5  A    between atoms: C_16  and  O_17
REMARK    6  A    between atoms: C_20  and  O_21
REMARK                            x       y       z     vdW  Elec       q    Type
REMARK                         _______ _______ _______ _____ _____    ______ ____
ROOT
ATOM      1  C   UNL     1       1.632   3.996  20.214  0.00  0.00    +0.000 A 
ATOM      2  N   UNL     1       1.473   5.278  20.604  0.00  0.00    +0.000 NA
ATOM      3  C   UNL     1       2.290   6.206  20.084  0.00  0.00    +0.000 A 
ATOM      4  N   UNL     1       2.106   7.499  20.538  0.00  0.00    +0.000 N 
ATOM      5  N   UNL     1       3.290   6.004  19.212  0.00  0.00    +0.000 NA
ATOM      6  C   UNL     1       3.418   4.716  18.855  0.00  0.00    +0.000 A 
ATOM      7  C   UNL     1       2.637   3.665  19.311  0.00  0.00    +0.000 A 
ATOM      8  C   UNL     1       3.100   2.485  18.674  0.00  0.00    +0.000 A 
ATOM      9  C   UNL     1       4.136   2.845  17.841  0.00  0.00    +0.000 A 
ATOM     10  N   UNL     1       4.335   4.202  17.965  0.00  0.00    +0.000 N 
ATOM     11  H   UNL     1       1.660   7.468  21.445  0.00  0.00    +0.000 HD
ATOM     12  H   UNL     1       2.982   7.998  20.477  0.00  0.00    +0.000 HD
ENDROOT
BRANCH  10  13
ATOM     13  C   UNL     1       5.314   5.002  17.244  0.00  0.00    +0.000 C 
ATOM     14  O   UNL     1       4.979   5.004  15.832  0.00  0.00    +0.000 OA
ATOM     15  C   UNL     1       6.217   5.114  15.087  0.00  0.00    +0.000 C 
ATOM     16  C   UNL     1       7.346   5.130  16.107  0.00  0.00    +0.000 C 
ATOM     17  F   UNL     1       7.593   6.439  16.439  0.00  0.00    +0.000 F 
ATOM     18  C   UNL     1       6.743   4.467  17.328  0.00  0.00    +0.000 C 
BRANCH  18  19
ATOM     19  O   UNL     1       7.451   4.811  18.514  0.00  0.00    +0.000 OA
ATOM     20  H   UNL     1       8.182   5.405  18.257  0.00  0.00    +0.000 HD
ENDBRANCH  18  19
BRANCH  15  21
ATOM     21  C   UNL     1       6.308   3.945  14.107  0.00  0.00    +0.000 C 
BRANCH  21  22
ATOM     22  O   UNL     1       5.186   3.919  13.232  0.00  0.00    +0.000 OA
ATOM     23  H   UNL     1       4.421   4.234  13.747  0.00  0.00    +0.000 HD
ENDBRANCH  21  22
ENDBRANCH  15  21
ENDBRANCH  10  13
BRANCH   1  25
ATOM     24  C   UNL     1       1.363   2.421  21.911  0.00  0.00    +0.000 C 
ATOM     25  O   UNL     1       0.823   3.003  20.731  0.00  0.00    +0.000 OA
ENDBRANCH   1  25
TORSDOF 5
ENDMDL
MODEL 8
REMARK VINA RESULT:      -6.9      2.312      3.310
REMARK  Name = 
REMARK  6 active torsions:
REMARK  status: ('A' for Active; 'I' for Inactive)
REMARK    1  A    between atoms: C_1  and  O_2
REMARK    2  A    between atoms: O_2  and  C_3
REMARK    3  A    between atoms: N_12  and  C_13
REMARK    4  A    between atoms: C_15  and  C_16
REMARK    5  A    between atoms: C_16  and  O_17
REMARK    6  A    between atoms: C_20  and  O_21
REMARK                            x       y       z     vdW  Elec       q    Type
REMARK                         _______ _______ _______ _____ _____    ______ ____
ROOT
ATOM      1  C   UNL     1       7.040   5.948  16.811  0.00  0.00    +0.000 A 
ATOM      2  N   UNL     1       6.903   5.486  15.551  0.00  0.00    +0.000 NA
ATOM      3  C   UNL     1       5.871   4.673  15.281  0.00  0.00    +0.000 A 
ATOM      4  N   UNL     1       5.792   4.204  13.982  0.00  0.00    +0.000 N 
ATOM      5  N   UNL     1       4.942   4.234  16.143  0.00  0.00    +0.000 NA
ATOM      6  C   UNL     1       5.118   4.711  17.386  0.00  0.00    +0.000 A 
ATOM      7  C   UNL     1       6.135   5.561  17.794  0.00  0.00    +0.000 A 
ATOM      8  C   UNL     1       5.939   5.826  19.174  0.00  0.00    +0.000 A 
ATOM      9  C   UNL     1       4.808   5.145  19.568  0.00  0.00    +0.000 A 
ATOM     10  N   UNL     1       4.320   4.458  18.479  0.00  0.00    +0.000 N 
ATOM     11  H   UNL     1       6.712   4.238  13.564  0.00  0.00    +0.000 HD
ATOM     12  H   UNL     1       5.324   3.309  13.983  0.00  0.00    +0.000 HD
ENDROOT
BRANCH  10  13
ATOM     13  C   UNL     1       3.123   3.630  18.446  0.00  0.00    +0.000 C 
ATOM     14  O   UNL     1       2.107   4.229  19.292  0.00  0.00    +0.000 OA
ATOM     15  C   UNL     1       1.298   3.156  19.835  0.00  0.00    +0.000 C 
ATOM     16  C   UNL     1       1.894   1.853  19.323  0.00  0.00    +0.000 C 
ATOM     17  F   UNL     1       1.267   1.539  18.143  0.00  0.00    +0.000 F 
ATOM     18  C   UNL     1       3.326   2.214  18.985  0.00  0.00    +0.000 C 
BRANCH  18  19
ATOM     19  O   UNL     1       3.896   1.291  18.064  0.00  0.00    +0.000 OA
ATOM     20  H   UNL     1       3.880   0.409  18.486  0.00  0.00    +0.000 HD
ENDBRANCH  18  19
BRANCH  15  21
ATOM     21  C   UNL     1       1.300   3.261  21.359  0.00  0.00    +0.000 C 
BRANCH  21  22
ATOM     22  O   UNL     1       2.348   2.484  21.927  0.00  0.00    +0.000 OA
ATOM     23  H   UNL     1       3.135   3.059  21.965  0.00  0.00    +0.000 HD
ENDBRANCH  21  22
ENDBRANCH  15  21
ENDBRANCH  10  13
BRANCH   1  25
ATOM     24  C   UNL     1       7.667   8.095  17.463  0.00  0.00    +0.000 C 
ATOM     25  O   UNL     1       8.094   6.778  17.140  0.00  0.00    +0.000 OA
ENDBRANCH   1  25
TORSDOF 5
ENDMDL
MODEL 9
REMARK VINA RESULT:      -6.9      1.493      2.250
REMARK  Name = 
REMARK  6 active torsions:
REMARK  status: ('A' for Active; 'I' for Inactive)
REMARK    1  A    between atoms: C_1  and  O_2
REMARK    2  A    between atoms: O_2  and  C_3
REMARK    3  A    between atoms: N_12  and  C_13
REMARK    4  A    between atoms: C_15  and  C_16
REMARK    5  A    between atoms: C_16  and  O_17
REMARK    6  A    between atoms: C_20  and  O_21
REMARK                            x       y       z     vdW  Elec       q    Type
REMARK                         _______ _______ _______ _____ _____    ______ ____
ROOT
ATOM      1  C   UNL     1       7.369   7.032  17.832  0.00  0.00    +0.000 A 
ATOM      2  N   UNL     1       8.089   6.544  18.862  0.00  0.00    +0.000 NA
ATOM      3  C   UNL     1       7.528   5.610  19.645  0.00  0.00    +0.000 A 
ATOM      4  N   UNL     1       8.296   5.163  20.704  0.00  0.00    +0.000 N 
ATOM      5  N   UNL     1       6.291   5.102  19.534  0.00  0.00    +0.000 NA
ATOM      6  C   UNL     1       5.605   5.618  18.501  0.00  0.00    +0.000 A 
ATOM      7  C   UNL     1       6.071   6.579  17.617  0.00  0.00    +0.000 A 
ATOM      8  C   UNL     1       5.037   6.827  16.677  0.00  0.00    +0.000 A 
ATOM      9  C   UNL     1       3.979   6.007  17.002  0.00  0.00    +0.000 A 
ATOM     10  N   UNL     1       4.325   5.283  18.121  0.00  0.00    +0.000 N 
ATOM     11  H   UNL     1       8.979   5.873  20.936  0.00  0.00    +0.000 HD
ATOM     12  H   UNL     1       7.686   4.858  21.448  0.00  0.00    +0.000 HD
ENDROOT
BRANCH  10  13
ATOM     13  C   UNL     1       3.509   4.279  18.787  0.00  0.00    +0.000 C 
ATOM     14  O   UNL     1       4.200   3.816  19.976  0.00  0.00    +0.000 OA
ATOM     15  C   UNL     1       3.827   2.433  20.192  0.00  0.00    +0.000 C 
ATOM     16  C   UNL     1       2.904   2.042  19.046  0.00  0.00    +0.000 C 
ATOM     17  F   UNL     1       1.614   2.305  19.437  0.00  0.00    +0.000 F 
ATOM     18  C   UNL     1       3.247   3.028  17.949  0.00  0.00    +0.000 C 
BRANCH  18  19
ATOM     19  O   UNL     1       2.193   3.143  17.000  0.00  0.00    +0.000 OA
ATOM     20  H   UNL     1       1.480   3.667  17.416  0.00  0.00    +0.000 HD
ENDBRANCH  18  19
BRANCH  15  21
ATOM     21  C   UNL     1       5.096   1.584  20.259  0.00  0.00    +0.000 C 
BRANCH  21  22
ATOM     22  O   UNL     1       5.493   1.359  21.607  0.00  0.00    +0.000 OA
ATOM     23  H   UNL     1       4.894   1.885  22.168  0.00  0.00    +0.000 HD
ENDBRANCH  21  22
ENDBRANCH  15  21
ENDBRANCH  10  13
BRANCH   1  25
ATOM     24  C   UNL     1       8.125   9.232  17.687  0.00  0.00    +0.000 C 
ATOM     25  O   UNL     1       7.899   8.004  17.006  0.00  0.00    +0.000 OA
ENDBRANCH   1  25
TORSDOF 5
ENDMDL
