MODEL 1
REMARK VINA RESULT:      -7.1      0.000      0.000
REMARK  Name = 
REMARK  12 active torsions:
REMARK  status: ('A' for Active; 'I' for Inactive)
REMARK    1  A    between atoms: C_1  and  C_2
REMARK    2  A    between atoms: C_2  and  C_3
REMARK    3  A    between atoms: C_3  and  N_4
REMARK    4  A    between atoms: N_4  and  C_5
REMARK    5  A    between atoms: N_4  and  S_8
REMARK    6  A    between atoms: C_5  and  C_6
REMARK    7  A    between atoms: C_6  and  C_7
REMARK    8  A    between atoms: S_8  and  C_11
REMARK    9  A    between atoms: C_14  and  C_15
REMARK   10  A    between atoms: N_17  and  C_18
REMARK   11  A    between atoms: C_18  and  C_19
REMARK   12  A    between atoms: C_18  and  C_20
REMARK                            x       y       z     vdW  Elec       q    Type
REMARK                         _______ _______ _______ _____ _____    ______ ____
ROOT
ATOM      1  C   UNL     1       3.736   5.531  18.662  0.00  0.00    +0.000 A 
ATOM      2  C   UNL     1       3.672   6.635  17.806  0.00  0.00    +0.000 A 
ATOM      3  C   UNL     1       2.874   7.735  18.146  0.00  0.00    +0.000 A 
ATOM      4  C   UNL     1       2.123   7.737  19.334  0.00  0.00    +0.000 A 
ATOM      5  C   UNL     1       2.191   6.613  20.174  0.00  0.00    +0.000 A 
ATOM      6  C   UNL     1       2.992   5.512  19.839  0.00  0.00    +0.000 A 
ENDROOT
BRANCH   4   7
ATOM      7  C   UNL     1       1.289   8.949  19.648  0.00  0.00    +0.000 C 
ATOM      8  O   UNL     1       1.121   9.305  20.812  0.00  0.00    +0.000 OA
ATOM      9  N   UNL     1       0.724   9.621  18.586  0.00  0.00    +0.000 N 
ATOM     10  H   UNL     1       0.813   9.274  17.651  0.00  0.00    +0.000 HD
BRANCH   9  11
ATOM     11  C   UNL     1      -0.121  10.809  18.749  0.00  0.00    +0.000 C 
ATOM     12  C   UNL     1       0.738  12.063  18.631  0.00  0.00    +0.000 C 
BRANCH  11  13
ATOM     13  C   UNL     1      -1.246  10.828  17.686  0.00  0.00    +0.000 C 
ATOM     14  N   UNL     1      -1.685  12.069  17.328  0.00  0.00    +0.000 N 
ATOM     15  O   UNL     1      -1.710   9.823  17.154  0.00  0.00    +0.000 OA
ATOM     16  H   UNL     1      -1.289  12.908  17.744  0.00  0.00    +0.000 HD
ATOM     17  H   UNL     1      -2.391  12.147  16.611  0.00  0.00    +0.000 HD
ENDBRANCH  11  13
ENDBRANCH   9  11
ENDBRANCH   4   7
BRANCH   1  18
ATOM     18  S   UNL     1       4.591   4.061  18.120  0.00  0.00    +0.000 S 
ATOM     19  O   UNL     1       3.630   3.343  17.315  0.00  0.00    +0.000 OA
ATOM     20  O   UNL     1       5.193   3.440  19.282  0.00  0.00    +0.000 OA
BRANCH  18  21
ATOM     21  N   UNL     1       5.893   4.682  17.119  0.00  0.00    +0.000 NA
BRANCH  21  22
ATOM     22  C   UNL     1       7.161   4.810  17.948  0.00  0.00    +0.000 C 
BRANCH  22  24
ATOM     23  C   UNL     1       7.432   7.315  17.493  0.00  0.00    +0.000 C 
ATOM     24  C   UNL     1       7.471   6.197  18.517  0.00  0.00    +0.000 C 
ENDBRANCH  22  24
ENDBRANCH  21  22
BRANCH  21  25
ATOM     25  C   UNL     1       6.126   3.887  15.860  0.00  0.00    +0.000 C 
BRANCH  25  26
ATOM     26  C   UNL     1       5.602   4.517  14.566  0.00  0.00    +0.000 C 
ATOM     27  C   UNL     1       6.195   3.937  13.292  0.00  0.00    +0.000 C 
ENDBRANCH  25  26
ENDBRANCH  21  25
ENDBRANCH  18  21
ENDBRANCH   1  18
TORSDOF 9
ENDMDL
MODEL 2
REMARK VINA RESULT:      -7.0      0.799      1.270
REMARK  Name = 
REMARK  12 active torsions:
REMARK  status: ('A' for Active; 'I' for Inactive)
REMARK    1  A    between atoms: C_1  and  C_2
REMARK    2  A    between atoms: C_2  and  C_3
REMARK    3  A    between atoms: C_3  and  N_4
REMARK    4  A    between atoms: N_4  and  C_5
REMARK    5  A    between atoms: N_4  and  S_8
REMARK    6  A    between atoms: C_5  and  C_6
REMARK    7  A    between atoms: C_6  and  C_7
REMARK    8  A    between atoms: S_8  and  C_11
REMARK    9  A    between atoms: C_14  and  C_15
REMARK   10  A    between atoms: N_17  and  C_18
REMARK   11  A    between atoms: C_18  and  C_19
REMARK   12  A    between atoms: C_18  and  C_20
REMARK                            x       y       z     vdW  Elec       q    Type
REMARK                         _______ _______ _______ _____ _____    ______ ____
ROOT
ATOM      1  C   UNL     1       3.572   5.263  18.676  0.00  0.00    +0.000 A 
ATOM      2  C   UNL     1       2.864   5.251  19.883  0.00  0.00    +0.000 A 
ATOM      3  C   UNL     1       2.142   6.385  20.279  0.00  0.00    +0.000 A 
ATOM      4  C   UNL     1       2.133   7.543  19.484  0.00  0.00    +0.000 A 
ATOM      5  C   UNL     1       2.861   7.541  18.282  0.00  0.00    +0.000 A 
ATOM      6  C   UNL     1       3.580   6.406  17.880  0.00  0.00    +0.000 A 
ENDROOT
BRANCH   4   7
ATOM      7  C   UNL     1       1.335   8.727  19.959  0.00  0.00    +0.000 C 
ATOM      8  O   UNL     1       0.996   8.819  21.136  0.00  0.00    +0.000 OA
ATOM      9  N   UNL     1       1.000   9.681  19.022  0.00  0.00    +0.000 N 
ATOM     10  H   UNL     1       1.224   9.553  18.054  0.00  0.00    +0.000 HD
BRANCH   9  11
ATOM     11  C   UNL     1       0.216  10.879  19.344  0.00  0.00    +0.000 C 
ATOM     12  C   UNL     1       1.156  12.062  19.543  0.00  0.00    +0.000 C 
BRANCH  11  13
ATOM     13  C   UNL     1      -0.800  11.184  18.217  0.00  0.00    +0.000 C 
ATOM     14  N   UNL     1      -1.125  10.122  17.426  0.00  0.00    +0.000 N 
ATOM     15  O   UNL     1      -1.324  12.281  18.040  0.00  0.00    +0.000 OA
ATOM     16  H   UNL     1      -0.716   9.205  17.581  0.00  0.00    +0.000 HD
ATOM     17  H   UNL     1      -1.813  10.251  16.697  0.00  0.00    +0.000 HD
ENDBRANCH  11  13
ENDBRANCH   9  11
ENDBRANCH   4   7
BRANCH   1  18
ATOM     18  S   UNL     1       4.646   3.893  18.287  0.00  0.00    +0.000 S 
ATOM     19  O   UNL     1       3.797   2.924  17.634  0.00  0.00    +0.000 OA
ATOM     20  O   UNL     1       5.378   3.545  19.487  0.00  0.00    +0.000 OA
BRANCH  18  21
ATOM     21  N   UNL     1       5.794   4.574  17.147  0.00  0.00    +0.000 NA
BRANCH  21  22
ATOM     22  C   UNL     1       7.139   4.770  17.828  0.00  0.00    +0.000 C 
BRANCH  22  24
ATOM     23  C   UNL     1       7.465   7.283  17.466  0.00  0.00    +0.000 C 
ATOM     24  C   UNL     1       7.395   6.140  18.460  0.00  0.00    +0.000 C 
ENDBRANCH  22  24
ENDBRANCH  21  22
BRANCH  21  25
ATOM     25  C   UNL     1       5.924   3.787  15.869  0.00  0.00    +0.000 C 
BRANCH  25  26
ATOM     26  C   UNL     1       6.183   4.610  14.602  0.00  0.00    +0.000 C 
ATOM     27  C   UNL     1       6.092   3.823  13.305  0.00  0.00    +0.000 C 
ENDBRANCH  25  26
ENDBRANCH  21  25
ENDBRANCH  18  21
ENDBRANCH   1  18
TORSDOF 9
ENDMDL
MODEL 3
REMARK VINA RESULT:      -7.0      1.482      2.021
REMARK  Name = 
REMARK  12 active torsions:
REMARK  status: ('A' for Active; 'I' for Inactive)
REMARK    1  A    between atoms: C_1  and  C_2
REMARK    2  A    between atoms: C_2  and  C_3
REMARK    3  A    between atoms: C_3  and  N_4
REMARK    4  A    between atoms: N_4  and  C_5
REMARK    5  A    between atoms: N_4  and  S_8
REMARK    6  A    between atoms: C_5  and  C_6
REMARK    7  A    between atoms: C_6  and  C_7
REMARK    8  A    between atoms: S_8  and  C_11
REMARK    9  A    between atoms: C_14  and  C_15
REMARK   10  A    between atoms: N_17  and  C_18
REMARK   11  A    between atoms: C_18  and  C_19
REMARK   12  A    between atoms: C_18  and  C_20
REMARK                            x       y       z     vdW  Elec       q    Type
REMARK                         _______ _______ _______ _____ _____    ______ ____
ROOT
ATOM      1  C   UNL     1       3.973   5.729  18.363  0.00  0.00    +0.000 A 
ATOM      2  C   UNL     1       3.958   6.740  17.397  0.00  0.00    +0.000 A 
ATOM      3  C   UNL     1       3.098   7.836  17.548  0.00  0.00    +0.000 A 
ATOM      4  C   UNL     1       2.237   7.925  18.655  0.00  0.00    +0.000 A 
ATOM      5  C   UNL     1       2.258   6.893  19.608  0.00  0.00    +0.000 A 
ATOM      6  C   UNL     1       3.120   5.797  19.462  0.00  0.00    +0.000 A 
ENDROOT
BRANCH   4   7
ATOM      7  C   UNL     1       1.341   9.128  18.767  0.00  0.00    +0.000 C 
ATOM      8  O   UNL     1       0.722   9.538  17.788  0.00  0.00    +0.000 OA
ATOM      9  N   UNL     1       1.260   9.744  19.997  0.00  0.00    +0.000 N 
ATOM     10  H   UNL     1       1.826   9.440  20.764  0.00  0.00    +0.000 HD
BRANCH   9  11
ATOM     11  C   UNL     1       0.435  10.933  20.244  0.00  0.00    +0.000 C 
ATOM     12  C   UNL     1      -0.348  10.746  21.539  0.00  0.00    +0.000 C 
BRANCH  11  13
ATOM     13  C   UNL     1       1.317  12.201  20.329  0.00  0.00    +0.000 C 
ATOM     14  N   UNL     1       1.760  12.680  19.131  0.00  0.00    +0.000 N 
ATOM     15  O   UNL     1       1.590  12.783  21.375  0.00  0.00    +0.000 OA
ATOM     16  H   UNL     1       1.518  12.220  18.258  0.00  0.00    +0.000 HD
ATOM     17  H   UNL     1       2.309  13.528  19.119  0.00  0.00    +0.000 HD
ENDBRANCH  11  13
ENDBRANCH   9  11
ENDBRANCH   4   7
BRANCH   1  18
ATOM     18  S   UNL     1       4.920   4.249  18.054  0.00  0.00    +0.000 S 
ATOM     19  O   UNL     1       4.014   3.361  17.364  0.00  0.00    +0.000 OA
ATOM     20  O   UNL     1       5.541   3.848  19.300  0.00  0.00    +0.000 OA
BRANCH  18  21
ATOM     21  N   UNL     1       6.196   4.787  16.977  0.00  0.00    +0.000 NA
BRANCH  21  22
ATOM     22  C   UNL     1       7.504   4.897  17.745  0.00  0.00    +0.000 C 
BRANCH  22  24
ATOM     23  C   UNL     1       7.542   7.455  17.640  0.00  0.00    +0.000 C 
ATOM     24  C   UNL     1       7.757   6.213  18.484  0.00  0.00    +0.000 C 
ENDBRANCH  22  24
ENDBRANCH  21  22
BRANCH  21  25
ATOM     25  C   UNL     1       6.346   3.943  15.738  0.00  0.00    +0.000 C 
BRANCH  25  26
ATOM     26  C   UNL     1       5.700   4.504  14.467  0.00  0.00    +0.000 C 
ATOM     27  C   UNL     1       6.002   3.718  13.201  0.00  0.00    +0.000 C 
ENDBRANCH  25  26
ENDBRANCH  21  25
ENDBRANCH  18  21
ENDBRANCH   1  18
TORSDOF 9
ENDMDL
MODEL 4
REMARK VINA RESULT:      -6.7      2.303      8.322
REMARK  Name = 
REMARK  12 active torsions:
REMARK  status: ('A' for Active; 'I' for Inactive)
REMARK    1  A    between atoms: C_1  and  C_2
REMARK    2  A    between atoms: C_2  and  C_3
REMARK    3  A    between atoms: C_3  and  N_4
REMARK    4  A    between atoms: N_4  and  C_5
REMARK    5  A    between atoms: N_4  and  S_8
REMARK    6  A    between atoms: C_5  and  C_6
REMARK    7  A    between atoms: C_6  and  C_7
REMARK    8  A    between atoms: S_8  and  C_11
REMARK    9  A    between atoms: C_14  and  C_15
REMARK   10  A    between atoms: N_17  and  C_18
REMARK   11  A    between atoms: C_18  and  C_19
REMARK   12  A    between atoms: C_18  and  C_20
REMARK                            x       y       z     vdW  Elec       q    Type
REMARK                         _______ _______ _______ _____ _____    ______ ____
ROOT
ATOM      1  C   UNL     1       1.482   9.028  19.551  0.00  0.00    +0.000 A 
ATOM      2  C   UNL     1       1.710   7.882  20.319  0.00  0.00    +0.000 A 
ATOM      3  C   UNL     1       2.378   6.787  19.755  0.00  0.00    +0.000 A 
ATOM      4  C   UNL     1       2.808   6.819  18.418  0.00  0.00    +0.000 A 
ATOM      5  C   UNL     1       2.557   7.975  17.659  0.00  0.00    +0.000 A 
ATOM      6  C   UNL     1       1.894   9.074  18.221  0.00  0.00    +0.000 A 
ENDROOT
BRANCH   4   7
ATOM      7  C   UNL     1       3.524   5.615  17.870  0.00  0.00    +0.000 C 
ATOM      8  O   UNL     1       3.212   4.485  18.236  0.00  0.00    +0.000 OA
ATOM      9  N   UNL     1       4.536   5.840  16.963  0.00  0.00    +0.000 N 
ATOM     10  H   UNL     1       4.824   6.771  16.731  0.00  0.00    +0.000 HD
BRANCH   9  11
ATOM     11  C   UNL     1       5.325   4.760  16.359  0.00  0.00    +0.000 C 
ATOM     12  C   UNL     1       5.667   5.126  14.919  0.00  0.00    +0.000 C 
BRANCH  11  13
ATOM     13  C   UNL     1       6.618   4.509  17.171  0.00  0.00    +0.000 C 
ATOM     14  N   UNL     1       6.425   4.117  18.463  0.00  0.00    +0.000 N 
ATOM     15  O   UNL     1       7.752   4.610  16.710  0.00  0.00    +0.000 OA
ATOM     16  H   UNL     1       5.490   4.006  18.845  0.00  0.00    +0.000 HD
ATOM     17  H   UNL     1       7.231   3.901  19.031  0.00  0.00    +0.000 HD
ENDBRANCH  11  13
ENDBRANCH   9  11
ENDBRANCH   4   7
BRANCH   1  18
ATOM     18  S   UNL     1       0.457  10.328  20.216  0.00  0.00    +0.000 S 
ATOM     19  O   UNL     1       1.296  11.020  21.166  0.00  0.00    +0.000 OA
ATOM     20  O   UNL     1      -0.799   9.738  20.631  0.00  0.00    +0.000 OA
BRANCH  18  21
ATOM     21  N   UNL     1       0.126  11.350  18.827  0.00  0.00    +0.000 NA
BRANCH  21  22
ATOM     22  C   UNL     1      -1.350  11.267  18.469  0.00  0.00    +0.000 C 
BRANCH  22  24
ATOM     23  C   UNL     1      -3.164   9.727  17.527  0.00  0.00    +0.000 C 
ATOM     24  C   UNL     1      -1.741  10.237  17.407  0.00  0.00    +0.000 C 
ENDBRANCH  22  24
ENDBRANCH  21  22
BRANCH  21  25
ATOM     25  C   UNL     1       0.581  12.777  18.997  0.00  0.00    +0.000 C 
BRANCH  25  26
ATOM     26  C   UNL     1       1.966  13.107  18.433  0.00  0.00    +0.000 C 
ATOM     27  C   UNL     1       2.299  14.590  18.396  0.00  0.00    +0.000 C 
ENDBRANCH  25  26
ENDBRANCH  21  25
ENDBRANCH  18  21
ENDBRANCH   1  18
TORSDOF 9
ENDMDL
MODEL 5
REMARK VINA RESULT:      -6.7      0.974      1.038
REMARK  Name = 
REMARK  12 active torsions:
REMARK  status: ('A' for Active; 'I' for Inactive)
REMARK    1  A    between atoms: C_1  and  C_2
REMARK    2  A    between atoms: C_2  and  C_3
REMARK    3  A    between atoms: C_3  and  N_4
REMARK    4  A    between atoms: N_4  and  C_5
REMARK    5  A    between atoms: N_4  and  S_8
REMARK    6  A    between atoms: C_5  and  C_6
REMARK    7  A    between atoms: C_6  and  C_7
REMARK    8  A    between atoms: S_8  and  C_11
REMARK    9  A    between atoms: C_14  and  C_15
REMARK   10  A    between atoms: N_17  and  C_18
REMARK   11  A    between atoms: C_18  and  C_19
REMARK   12  A    between atoms: C_18  and  C_20
REMARK                            x       y       z     vdW  Elec       q    Type
REMARK                         _______ _______ _______ _____ _____    ______ ____
ROOT
ATOM      1  C   UNL     1       3.318   6.447  18.574  0.00  0.00    +0.000 A 
ATOM      2  C   UNL     1       3.146   7.538  17.717  0.00  0.00    +0.000 A 
ATOM      3  C   UNL     1       2.329   8.608  18.107  0.00  0.00    +0.000 A 
ATOM      4  C   UNL     1       1.666   8.590  19.345  0.00  0.00    +0.000 A 
ATOM      5  C   UNL     1       1.841   7.478  20.186  0.00  0.00    +0.000 A 
ATOM      6  C   UNL     1       2.662   6.408  19.802  0.00  0.00    +0.000 A 
ENDROOT
BRANCH   4   7
ATOM      7  C   UNL     1       0.806   9.769  19.711  0.00  0.00    +0.000 C 
ATOM      8  O   UNL     1       0.577  10.032  20.889  0.00  0.00    +0.000 OA
ATOM      9  N   UNL     1       0.289  10.519  18.677  0.00  0.00    +0.000 N 
ATOM     10  H   UNL     1       0.428  10.247  17.723  0.00  0.00    +0.000 HD
BRANCH   9  11
ATOM     11  C   UNL     1      -0.575  11.687  18.889  0.00  0.00    +0.000 C 
ATOM     12  C   UNL     1       0.185  12.954  18.514  0.00  0.00    +0.000 C 
BRANCH  11  13
ATOM     13  C   UNL     1      -1.869  11.568  18.049  0.00  0.00    +0.000 C 
ATOM     14  N   UNL     1      -1.790  12.080  16.787  0.00  0.00    +0.000 N 
ATOM     15  O   UNL     1      -2.899  11.028  18.441  0.00  0.00    +0.000 OA
ATOM     16  H   UNL     1      -0.933  12.506  16.444  0.00  0.00    +0.000 HD
ATOM     17  H   UNL     1      -2.591  11.997  16.178  0.00  0.00    +0.000 HD
ENDBRANCH  11  13
ENDBRANCH   9  11
ENDBRANCH   4   7
BRANCH   1  18
ATOM     18  S   UNL     1       4.193   5.009  17.981  0.00  0.00    +0.000 S 
ATOM     19  O   UNL     1       3.236   4.294  17.170  0.00  0.00    +0.000 OA
ATOM     20  O   UNL     1       4.822   4.368  19.118  0.00  0.00    +0.000 OA
BRANCH  18  21
ATOM     21  N   UNL     1       5.470   5.681  16.982  0.00  0.00    +0.000 NA
BRANCH  21  22
ATOM     22  C   UNL     1       6.826   5.282  17.543  0.00  0.00    +0.000 C 
BRANCH  22  24
ATOM     23  C   UNL     1       7.649   7.705  17.581  0.00  0.00    +0.000 C 
ATOM     24  C   UNL     1       7.604   6.366  18.291  0.00  0.00    +0.000 C 
ENDBRANCH  22  24
ENDBRANCH  21  22
BRANCH  21  25
ATOM     25  C   UNL     1       5.347   5.334  15.520  0.00  0.00    +0.000 C 
BRANCH  25  26
ATOM     26  C   UNL     1       6.593   4.722  14.872  0.00  0.00    +0.000 C 
ATOM     27  C   UNL     1       6.326   3.945  13.593  0.00  0.00    +0.000 C 
ENDBRANCH  25  26
ENDBRANCH  21  25
ENDBRANCH  18  21
ENDBRANCH   1  18
TORSDOF 9
ENDMDL
MODEL 6
REMARK VINA RESULT:      -6.7      2.315      8.230
REMARK  Name = 
REMARK  12 active torsions:
REMARK  status: ('A' for Active; 'I' for Inactive)
REMARK    1  A    between atoms: C_1  and  C_2
REMARK    2  A    between atoms: C_2  and  C_3
REMARK    3  A    between atoms: C_3  and  N_4
REMARK    4  A    between atoms: N_4  and  C_5
REMARK    5  A    between atoms: N_4  and  S_8
REMARK    6  A    between atoms: C_5  and  C_6
REMARK    7  A    between atoms: C_6  and  C_7
REMARK    8  A    between atoms: S_8  and  C_11
REMARK    9  A    between atoms: C_14  and  C_15
REMARK   10  A    between atoms: N_17  and  C_18
REMARK   11  A    between atoms: C_18  and  C_19
REMARK   12  A    between atoms: C_18  and  C_20
REMARK                            x       y       z     vdW  Elec       q    Type
REMARK                         _______ _______ _______ _____ _____    ______ ____
ROOT
ATOM      1  C   UNL     1       1.688   7.475  20.216  0.00  0.00    +0.000 A 
ATOM      2  C   UNL     1       2.321   7.880  19.036  0.00  0.00    +0.000 A 
ATOM      3  C   UNL     1       3.178   6.997  18.366  0.00  0.00    +0.000 A 
ATOM      4  C   UNL     1       3.422   5.710  18.875  0.00  0.00    +0.000 A 
ATOM      5  C   UNL     1       2.786   5.327  20.068  0.00  0.00    +0.000 A 
ATOM      6  C   UNL     1       1.925   6.206  20.738  0.00  0.00    +0.000 A 
ENDROOT
BRANCH   4   7
ATOM      7  C   UNL     1       4.347   4.804  18.109  0.00  0.00    +0.000 C 
ATOM      8  O   UNL     1       4.757   3.761  18.613  0.00  0.00    +0.000 OA
ATOM      9  N   UNL     1       4.715   5.201  16.842  0.00  0.00    +0.000 N 
ATOM     10  H   UNL     1       4.428   6.089  16.476  0.00  0.00    +0.000 HD
BRANCH   9  11
ATOM     11  C   UNL     1       5.620   4.422  15.990  0.00  0.00    +0.000 C 
ATOM     12  C   UNL     1       5.208   4.584  14.531  0.00  0.00    +0.000 C 
BRANCH  11  13
ATOM     13  C   UNL     1       7.085   4.880  16.188  0.00  0.00    +0.000 C 
ATOM     14  N   UNL     1       7.749   4.270  17.212  0.00  0.00    +0.000 N 
ATOM     15  O   UNL     1       7.654   5.701  15.474  0.00  0.00    +0.000 OA
ATOM     16  H   UNL     1       7.295   3.570  17.791  0.00  0.00    +0.000 HD
ATOM     17  H   UNL     1       8.721   4.500  17.366  0.00  0.00    +0.000 HD
ENDBRANCH  11  13
ENDBRANCH   9  11
ENDBRANCH   4   7
BRANCH   1  18
ATOM     18  S   UNL     1       0.765   8.675  21.160  0.00  0.00    +0.000 S 
ATOM     19  O   UNL     1       1.613   9.003  22.283  0.00  0.00    +0.000 OA
ATOM     20  O   UNL     1      -0.568   8.149  21.370  0.00  0.00    +0.000 OA
BRANCH  18  21
ATOM     21  N   UNL     1       0.627  10.046  20.072  0.00  0.00    +0.000 NA
BRANCH  21  22
ATOM     22  C   UNL     1      -0.719  10.005  19.365  0.00  0.00    +0.000 C 
BRANCH  22  24
ATOM     23  C   UNL     1      -2.060  10.025  17.185  0.00  0.00    +0.000 C 
ATOM     24  C   UNL     1      -0.690  10.020  17.835  0.00  0.00    +0.000 C 
ENDBRANCH  22  24
ENDBRANCH  21  22
BRANCH  21  25
ATOM     25  C   UNL     1       0.871  11.377  20.734  0.00  0.00    +0.000 C 
BRANCH  25  26
ATOM     26  C   UNL     1      -0.381  12.142  21.176  0.00  0.00    +0.000 C 
ATOM     27  C   UNL     1      -0.849  11.831  22.589  0.00  0.00    +0.000 C 
ENDBRANCH  25  26
ENDBRANCH  21  25
ENDBRANCH  18  21
ENDBRANCH   1  18
TORSDOF 9
ENDMDL
MODEL 7
REMARK VINA RESULT:      -6.6      0.747      2.258
REMARK  Name = 
REMARK  12 active torsions:
REMARK  status: ('A' for Active; 'I' for Inactive)
REMARK    1  A    between atoms: C_1  and  C_2
REMARK    2  A    between atoms: C_2  and  C_3
REMARK    3  A    between atoms: C_3  and  N_4
REMARK    4  A    between atoms: N_4  and  C_5
REMARK    5  A    between atoms: N_4  and  S_8
REMARK    6  A    between atoms: C_5  and  C_6
REMARK    7  A    between atoms: C_6  and  C_7
REMARK    8  A    between atoms: S_8  and  C_11
REMARK    9  A    between atoms: C_14  and  C_15
REMARK   10  A    between atoms: N_17  and  C_18
REMARK   11  A    between atoms: C_18  and  C_19
REMARK   12  A    between atoms: C_18  and  C_20
REMARK                            x       y       z     vdW  Elec       q    Type
REMARK                         _______ _______ _______ _____ _____    ______ ____
ROOT
ATOM      1  C   UNL     1       3.285   5.558  18.823  0.00  0.00    +0.000 A 
ATOM      2  C   UNL     1       3.214   6.645  17.945  0.00  0.00    +0.000 A 
ATOM      3  C   UNL     1       2.520   7.802  18.324  0.00  0.00    +0.000 A 
ATOM      4  C   UNL     1       1.879   7.878  19.572  0.00  0.00    +0.000 A 
ATOM      5  C   UNL     1       1.952   6.770  20.434  0.00  0.00    +0.000 A 
ATOM      6  C   UNL     1       2.649   5.613  20.060  0.00  0.00    +0.000 A 
ENDROOT
BRANCH   4   7
ATOM      7  C   UNL     1       1.154   9.148  19.925  0.00  0.00    +0.000 C 
ATOM      8  O   UNL     1       0.796   9.360  21.081  0.00  0.00    +0.000 OA
ATOM      9  N   UNL     1       0.907  10.039  18.904  0.00  0.00    +0.000 N 
ATOM     10  H   UNL     1       1.143   9.816  17.957  0.00  0.00    +0.000 HD
BRANCH   9  11
ATOM     11  C   UNL     1       0.199  11.309  19.104  0.00  0.00    +0.000 C 
ATOM     12  C   UNL     1       1.107  12.465  18.698  0.00  0.00    +0.000 C 
BRANCH  11  13
ATOM     13  C   UNL     1      -1.110  11.340  18.279  0.00  0.00    +0.000 C 
ATOM     14  N   UNL     1      -1.311  12.477  17.553  0.00  0.00    +0.000 N 
ATOM     15  O   UNL     1      -1.915  10.414  18.228  0.00  0.00    +0.000 OA
ATOM     16  H   UNL     1      -0.638  13.238  17.568  0.00  0.00    +0.000 HD
ATOM     17  H   UNL     1      -2.129  12.539  16.964  0.00  0.00    +0.000 HD
ENDBRANCH  11  13
ENDBRANCH   9  11
ENDBRANCH   4   7
BRANCH   1  18
ATOM     18  S   UNL     1       3.994   4.025  18.248  0.00  0.00    +0.000 S 
ATOM     19  O   UNL     1       3.294   3.723  17.022  0.00  0.00    +0.000 OA
ATOM     20  O   UNL     1       3.988   3.088  19.353  0.00  0.00    +0.000 OA
BRANCH  18  21
ATOM     21  N   UNL     1       5.668   4.438  17.917  0.00  0.00    +0.000 NA
BRANCH  21  22
ATOM     22  C   UNL     1       5.800   4.939  16.488  0.00  0.00    +0.000 C 
BRANCH  22  24
ATOM     23  C   UNL     1       5.993   4.055  14.093  0.00  0.00    +0.000 C 
ATOM     24  C   UNL     1       6.540   4.026  15.507  0.00  0.00    +0.000 C 
ENDBRANCH  22  24
ENDBRANCH  21  22
BRANCH  21  25
ATOM     25  C   UNL     1       6.264   5.406  18.906  0.00  0.00    +0.000 C 
BRANCH  25  26
ATOM     26  C   UNL     1       7.701   5.853  18.619  0.00  0.00    +0.000 C 
ATOM     27  C   UNL     1       7.835   7.284  18.123  0.00  0.00    +0.000 C 
ENDBRANCH  25  26
ENDBRANCH  21  25
ENDBRANCH  18  21
ENDBRANCH   1  18
TORSDOF 9
ENDMDL
MODEL 8
REMARK VINA RESULT:      -6.5      2.271      7.955
REMARK  Name = 
REMARK  12 active torsions:
REMARK  status: ('A' for Active; 'I' for Inactive)
REMARK    1  A    between atoms: C_1  and  C_2
REMARK    2  A    between atoms: C_2  and  C_3
REMARK    3  A    between atoms: C_3  and  N_4
REMARK    4  A    between atoms: N_4  and  C_5
REMARK    5  A    between atoms: N_4  and  S_8
REMARK    6  A    between atoms: C_5  and  C_6
REMARK    7  A    between atoms: C_6  and  C_7
REMARK    8  A    between atoms: S_8  and  C_11
REMARK    9  A    between atoms: C_14  and  C_15
REMARK   10  A    between atoms: N_17  and  C_18
REMARK   11  A    between atoms: C_18  and  C_19
REMARK   12  A    between atoms: C_18  and  C_20
REMARK                            x       y       z     vdW  Elec       q    Type
REMARK                         _______ _______ _______ _____ _____    ______ ____
ROOT
ATOM      1  C   UNL     1       1.573   7.750  20.248  0.00  0.00    +0.000 A 
ATOM      2  C   UNL     1       2.214   8.108  19.057  0.00  0.00    +0.000 A 
ATOM      3  C   UNL     1       3.035   7.181  18.402  0.00  0.00    +0.000 A 
ATOM      4  C   UNL     1       3.235   5.897  18.935  0.00  0.00    +0.000 A 
ATOM      5  C   UNL     1       2.593   5.560  20.139  0.00  0.00    +0.000 A 
ATOM      6  C   UNL     1       1.767   6.484  20.795  0.00  0.00    +0.000 A 
ENDROOT
BRANCH   4   7
ATOM      7  C   UNL     1       4.123   4.943  18.183  0.00  0.00    +0.000 C 
ATOM      8  O   UNL     1       4.251   3.781  18.560  0.00  0.00    +0.000 OA
ATOM      9  N   UNL     1       4.783   5.432  17.076  0.00  0.00    +0.000 N 
ATOM     10  H   UNL     1       4.722   6.400  16.826  0.00  0.00    +0.000 HD
BRANCH   9  11
ATOM     11  C   UNL     1       5.689   4.617  16.259  0.00  0.00    +0.000 C 
ATOM     12  C   UNL     1       5.375   4.836  14.783  0.00  0.00    +0.000 C 
BRANCH  11  13
ATOM     13  C   UNL     1       7.165   4.979  16.554  0.00  0.00    +0.000 C 
ATOM     14  N   UNL     1       7.502   6.278  16.310  0.00  0.00    +0.000 N 
ATOM     15  O   UNL     1       7.990   4.192  17.008  0.00  0.00    +0.000 OA
ATOM     16  H   UNL     1       6.819   6.943  15.959  0.00  0.00    +0.000 HD
ATOM     17  H   UNL     1       8.442   6.584  16.520  0.00  0.00    +0.000 HD
ENDBRANCH  11  13
ENDBRANCH   9  11
ENDBRANCH   4   7
BRANCH   1  18
ATOM     18  S   UNL     1       0.700   9.001  21.173  0.00  0.00    +0.000 S 
ATOM     19  O   UNL     1       1.646   9.470  22.158  0.00  0.00    +0.000 OA
ATOM     20  O   UNL     1      -0.576   8.447  21.578  0.00  0.00    +0.000 OA
BRANCH  18  21
ATOM     21  N   UNL     1       0.378  10.250  19.983  0.00  0.00    +0.000 NA
BRANCH  21  22
ATOM     22  C   UNL     1      -1.038  10.099  19.450  0.00  0.00    +0.000 C 
BRANCH  22  24
ATOM     23  C   UNL     1      -1.937  11.623  17.600  0.00  0.00    +0.000 C 
ATOM     24  C   UNL     1      -1.234  10.326  17.949  0.00  0.00    +0.000 C 
ENDBRANCH  22  24
ENDBRANCH  21  22
BRANCH  21  25
ATOM     25  C   UNL     1       0.642  11.648  20.480  0.00  0.00    +0.000 C 
BRANCH  25  26
ATOM     26  C   UNL     1       1.669  12.457  19.682  0.00  0.00    +0.000 C 
ATOM     27  C   UNL     1       2.073  11.837  18.354  0.00  0.00    +0.000 C 
ENDBRANCH  25  26
ENDBRANCH  21  25
ENDBRANCH  18  21
ENDBRANCH   1  18
TORSDOF 9
ENDMDL
MODEL 9
REMARK VINA RESULT:      -6.5      1.842      2.964
REMARK  Name = 
REMARK  12 active torsions:
REMARK  status: ('A' for Active; 'I' for Inactive)
REMARK    1  A    between atoms: C_1  and  C_2
REMARK    2  A    between atoms: C_2  and  C_3
REMARK    3  A    between atoms: C_3  and  N_4
REMARK    4  A    between atoms: N_4  and  C_5
REMARK    5  A    between atoms: N_4  and  S_8
REMARK    6  A    between atoms: C_5  and  C_6
REMARK    7  A    between atoms: C_6  and  C_7
REMARK    8  A    between atoms: S_8  and  C_11
REMARK    9  A    between atoms: C_14  and  C_15
REMARK   10  A    between atoms: N_17  and  C_18
REMARK   11  A    between atoms: C_18  and  C_19
REMARK   12  A    between atoms: C_18  and  C_20
REMARK                            x       y       z     vdW  Elec       q    Type
REMARK                         _______ _______ _______ _____ _____    ______ ____
ROOT
ATOM      1  C   UNL     1       2.854   6.499  19.239  0.00  0.00    +0.000 A 
ATOM      2  C   UNL     1       2.171   6.711  20.441  0.00  0.00    +0.000 A 
ATOM      3  C   UNL     1       1.396   7.867  20.607  0.00  0.00    +0.000 A 
ATOM      4  C   UNL     1       1.309   8.826  19.584  0.00  0.00    +0.000 A 
ATOM      5  C   UNL     1       2.014   8.600  18.389  0.00  0.00    +0.000 A 
ATOM      6  C   UNL     1       2.786   7.443  18.217  0.00  0.00    +0.000 A 
ENDROOT
BRANCH   4   7
ATOM      7  C   UNL     1       0.458  10.044  19.818  0.00  0.00    +0.000 C 
ATOM      8  O   UNL     1       0.233  10.437  20.960  0.00  0.00    +0.000 OA
ATOM      9  N   UNL     1      -0.057  10.678  18.708  0.00  0.00    +0.000 N 
ATOM     10  H   UNL     1       0.077  10.301  17.790  0.00  0.00    +0.000 HD
BRANCH   9  11
ATOM     11  C   UNL     1      -0.913  11.868  18.791  0.00  0.00    +0.000 C 
ATOM     12  C   UNL     1      -0.135  13.086  18.306  0.00  0.00    +0.000 C 
BRANCH  11  13
ATOM     13  C   UNL     1      -2.196  11.677  17.947  0.00  0.00    +0.000 C 
ATOM     14  N   UNL     1      -2.011  11.718  16.596  0.00  0.00    +0.000 N 
ATOM     15  O   UNL     1      -3.309  11.467  18.421  0.00  0.00    +0.000 OA
ATOM     16  H   UNL     1      -1.090  11.866  16.194  0.00  0.00    +0.000 HD
ATOM     17  H   UNL     1      -2.806  11.562  15.992  0.00  0.00    +0.000 HD
ENDBRANCH  11  13
ENDBRANCH   9  11
ENDBRANCH   4   7
BRANCH   1  18
ATOM     18  S   UNL     1       3.993   5.131  19.119  0.00  0.00    +0.000 S 
ATOM     19  O   UNL     1       3.551   4.185  20.117  0.00  0.00    +0.000 OA
ATOM     20  O   UNL     1       5.339   5.666  19.153  0.00  0.00    +0.000 OA
BRANCH  18  21
ATOM     21  N   UNL     1       3.717   4.498  17.505  0.00  0.00    +0.000 NA
BRANCH  21  22
ATOM     22  C   UNL     1       5.049   4.196  16.837  0.00  0.00    +0.000 C 
BRANCH  22  24
ATOM     23  C   UNL     1       5.184   6.467  15.665  0.00  0.00    +0.000 C 
ATOM     24  C   UNL     1       5.363   4.966  15.553  0.00  0.00    +0.000 C 
ENDBRANCH  22  24
ENDBRANCH  21  22
BRANCH  21  25
ATOM     25  C   UNL     1       2.790   3.311  17.465  0.00  0.00    +0.000 C 
BRANCH  25  26
ATOM     26  C   UNL     1       1.330   3.592  17.834  0.00  0.00    +0.000 C 
ATOM     27  C   UNL     1       0.739   2.637  18.859  0.00  0.00    +0.000 C 
ENDBRANCH  25  26
ENDBRANCH  21  25
ENDBRANCH  18  21
ENDBRANCH   1  18
TORSDOF 9
ENDMDL
