MODEL 1
REMARK VINA RESULT:      -6.0      0.000      0.000
REMARK  Name = 
REMARK  7 active torsions:
REMARK  status: ('A' for Active; 'I' for Inactive)
REMARK    1  A    between atoms: C_1  and  C_2
REMARK    2  A    between atoms: C_2  and  C_3
REMARK    3  A    between atoms: C_2  and  N_9
REMARK    4  A    between atoms: C_3  and  C_4
REMARK    5  A    between atoms: N_12  and  C_13
REMARK    6  A    between atoms: N_12  and  C_14
REMARK    7  A    between atoms: C_14  and  C_15
REMARK                            x       y       z     vdW  Elec       q    Type
REMARK                         _______ _______ _______ _____ _____    ______ ____
ROOT
ATOM      1  N   UNL     1       4.669   4.698  16.463  0.00  0.00    +0.000 N 
ATOM      2  C   UNL     1       3.591   4.123  17.080  0.00  0.00    +0.000 C 
ATOM      3  O   UNL     1       3.328   2.929  16.972  0.00  0.00    +0.000 OA
ATOM      4  N   UNL     1       2.838   4.963  17.888  0.00  0.00    +0.000 N 
ATOM      5  C   UNL     1       2.973   6.411  18.014  0.00  0.00    +0.000 C 
ATOM      6  H   UNL     1       4.552   5.669  16.244  0.00  0.00    +0.000 HD
ENDROOT
BRANCH   1   8
ATOM      7  C   UNL     1       5.111   4.328  14.118  0.00  0.00    +0.000 C 
ATOM      8  C   UNL     1       5.599   4.016  15.540  0.00  0.00    +0.000 C 
BRANCH   8   9
ATOM      9  C   UNL     1       7.088   4.383  15.730  0.00  0.00    +0.000 C 
BRANCH   9  10
ATOM     10  C   UNL     1       7.406   5.184  16.967  0.00  0.00    +0.000 A 
ATOM     11  C   UNL     1       7.450   6.616  17.004  0.00  0.00    +0.000 A 
ATOM     12  C   UNL     1       7.717   7.108  18.262  0.00  0.00    +0.000 A 
ATOM     13  S   UNL     1       7.933   5.858  19.405  0.00  0.00    +0.000 S 
ATOM     14  C   UNL     1       7.646   4.656  18.223  0.00  0.00    +0.000 A 
ENDBRANCH   9  10
ENDBRANCH   8   9
ENDBRANCH   1   8
BRANCH   4  15
ATOM     15  C   UNL     1       1.746   4.361  18.659  0.00  0.00    +0.000 C 
BRANCH  15  16
ATOM     16  C   UNL     1       2.310   3.627  19.873  0.00  0.00    +0.000 C 
ATOM     17  C   UNL     1       2.120   4.201  21.305  0.00  0.00    +0.000 C 
ATOM     18  C   UNL     1       1.702   2.794  21.772  0.00  0.00    +0.000 C 
ATOM     19  C   UNL     1       1.402   2.446  20.310  0.00  0.00    +0.000 C 
ENDBRANCH  15  16
ENDBRANCH   4  15
TORSDOF 5
ENDMDL
MODEL 2
REMARK VINA RESULT:      -6.0      2.443      5.982
REMARK  Name = 
REMARK  7 active torsions:
REMARK  status: ('A' for Active; 'I' for Inactive)
REMARK    1  A    between atoms: C_1  and  C_2
REMARK    2  A    between atoms: C_2  and  C_3
REMARK    3  A    between atoms: C_2  and  N_9
REMARK    4  A    between atoms: C_3  and  C_4
REMARK    5  A    between atoms: N_12  and  C_13
REMARK    6  A    between atoms: N_12  and  C_14
REMARK    7  A    between atoms: C_14  and  C_15
REMARK                            x       y       z     vdW  Elec       q    Type
REMARK                         _______ _______ _______ _____ _____    ______ ____
ROOT
ATOM      1  N   UNL     1       3.999   6.375  18.666  0.00  0.00    +0.000 N 
ATOM      2  C   UNL     1       4.843   6.390  17.588  0.00  0.00    +0.000 C 
ATOM      3  O   UNL     1       4.499   6.810  16.487  0.00  0.00    +0.000 OA
ATOM      4  N   UNL     1       6.137   5.951  17.827  0.00  0.00    +0.000 N 
ATOM      5  C   UNL     1       6.639   5.326  19.046  0.00  0.00    +0.000 C 
ATOM      6  H   UNL     1       4.193   5.653  19.333  0.00  0.00    +0.000 HD
ENDROOT
BRANCH   1   8
ATOM      7  C   UNL     1       2.528   8.211  18.124  0.00  0.00    +0.000 C 
ATOM      8  C   UNL     1       2.576   6.770  18.652  0.00  0.00    +0.000 C 
BRANCH   8   9
ATOM      9  C   UNL     1       1.650   5.832  17.847  0.00  0.00    +0.000 C 
BRANCH   9  10
ATOM     10  C   UNL     1       1.802   4.361  18.140  0.00  0.00    +0.000 A 
ATOM     11  C   UNL     1       2.506   3.445  17.291  0.00  0.00    +0.000 A 
ATOM     12  C   UNL     1       2.543   2.166  17.803  0.00  0.00    +0.000 A 
ATOM     13  S   UNL     1       1.722   2.052  19.295  0.00  0.00    +0.000 S 
ATOM     14  C   UNL     1       1.335   3.717  19.272  0.00  0.00    +0.000 A 
ENDBRANCH   9  10
ENDBRANCH   8   9
ENDBRANCH   1   8
BRANCH   4  15
ATOM     15  C   UNL     1       7.103   6.061  16.730  0.00  0.00    +0.000 C 
BRANCH  15  16
ATOM     16  C   UNL     1       7.146   4.753  15.943  0.00  0.00    +0.000 C 
ATOM     17  C   UNL     1       5.873   3.874  15.797  0.00  0.00    +0.000 C 
ATOM     18  C   UNL     1       6.180   3.745  14.293  0.00  0.00    +0.000 C 
ATOM     19  C   UNL     1       7.061   4.994  14.412  0.00  0.00    +0.000 C 
ENDBRANCH  15  16
ENDBRANCH   4  15
TORSDOF 5
ENDMDL
MODEL 3
REMARK VINA RESULT:      -6.0      2.318      5.873
REMARK  Name = 
REMARK  7 active torsions:
REMARK  status: ('A' for Active; 'I' for Inactive)
REMARK    1  A    between atoms: C_1  and  C_2
REMARK    2  A    between atoms: C_2  and  C_3
REMARK    3  A    between atoms: C_2  and  N_9
REMARK    4  A    between atoms: C_3  and  C_4
REMARK    5  A    between atoms: N_12  and  C_13
REMARK    6  A    between atoms: N_12  and  C_14
REMARK    7  A    between atoms: C_14  and  C_15
REMARK                            x       y       z     vdW  Elec       q    Type
REMARK                         _______ _______ _______ _____ _____    ______ ____
ROOT
ATOM      1  N   UNL     1       3.558   6.335  18.627  0.00  0.00    +0.000 N 
ATOM      2  C   UNL     1       4.880   5.994  18.521  0.00  0.00    +0.000 C 
ATOM      3  O   UNL     1       5.498   5.454  19.433  0.00  0.00    +0.000 OA
ATOM      4  N   UNL     1       5.471   6.246  17.291  0.00  0.00    +0.000 N 
ATOM      5  C   UNL     1       4.889   6.978  16.172  0.00  0.00    +0.000 C 
ATOM      6  H   UNL     1       3.286   7.118  18.065  0.00  0.00    +0.000 HD
ENDROOT
BRANCH   1   8
ATOM      7  C   UNL     1       1.982   7.518  20.023  0.00  0.00    +0.000 C 
ATOM      8  C   UNL     1       2.725   6.186  19.838  0.00  0.00    +0.000 C 
BRANCH   8   9
ATOM      9  C   UNL     1       1.754   4.986  19.815  0.00  0.00    +0.000 C 
BRANCH   9  10
ATOM     10  C   UNL     1       2.280   3.738  19.150  0.00  0.00    +0.000 A 
ATOM     11  C   UNL     1       1.944   3.341  17.814  0.00  0.00    +0.000 A 
ATOM     12  C   UNL     1       2.591   2.189  17.424  0.00  0.00    +0.000 A 
ATOM     13  S   UNL     1       3.591   1.567  18.659  0.00  0.00    +0.000 S 
ATOM     14  C   UNL     1       3.181   2.851  19.712  0.00  0.00    +0.000 A 
ENDBRANCH   9  10
ENDBRANCH   8   9
ENDBRANCH   1   8
BRANCH   4  15
ATOM     15  C   UNL     1       6.851   5.789  17.097  0.00  0.00    +0.000 C 
BRANCH  15  16
ATOM     16  C   UNL     1       6.865   4.526  16.239  0.00  0.00    +0.000 C 
ATOM     17  C   UNL     1       5.535   3.833  15.827  0.00  0.00    +0.000 C 
ATOM     18  C   UNL     1       6.076   3.736  14.389  0.00  0.00    +0.000 C 
ATOM     19  C   UNL     1       7.072   4.848  14.735  0.00  0.00    +0.000 C 
ENDBRANCH  15  16
ENDBRANCH   4  15
TORSDOF 5
ENDMDL
MODEL 4
REMARK VINA RESULT:      -5.9      0.860      1.230
REMARK  Name = 
REMARK  7 active torsions:
REMARK  status: ('A' for Active; 'I' for Inactive)
REMARK    1  A    between atoms: C_1  and  C_2
REMARK    2  A    between atoms: C_2  and  C_3
REMARK    3  A    between atoms: C_2  and  N_9
REMARK    4  A    between atoms: C_3  and  C_4
REMARK    5  A    between atoms: N_12  and  C_13
REMARK    6  A    between atoms: N_12  and  C_14
REMARK    7  A    between atoms: C_14  and  C_15
REMARK                            x       y       z     vdW  Elec       q    Type
REMARK                         _______ _______ _______ _____ _____    ______ ____
ROOT
ATOM      1  N   UNL     1       4.562   4.643  16.800  0.00  0.00    +0.000 N 
ATOM      2  C   UNL     1       3.408   4.083  17.278  0.00  0.00    +0.000 C 
ATOM      3  O   UNL     1       3.092   2.920  17.044  0.00  0.00    +0.000 OA
ATOM      4  N   UNL     1       2.637   4.895  18.098  0.00  0.00    +0.000 N 
ATOM      5  C   UNL     1       2.836   6.316  18.362  0.00  0.00    +0.000 C 
ATOM      6  H   UNL     1       4.514   5.634  16.660  0.00  0.00    +0.000 HD
ENDROOT
BRANCH   1   8
ATOM      7  C   UNL     1       5.221   4.504  14.481  0.00  0.00    +0.000 C 
ATOM      8  C   UNL     1       5.527   3.988  15.895  0.00  0.00    +0.000 C 
BRANCH   8   9
ATOM      9  C   UNL     1       7.012   4.191  16.271  0.00  0.00    +0.000 C 
BRANCH   9  10
ATOM     10  C   UNL     1       7.314   5.434  17.069  0.00  0.00    +0.000 A 
ATOM     11  C   UNL     1       7.743   5.422  18.437  0.00  0.00    +0.000 A 
ATOM     12  C   UNL     1       8.000   6.684  18.925  0.00  0.00    +0.000 A 
ATOM     13  S   UNL     1       7.713   7.893  17.754  0.00  0.00    +0.000 S 
ATOM     14  C   UNL     1       7.268   6.729  16.583  0.00  0.00    +0.000 A 
ENDBRANCH   9  10
ENDBRANCH   8   9
ENDBRANCH   1   8
BRANCH   4  15
ATOM     15  C   UNL     1       1.455   4.296  18.725  0.00  0.00    +0.000 C 
BRANCH  15  16
ATOM     16  C   UNL     1       1.688   4.135  20.226  0.00  0.00    +0.000 C 
ATOM     17  C   UNL     1       0.982   3.000  21.020  0.00  0.00    +0.000 C 
ATOM     18  C   UNL     1       2.333   2.676  21.684  0.00  0.00    +0.000 C 
ATOM     19  C   UNL     1       3.026   3.409  20.530  0.00  0.00    +0.000 C 
ENDBRANCH  15  16
ENDBRANCH   4  15
TORSDOF 5
ENDMDL
MODEL 5
REMARK VINA RESULT:      -5.9      2.362      5.968
REMARK  Name = 
REMARK  7 active torsions:
REMARK  status: ('A' for Active; 'I' for Inactive)
REMARK    1  A    between atoms: C_1  and  C_2
REMARK    2  A    between atoms: C_2  and  C_3
REMARK    3  A    between atoms: C_2  and  N_9
REMARK    4  A    between atoms: C_3  and  C_4
REMARK    5  A    between atoms: N_12  and  C_13
REMARK    6  A    between atoms: N_12  and  C_14
REMARK    7  A    between atoms: C_14  and  C_15
REMARK                            x       y       z     vdW  Elec       q    Type
REMARK                         _______ _______ _______ _____ _____    ______ ____
ROOT
ATOM      1  N   UNL     1       2.814   6.351  19.278  0.00  0.00    +0.000 N 
ATOM      2  C   UNL     1       4.105   6.071  18.920  0.00  0.00    +0.000 C 
ATOM      3  O   UNL     1       4.838   5.356  19.596  0.00  0.00    +0.000 OA
ATOM      4  N   UNL     1       4.524   6.601  17.707  0.00  0.00    +0.000 N 
ATOM      5  C   UNL     1       3.800   7.550  16.869  0.00  0.00    +0.000 C 
ATOM      6  H   UNL     1       2.474   7.233  18.947  0.00  0.00    +0.000 HD
ENDROOT
BRANCH   1   8
ATOM      7  C   UNL     1       1.290   7.101  20.994  0.00  0.00    +0.000 C 
ATOM      8  C   UNL     1       2.154   5.920  20.527  0.00  0.00    +0.000 C 
BRANCH   8   9
ATOM      9  C   UNL     1       1.332   4.617  20.412  0.00  0.00    +0.000 C 
BRANCH   9  10
ATOM     10  C   UNL     1       1.943   3.539  19.553  0.00  0.00    +0.000 A 
ATOM     11  C   UNL     1       1.644   3.358  18.163  0.00  0.00    +0.000 A 
ATOM     12  C   UNL     1       2.367   2.334  17.592  0.00  0.00    +0.000 A 
ATOM     13  S   UNL     1       3.395   1.571  18.722  0.00  0.00    +0.000 S 
ATOM     14  C   UNL     1       2.894   2.625  19.971  0.00  0.00    +0.000 A 
ENDBRANCH   9  10
ENDBRANCH   8   9
ENDBRANCH   1   8
BRANCH   4  15
ATOM     15  C   UNL     1       5.859   6.228  17.231  0.00  0.00    +0.000 C 
BRANCH  15  16
ATOM     16  C   UNL     1       5.765   5.647  15.822  0.00  0.00    +0.000 C 
ATOM     17  C   UNL     1       7.008   4.999  15.148  0.00  0.00    +0.000 C 
ATOM     18  C   UNL     1       6.115   3.817  14.727  0.00  0.00    +0.000 C 
ATOM     19  C   UNL     1       5.124   4.233  15.820  0.00  0.00    +0.000 C 
ENDBRANCH  15  16
ENDBRANCH   4  15
TORSDOF 5
ENDMDL
MODEL 6
REMARK VINA RESULT:      -5.9      2.638      6.269
REMARK  Name = 
REMARK  7 active torsions:
REMARK  status: ('A' for Active; 'I' for Inactive)
REMARK    1  A    between atoms: C_1  and  C_2
REMARK    2  A    between atoms: C_2  and  C_3
REMARK    3  A    between atoms: C_2  and  N_9
REMARK    4  A    between atoms: C_3  and  C_4
REMARK    5  A    between atoms: N_12  and  C_13
REMARK    6  A    between atoms: N_12  and  C_14
REMARK    7  A    between atoms: C_14  and  C_15
REMARK                            x       y       z     vdW  Elec       q    Type
REMARK                         _______ _______ _______ _____ _____    ______ ____
ROOT
ATOM      1  N   UNL     1       6.805   6.006  15.829  0.00  0.00    +0.000 N 
ATOM      2  C   UNL     1       6.514   4.748  15.373  0.00  0.00    +0.000 C 
ATOM      3  O   UNL     1       5.917   3.921  16.055  0.00  0.00    +0.000 OA
ATOM      4  N   UNL     1       6.885   4.480  14.062  0.00  0.00    +0.000 N 
ATOM      5  C   UNL     1       7.691   5.326  13.189  0.00  0.00    +0.000 C 
ATOM      6  H   UNL     1       7.625   6.415  15.422  0.00  0.00    +0.000 HD
ENDROOT
BRANCH   1   8
ATOM      7  C   UNL     1       7.559   7.625  17.454  0.00  0.00    +0.000 C 
ATOM      8  C   UNL     1       6.532   6.515  17.188  0.00  0.00    +0.000 C 
BRANCH   8   9
ATOM      9  C   UNL     1       5.085   7.003  17.420  0.00  0.00    +0.000 C 
BRANCH   9  10
ATOM     10  C   UNL     1       4.190   6.049  18.170  0.00  0.00    +0.000 A 
ATOM     11  C   UNL     1       4.644   5.183  19.218  0.00  0.00    +0.000 A 
ATOM     12  C   UNL     1       3.625   4.443  19.776  0.00  0.00    +0.000 A 
ATOM     13  S   UNL     1       2.121   4.769  19.037  0.00  0.00    +0.000 S 
ATOM     14  C   UNL     1       2.825   5.918  17.985  0.00  0.00    +0.000 A 
ENDBRANCH   9  10
ENDBRANCH   8   9
ENDBRANCH   1   8
BRANCH   4  15
ATOM     15  C   UNL     1       6.486   3.187  13.498  0.00  0.00    +0.000 C 
BRANCH  15  16
ATOM     16  C   UNL     1       5.876   3.390  12.113  0.00  0.00    +0.000 C 
ATOM     17  C   UNL     1       5.360   2.177  11.289  0.00  0.00    +0.000 C 
ATOM     18  C   UNL     1       4.081   2.977  10.984  0.00  0.00    +0.000 C 
ATOM     19  C   UNL     1       4.401   3.865  12.192  0.00  0.00    +0.000 C 
ENDBRANCH  15  16
ENDBRANCH   4  15
TORSDOF 5
ENDMDL
MODEL 7
REMARK VINA RESULT:      -5.9      2.167      6.257
REMARK  Name = 
REMARK  7 active torsions:
REMARK  status: ('A' for Active; 'I' for Inactive)
REMARK    1  A    between atoms: C_1  and  C_2
REMARK    2  A    between atoms: C_2  and  C_3
REMARK    3  A    between atoms: C_2  and  N_9
REMARK    4  A    between atoms: C_3  and  C_4
REMARK    5  A    between atoms: N_12  and  C_13
REMARK    6  A    between atoms: N_12  and  C_14
REMARK    7  A    between atoms: C_14  and  C_15
REMARK                            x       y       z     vdW  Elec       q    Type
REMARK                         _______ _______ _______ _____ _____    ______ ____
ROOT
ATOM      1  N   UNL     1       4.849   3.468  18.133  0.00  0.00    +0.000 N 
ATOM      2  C   UNL     1       4.917   3.933  16.847  0.00  0.00    +0.000 C 
ATOM      3  O   UNL     1       3.998   3.795  16.046  0.00  0.00    +0.000 OA
ATOM      4  N   UNL     1       6.074   4.625  16.515  0.00  0.00    +0.000 N 
ATOM      5  C   UNL     1       7.277   4.761  17.328  0.00  0.00    +0.000 C 
ATOM      6  H   UNL     1       5.735   3.231  18.536  0.00  0.00    +0.000 HD
ENDROOT
BRANCH   1   8
ATOM      7  C   UNL     1       4.085   2.452  20.186  0.00  0.00    +0.000 C 
ATOM      8  C   UNL     1       3.736   2.688  18.709  0.00  0.00    +0.000 C 
BRANCH   8   9
ATOM      9  C   UNL     1       2.340   3.328  18.545  0.00  0.00    +0.000 C 
BRANCH   9  10
ATOM     10  C   UNL     1       2.177   4.695  19.159  0.00  0.00    +0.000 A 
ATOM     11  C   UNL     1       1.660   4.925  20.476  0.00  0.00    +0.000 A 
ATOM     12  C   UNL     1       1.655   6.258  20.822  0.00  0.00    +0.000 A 
ATOM     13  S   UNL     1       2.254   7.246  19.564  0.00  0.00    +0.000 S 
ATOM     14  C   UNL     1       2.543   5.890  18.564  0.00  0.00    +0.000 A 
ENDBRANCH   9  10
ENDBRANCH   8   9
ENDBRANCH   1   8
BRANCH   4  15
ATOM     15  C   UNL     1       6.137   5.239  15.186  0.00  0.00    +0.000 C 
BRANCH  15  16
ATOM     16  C   UNL     1       6.743   4.256  14.187  0.00  0.00    +0.000 C 
ATOM     17  C   UNL     1       5.875   3.642  13.052  0.00  0.00    +0.000 C 
ATOM     18  C   UNL     1       7.011   3.960  12.063  0.00  0.00    +0.000 C 
ATOM     19  C   UNL     1       7.547   4.980  13.074  0.00  0.00    +0.000 C 
ENDBRANCH  15  16
ENDBRANCH   4  15
TORSDOF 5
ENDMDL
MODEL 8
REMARK VINA RESULT:      -5.9      4.214      6.411
REMARK  Name = 
REMARK  7 active torsions:
REMARK  status: ('A' for Active; 'I' for Inactive)
REMARK    1  A    between atoms: C_1  and  C_2
REMARK    2  A    between atoms: C_2  and  C_3
REMARK    3  A    between atoms: C_2  and  N_9
REMARK    4  A    between atoms: C_3  and  C_4
REMARK    5  A    between atoms: N_12  and  C_13
REMARK    6  A    between atoms: N_12  and  C_14
REMARK    7  A    between atoms: C_14  and  C_15
REMARK                            x       y       z     vdW  Elec       q    Type
REMARK                         _______ _______ _______ _____ _____    ______ ____
ROOT
ATOM      1  N   UNL     1       2.268   7.136  18.709  0.00  0.00    +0.000 N 
ATOM      2  C   UNL     1       1.973   8.432  18.380  0.00  0.00    +0.000 C 
ATOM      3  O   UNL     1       2.213   8.902  17.272  0.00  0.00    +0.000 OA
ATOM      4  N   UNL     1       1.329   9.174  19.361  0.00  0.00    +0.000 N 
ATOM      5  C   UNL     1       1.090   8.776  20.744  0.00  0.00    +0.000 C 
ATOM      6  H   UNL     1       2.451   6.988  19.683  0.00  0.00    +0.000 HD
ENDROOT
BRANCH   1   8
ATOM      7  C   UNL     1       4.432   6.145  18.308  0.00  0.00    +0.000 C 
ATOM      8  C   UNL     1       2.969   6.166  17.845  0.00  0.00    +0.000 C 
BRANCH   8   9
ATOM      9  C   UNL     1       2.352   4.749  17.826  0.00  0.00    +0.000 C 
BRANCH   9  10
ATOM     10  C   UNL     1       2.335   4.032  19.152  0.00  0.00    +0.000 A 
ATOM     11  C   UNL     1       1.249   4.100  20.085  0.00  0.00    +0.000 A 
ATOM     12  C   UNL     1       1.455   3.319  21.200  0.00  0.00    +0.000 A 
ATOM     13  S   UNL     1       2.958   2.510  21.145  0.00  0.00    +0.000 S 
ATOM     14  C   UNL     1       3.326   3.185  19.618  0.00  0.00    +0.000 A 
ENDBRANCH   9  10
ENDBRANCH   8   9
ENDBRANCH   1   8
BRANCH   4  15
ATOM     15  C   UNL     1       0.891  10.527  19.007  0.00  0.00    +0.000 C 
BRANCH  15  16
ATOM     16  C   UNL     1      -0.633  10.609  19.054  0.00  0.00    +0.000 C 
ATOM     17  C   UNL     1      -1.364  11.949  18.757  0.00  0.00    +0.000 C 
ATOM     18  C   UNL     1      -2.329  11.175  17.840  0.00  0.00    +0.000 C 
ATOM     19  C   UNL     1      -1.284  10.057  17.757  0.00  0.00    +0.000 C 
ENDBRANCH  15  16
ENDBRANCH   4  15
TORSDOF 5
ENDMDL
MODEL 9
REMARK VINA RESULT:      -5.8      2.506      3.496
REMARK  Name = 
REMARK  7 active torsions:
REMARK  status: ('A' for Active; 'I' for Inactive)
REMARK    1  A    between atoms: C_1  and  C_2
REMARK    2  A    between atoms: C_2  and  C_3
REMARK    3  A    between atoms: C_2  and  N_9
REMARK    4  A    between atoms: C_3  and  C_4
REMARK    5  A    between atoms: N_12  and  C_13
REMARK    6  A    between atoms: N_12  and  C_14
REMARK    7  A    between atoms: C_14  and  C_15
REMARK                            x       y       z     vdW  Elec       q    Type
REMARK                         _______ _______ _______ _____ _____    ______ ____
ROOT
ATOM      1  N   UNL     1       5.317   4.091  17.732  0.00  0.00    +0.000 N 
ATOM      2  C   UNL     1       4.099   3.464  17.760  0.00  0.00    +0.000 C 
ATOM      3  O   UNL     1       3.234   3.664  16.913  0.00  0.00    +0.000 OA
ATOM      4  N   UNL     1       3.920   2.539  18.779  0.00  0.00    +0.000 N 
ATOM      5  C   UNL     1       4.813   2.291  19.905  0.00  0.00    +0.000 C 
ATOM      6  H   UNL     1       5.741   4.213  18.631  0.00  0.00    +0.000 HD
ENDROOT
BRANCH   1   8
ATOM      7  C   UNL     1       5.857   6.437  17.552  0.00  0.00    +0.000 C 
ATOM      8  C   UNL     1       5.731   5.126  16.763  0.00  0.00    +0.000 C 
BRANCH   8   9
ATOM      9  C   UNL     1       7.021   4.801  15.978  0.00  0.00    +0.000 C 
BRANCH   9  10
ATOM     10  C   UNL     1       6.829   4.484  14.517  0.00  0.00    +0.000 A 
ATOM     11  C   UNL     1       7.633   5.033  13.465  0.00  0.00    +0.000 A 
ATOM     12  C   UNL     1       7.288   4.550  12.222  0.00  0.00    +0.000 A 
ATOM     13  S   UNL     1       5.987   3.448  12.304  0.00  0.00    +0.000 S 
ATOM     14  C   UNL     1       5.898   3.596  14.006  0.00  0.00    +0.000 A 
ENDBRANCH   9  10
ENDBRANCH   8   9
ENDBRANCH   1   8
BRANCH   4  15
ATOM     15  C   UNL     1       2.677   1.762  18.776  0.00  0.00    +0.000 C 
BRANCH  15  16
ATOM     16  C   UNL     1       1.715   2.316  19.824  0.00  0.00    +0.000 C 
ATOM     17  C   UNL     1       2.171   3.430  20.808  0.00  0.00    +0.000 C 
ATOM     18  C   UNL     1       0.857   4.177  20.510  0.00  0.00    +0.000 C 
ATOM     19  C   UNL     1       0.735   3.357  19.221  0.00  0.00    +0.000 C 
ENDBRANCH  15  16
ENDBRANCH   4  15
TORSDOF 5
ENDMDL
