MODEL 1
REMARK VINA RESULT:      -7.2      0.000      0.000
REMARK  Name = 
REMARK  3 active torsions:
REMARK  status: ('A' for Active; 'I' for Inactive)
REMARK    1  A    between atoms: C_2  and  C_3
REMARK    2  A    between atoms: N_5  and  C_6
REMARK    3  A    between atoms: C_6  and  C_7
REMARK                            x       y       z     vdW  Elec       q    Type
REMARK                         _______ _______ _______ _____ _____    ______ ____
ROOT
ATOM      1  C   UNL     1       6.618   5.410  18.788  0.00  0.00    +0.000 A 
ATOM      2  C   UNL     1       5.354   5.457  19.336  0.00  0.00    +0.000 A 
ATOM      3  N   UNL     1       4.439   5.158  18.359  0.00  0.00    +0.000 N 
ATOM      4  C   UNL     1       5.093   4.878  17.174  0.00  0.00    +0.000 A 
ATOM      5  C   UNL     1       4.604   4.491  15.915  0.00  0.00    +0.000 A 
ATOM      6  C   UNL     1       5.523   4.280  14.884  0.00  0.00    +0.000 A 
ATOM      7  C   UNL     1       6.887   4.450  15.094  0.00  0.00    +0.000 A 
ATOM      8  C   UNL     1       7.368   4.832  16.350  0.00  0.00    +0.000 A 
ATOM      9  C   UNL     1       6.464   5.043  17.414  0.00  0.00    +0.000 A 
ENDROOT
BRANCH   1  11
ATOM     10  O   UNL     1       8.128   5.189  20.595  0.00  0.00    +0.000 OA
ATOM     11  C   UNL     1       7.846   5.686  19.510  0.00  0.00    +0.000 C 
ENDBRANCH   1  11
BRANCH   3  12
ATOM     12  C   UNL     1       2.991   5.173  18.563  0.00  0.00    +0.000 C 
BRANCH  12  13
ATOM     13  C   UNL     1       2.504   6.555  18.925  0.00  0.00    +0.000 A 
ATOM     14  C   UNL     1       2.025   6.829  20.216  0.00  0.00    +0.000 A 
ATOM     15  C   UNL     1       1.460   8.068  20.515  0.00  0.00    +0.000 A 
ATOM     16  C   UNL     1       1.386   9.049  19.535  0.00  0.00    +0.000 A 
ATOM     17 CL   UNL     1       0.616  10.549  19.878  0.00  0.00    +0.000 Cl
ATOM     18  C   UNL     1       1.914   8.818  18.263  0.00  0.00    +0.000 A 
ATOM     19  C   UNL     1       2.476   7.576  17.962  0.00  0.00    +0.000 A 
ENDBRANCH  12  13
ENDBRANCH   3  12
TORSDOF 3
ENDMDL
MODEL 2
REMARK VINA RESULT:      -7.1      0.381      1.171
REMARK  Name = 
REMARK  3 active torsions:
REMARK  status: ('A' for Active; 'I' for Inactive)
REMARK    1  A    between atoms: C_2  and  C_3
REMARK    2  A    between atoms: N_5  and  C_6
REMARK    3  A    between atoms: C_6  and  C_7
REMARK                            x       y       z     vdW  Elec       q    Type
REMARK                         _______ _______ _______ _____ _____    ______ ____
ROOT
ATOM      1  C   UNL     1       6.630   5.354  18.788  0.00  0.00    +0.000 A 
ATOM      2  C   UNL     1       5.375   5.256  19.350  0.00  0.00    +0.000 A 
ATOM      3  N   UNL     1       4.479   4.911  18.371  0.00  0.00    +0.000 N 
ATOM      4  C   UNL     1       5.140   4.745  17.169  0.00  0.00    +0.000 A 
ATOM      5  C   UNL     1       4.672   4.365  15.899  0.00  0.00    +0.000 A 
ATOM      6  C   UNL     1       5.592   4.287  14.850  0.00  0.00    +0.000 A 
ATOM      7  C   UNL     1       6.936   4.579  15.054  0.00  0.00    +0.000 A 
ATOM      8  C   UNL     1       7.396   4.952  16.320  0.00  0.00    +0.000 A 
ATOM      9  C   UNL     1       6.492   5.031  17.401  0.00  0.00    +0.000 A 
ENDROOT
BRANCH   1  11
ATOM     10  O   UNL     1       8.162   5.229  20.585  0.00  0.00    +0.000 OA
ATOM     11  C   UNL     1       7.836   5.717  19.508  0.00  0.00    +0.000 C 
ENDBRANCH   1  11
BRANCH   3  12
ATOM     12  C   UNL     1       3.039   4.778  18.590  0.00  0.00    +0.000 C 
BRANCH  12  13
ATOM     13  C   UNL     1       2.428   6.090  19.017  0.00  0.00    +0.000 A 
ATOM     14  C   UNL     1       2.408   7.188  18.142  0.00  0.00    +0.000 A 
ATOM     15  C   UNL     1       1.958   8.434  18.577  0.00  0.00    +0.000 A 
ATOM     16  C   UNL     1       1.506   8.590  19.881  0.00  0.00    +0.000 A 
ATOM     17 CL   UNL     1       1.027  10.143  20.444  0.00  0.00    +0.000 Cl
ATOM     18  C   UNL     1       1.459   7.495  20.747  0.00  0.00    +0.000 A 
ATOM     19  C   UNL     1       1.914   6.249  20.314  0.00  0.00    +0.000 A 
ENDBRANCH  12  13
ENDBRANCH   3  12
TORSDOF 3
ENDMDL
MODEL 3
REMARK VINA RESULT:      -7.1      3.497      6.207
REMARK  Name = 
REMARK  3 active torsions:
REMARK  status: ('A' for Active; 'I' for Inactive)
REMARK    1  A    between atoms: C_2  and  C_3
REMARK    2  A    between atoms: N_5  and  C_6
REMARK    3  A    between atoms: C_6  and  C_7
REMARK                            x       y       z     vdW  Elec       q    Type
REMARK                         _______ _______ _______ _____ _____    ______ ____
ROOT
ATOM      1  C   UNL     1       2.645   6.328  19.736  0.00  0.00    +0.000 A 
ATOM      2  C   UNL     1       3.941   6.270  19.269  0.00  0.00    +0.000 A 
ATOM      3  N   UNL     1       4.358   4.964  19.288  0.00  0.00    +0.000 N 
ATOM      4  C   UNL     1       3.333   4.151  19.732  0.00  0.00    +0.000 A 
ATOM      5  C   UNL     1       3.259   2.757  19.890  0.00  0.00    +0.000 A 
ATOM      6  C   UNL     1       2.068   2.207  20.374  0.00  0.00    +0.000 A 
ATOM      7  C   UNL     1       0.984   3.016  20.693  0.00  0.00    +0.000 A 
ATOM      8  C   UNL     1       1.062   4.403  20.529  0.00  0.00    +0.000 A 
ATOM      9  C   UNL     1       2.249   4.986  20.033  0.00  0.00    +0.000 A 
ENDROOT
BRANCH   1  11
ATOM     10  O   UNL     1       1.483   7.988  20.956  0.00  0.00    +0.000 OA
ATOM     11  C   UNL     1       1.868   7.544  19.879  0.00  0.00    +0.000 C 
ENDBRANCH   1  11
BRANCH   3  12
ATOM     12  C   UNL     1       5.705   4.531  18.917  0.00  0.00    +0.000 C 
BRANCH  12  13
ATOM     13  C   UNL     1       5.880   4.511  17.419  0.00  0.00    +0.000 A 
ATOM     14  C   UNL     1       4.823   4.119  16.580  0.00  0.00    +0.000 A 
ATOM     15  C   UNL     1       5.021   3.981  15.207  0.00  0.00    +0.000 A 
ATOM     16  C   UNL     1       6.268   4.251  14.657  0.00  0.00    +0.000 A 
ATOM     17 CL   UNL     1       6.536   4.002  12.976  0.00  0.00    +0.000 Cl
ATOM     18  C   UNL     1       7.313   4.702  15.465  0.00  0.00    +0.000 A 
ATOM     19  C   UNL     1       7.117   4.836  16.841  0.00  0.00    +0.000 A 
ENDBRANCH  12  13
ENDBRANCH   3  12
TORSDOF 3
ENDMDL
MODEL 4
REMARK VINA RESULT:      -7.0      3.454      6.237
REMARK  Name = 
REMARK  3 active torsions:
REMARK  status: ('A' for Active; 'I' for Inactive)
REMARK    1  A    between atoms: C_2  and  C_3
REMARK    2  A    between atoms: N_5  and  C_6
REMARK    3  A    between atoms: C_6  and  C_7
REMARK                            x       y       z     vdW  Elec       q    Type
REMARK                         _______ _______ _______ _____ _____    ______ ____
ROOT
ATOM      1  C   UNL     1       2.707   6.531  19.471  0.00  0.00    +0.000 A 
ATOM      2  C   UNL     1       4.015   6.444  19.044  0.00  0.00    +0.000 A 
ATOM      3  N   UNL     1       4.461   5.163  19.246  0.00  0.00    +0.000 N 
ATOM      4  C   UNL     1       3.443   4.391  19.773  0.00  0.00    +0.000 A 
ATOM      5  C   UNL     1       3.397   3.028  20.116  0.00  0.00    +0.000 A 
ATOM      6  C   UNL     1       2.207   2.518  20.643  0.00  0.00    +0.000 A 
ATOM      7  C   UNL     1       1.097   3.335  20.827  0.00  0.00    +0.000 A 
ATOM      8  C   UNL     1       1.149   4.689  20.480  0.00  0.00    +0.000 A 
ATOM      9  C   UNL     1       2.333   5.231  19.937  0.00  0.00    +0.000 A 
ENDROOT
BRANCH   1  11
ATOM     10  O   UNL     1       1.546   8.353  20.432  0.00  0.00    +0.000 OA
ATOM     11  C   UNL     1       1.900   7.735  19.433  0.00  0.00    +0.000 C 
ENDBRANCH   1  11
BRANCH   3  12
ATOM     12  C   UNL     1       5.825   4.719  18.967  0.00  0.00    +0.000 C 
BRANCH  12  13
ATOM     13  C   UNL     1       6.024   4.459  17.493  0.00  0.00    +0.000 A 
ATOM     14  C   UNL     1       7.210   4.854  16.851  0.00  0.00    +0.000 A 
ATOM     15  C   UNL     1       7.343   4.728  15.469  0.00  0.00    +0.000 A 
ATOM     16  C   UNL     1       6.305   4.191  14.719  0.00  0.00    +0.000 A 
ATOM     17 CL   UNL     1       6.435   4.111  13.006  0.00  0.00    +0.000 Cl
ATOM     18  C   UNL     1       5.144   3.735  15.347  0.00  0.00    +0.000 A 
ATOM     19  C   UNL     1       5.007   3.865  16.730  0.00  0.00    +0.000 A 
ENDBRANCH  12  13
ENDBRANCH   3  12
TORSDOF 3
ENDMDL
MODEL 5
REMARK VINA RESULT:      -6.9      2.554      3.207
REMARK  Name = 
REMARK  3 active torsions:
REMARK  status: ('A' for Active; 'I' for Inactive)
REMARK    1  A    between atoms: C_2  and  C_3
REMARK    2  A    between atoms: N_5  and  C_6
REMARK    3  A    between atoms: C_6  and  C_7
REMARK                            x       y       z     vdW  Elec       q    Type
REMARK                         _______ _______ _______ _____ _____    ______ ____
ROOT
ATOM      1  C   UNL     1       6.600   5.509  18.307  0.00  0.00    +0.000 A 
ATOM      2  C   UNL     1       5.302   5.688  18.736  0.00  0.00    +0.000 A 
ATOM      3  N   UNL     1       4.453   5.462  17.682  0.00  0.00    +0.000 N 
ATOM      4  C   UNL     1       5.182   5.099  16.565  0.00  0.00    +0.000 A 
ATOM      5  C   UNL     1       4.772   4.739  15.270  0.00  0.00    +0.000 A 
ATOM      6  C   UNL     1       5.756   4.422  14.329  0.00  0.00    +0.000 A 
ATOM      7  C   UNL     1       7.105   4.462  14.661  0.00  0.00    +0.000 A 
ATOM      8  C   UNL     1       7.505   4.818  15.953  0.00  0.00    +0.000 A 
ATOM      9  C   UNL     1       6.535   5.134  16.928  0.00  0.00    +0.000 A 
ENDROOT
BRANCH   1  11
ATOM     10  O   UNL     1       7.839   5.343  20.314  0.00  0.00    +0.000 OA
ATOM     11  C   UNL     1       7.778   5.677  19.135  0.00  0.00    +0.000 C 
ENDBRANCH   1  11
BRANCH   3  12
ATOM     12  C   UNL     1       3.002   5.621  17.752  0.00  0.00    +0.000 C 
BRANCH  12  13
ATOM     13  C   UNL     1       2.411   4.767  18.848  0.00  0.00    +0.000 A 
ATOM     14  C   UNL     1       2.071   5.331  20.089  0.00  0.00    +0.000 A 
ATOM     15  C   UNL     1       1.644   4.524  21.142  0.00  0.00    +0.000 A 
ATOM     16  C   UNL     1       1.533   3.151  20.961  0.00  0.00    +0.000 A 
ATOM     17 CL   UNL     1       1.085   2.144  22.281  0.00  0.00    +0.000 Cl
ATOM     18  C   UNL     1       1.806   2.580  19.716  0.00  0.00    +0.000 A 
ATOM     19  C   UNL     1       2.239   3.387  18.663  0.00  0.00    +0.000 A 
ENDBRANCH  12  13
ENDBRANCH   3  12
TORSDOF 3
ENDMDL
MODEL 6
REMARK VINA RESULT:      -6.8      3.479      6.347
REMARK  Name = 
REMARK  3 active torsions:
REMARK  status: ('A' for Active; 'I' for Inactive)
REMARK    1  A    between atoms: C_2  and  C_3
REMARK    2  A    between atoms: N_5  and  C_6
REMARK    3  A    between atoms: C_6  and  C_7
REMARK                            x       y       z     vdW  Elec       q    Type
REMARK                         _______ _______ _______ _____ _____    ______ ____
ROOT
ATOM      1  C   UNL     1       2.933   6.808  18.543  0.00  0.00    +0.000 A 
ATOM      2  C   UNL     1       4.205   6.625  18.041  0.00  0.00    +0.000 A 
ATOM      3  N   UNL     1       4.695   5.431  18.506  0.00  0.00    +0.000 N 
ATOM      4  C   UNL     1       3.740   4.805  19.285  0.00  0.00    +0.000 A 
ATOM      5  C   UNL     1       3.753   3.565  19.946  0.00  0.00    +0.000 A 
ATOM      6  C   UNL     1       2.621   3.193  20.678  0.00  0.00    +0.000 A 
ATOM      7  C   UNL     1       1.512   4.027  20.753  0.00  0.00    +0.000 A 
ATOM      8  C   UNL     1       1.504   5.258  20.090  0.00  0.00    +0.000 A 
ATOM      9  C   UNL     1       2.629   5.656  19.335  0.00  0.00    +0.000 A 
ENDROOT
BRANCH   1  11
ATOM     10  O   UNL     1       2.279   8.745  17.356  0.00  0.00    +0.000 OA
ATOM     11  C   UNL     1       2.099   7.965  18.285  0.00  0.00    +0.000 C 
ENDBRANCH   1  11
BRANCH   3  12
ATOM     12  C   UNL     1       6.042   4.936  18.228  0.00  0.00    +0.000 C 
BRANCH  12  13
ATOM     13  C   UNL     1       6.201   4.573  16.771  0.00  0.00    +0.000 A 
ATOM     14  C   UNL     1       7.241   5.126  16.006  0.00  0.00    +0.000 A 
ATOM     15  C   UNL     1       7.314   4.890  14.634  0.00  0.00    +0.000 A 
ATOM     16  C   UNL     1       6.363   4.085  14.018  0.00  0.00    +0.000 A 
ATOM     17 CL   UNL     1       6.405   3.859  12.313  0.00  0.00    +0.000 Cl
ATOM     18  C   UNL     1       5.359   3.476  14.773  0.00  0.00    +0.000 A 
ATOM     19  C   UNL     1       5.282   3.716  16.146  0.00  0.00    +0.000 A 
ENDBRANCH  12  13
ENDBRANCH   3  12
TORSDOF 3
ENDMDL
MODEL 7
REMARK VINA RESULT:      -6.8      3.019      5.630
REMARK  Name = 
REMARK  3 active torsions:
REMARK  status: ('A' for Active; 'I' for Inactive)
REMARK    1  A    between atoms: C_2  and  C_3
REMARK    2  A    between atoms: N_5  and  C_6
REMARK    3  A    between atoms: C_6  and  C_7
REMARK                            x       y       z     vdW  Elec       q    Type
REMARK                         _______ _______ _______ _____ _____    ______ ____
ROOT
ATOM      1  C   UNL     1       2.146   3.418  20.209  0.00  0.00    +0.000 A 
ATOM      2  C   UNL     1       3.034   3.039  19.226  0.00  0.00    +0.000 A 
ATOM      3  N   UNL     1       3.447   4.158  18.549  0.00  0.00    +0.000 N 
ATOM      4  C   UNL     1       2.863   5.282  19.102  0.00  0.00    +0.000 A 
ATOM      5  C   UNL     1       2.997   6.645  18.787  0.00  0.00    +0.000 A 
ATOM      6  C   UNL     1       2.262   7.572  19.533  0.00  0.00    +0.000 A 
ATOM      7  C   UNL     1       1.418   7.159  20.557  0.00  0.00    +0.000 A 
ATOM      8  C   UNL     1       1.293   5.801  20.868  0.00  0.00    +0.000 A 
ATOM      9  C   UNL     1       2.030   4.843  20.139  0.00  0.00    +0.000 A 
ENDROOT
BRANCH   1  11
ATOM     10  O   UNL     1       1.771   2.395  22.308  0.00  0.00    +0.000 OA
ATOM     11  C   UNL     1       1.480   2.509  21.122  0.00  0.00    +0.000 C 
ENDBRANCH   1  11
BRANCH   3  12
ATOM     12  C   UNL     1       4.346   4.131  17.396  0.00  0.00    +0.000 C 
BRANCH  12  13
ATOM     13  C   UNL     1       5.485   5.107  17.569  0.00  0.00    +0.000 A 
ATOM     14  C   UNL     1       6.403   4.956  18.621  0.00  0.00    +0.000 A 
ATOM     15  C   UNL     1       7.378   5.924  18.856  0.00  0.00    +0.000 A 
ATOM     16  C   UNL     1       7.459   7.040  18.033  0.00  0.00    +0.000 A 
ATOM     17 CL   UNL     1       8.608   8.274  18.370  0.00  0.00    +0.000 Cl
ATOM     18  C   UNL     1       6.595   7.176  16.944  0.00  0.00    +0.000 A 
ATOM     19  C   UNL     1       5.616   6.210  16.711  0.00  0.00    +0.000 A 
ENDBRANCH  12  13
ENDBRANCH   3  12
TORSDOF 3
ENDMDL
MODEL 8
REMARK VINA RESULT:      -6.7      3.611      6.330
REMARK  Name = 
REMARK  3 active torsions:
REMARK  status: ('A' for Active; 'I' for Inactive)
REMARK    1  A    between atoms: C_2  and  C_3
REMARK    2  A    between atoms: N_5  and  C_6
REMARK    3  A    between atoms: C_6  and  C_7
REMARK                            x       y       z     vdW  Elec       q    Type
REMARK                         _______ _______ _______ _____ _____    ______ ____
ROOT
ATOM      1  C   UNL     1       2.969   6.216  18.484  0.00  0.00    +0.000 A 
ATOM      2  C   UNL     1       4.280   6.158  18.063  0.00  0.00    +0.000 A 
ATOM      3  N   UNL     1       4.661   4.842  17.988  0.00  0.00    +0.000 N 
ATOM      4  C   UNL     1       3.596   4.027  18.324  0.00  0.00    +0.000 A 
ATOM      5  C   UNL     1       3.478   2.627  18.363  0.00  0.00    +0.000 A 
ATOM      6  C   UNL     1       2.254   2.077  18.754  0.00  0.00    +0.000 A 
ATOM      7  C   UNL     1       1.181   2.890  19.098  0.00  0.00    +0.000 A 
ATOM      8  C   UNL     1       1.304   4.282  19.053  0.00  0.00    +0.000 A 
ATOM      9  C   UNL     1       2.524   4.867  18.653  0.00  0.00    +0.000 A 
ENDROOT
BRANCH   1  11
ATOM     10  O   UNL     1       2.130   8.341  17.871  0.00  0.00    +0.000 OA
ATOM     11  C   UNL     1       2.221   7.440  18.699  0.00  0.00    +0.000 C 
ENDBRANCH   1  11
BRANCH   3  12
ATOM     12  C   UNL     1       6.009   4.399  17.634  0.00  0.00    +0.000 C 
BRANCH  12  13
ATOM     13  C   UNL     1       6.226   4.449  16.142  0.00  0.00    +0.000 A 
ATOM     14  C   UNL     1       5.393   3.725  15.273  0.00  0.00    +0.000 A 
ATOM     15  C   UNL     1       5.669   3.670  13.907  0.00  0.00    +0.000 A 
ATOM     16  C   UNL     1       6.765   4.353  13.395  0.00  0.00    +0.000 A 
ATOM     17 CL   UNL     1       7.154   4.220  11.724  0.00  0.00    +0.000 Cl
ATOM     18  C   UNL     1       7.567   5.129  14.233  0.00  0.00    +0.000 A 
ATOM     19  C   UNL     1       7.295   5.181  15.601  0.00  0.00    +0.000 A 
ENDBRANCH  12  13
ENDBRANCH   3  12
TORSDOF 3
ENDMDL
MODEL 9
REMARK VINA RESULT:      -6.7      3.495      6.373
REMARK  Name = 
REMARK  3 active torsions:
REMARK  status: ('A' for Active; 'I' for Inactive)
REMARK    1  A    between atoms: C_2  and  C_3
REMARK    2  A    between atoms: N_5  and  C_6
REMARK    3  A    between atoms: C_6  and  C_7
REMARK                            x       y       z     vdW  Elec       q    Type
REMARK                         _______ _______ _______ _____ _____    ______ ____
ROOT
ATOM      1  C   UNL     1       2.875   6.755  18.405  0.00  0.00    +0.000 A 
ATOM      2  C   UNL     1       4.100   6.483  17.834  0.00  0.00    +0.000 A 
ATOM      3  N   UNL     1       4.564   5.292  18.332  0.00  0.00    +0.000 N 
ATOM      4  C   UNL     1       3.635   4.756  19.204  0.00  0.00    +0.000 A 
ATOM      5  C   UNL     1       3.633   3.553  19.931  0.00  0.00    +0.000 A 
ATOM      6  C   UNL     1       2.536   3.277  20.752  0.00  0.00    +0.000 A 
ATOM      7  C   UNL     1       1.474   4.169  20.851  0.00  0.00    +0.000 A 
ATOM      8  C   UNL     1       1.480   5.362  20.123  0.00  0.00    +0.000 A 
ATOM      9  C   UNL     1       2.570   5.664  19.277  0.00  0.00    +0.000 A 
ENDROOT
BRANCH   1  11
ATOM     10  O   UNL     1       2.474   9.084  18.327  0.00  0.00    +0.000 OA
ATOM     11  C   UNL     1       2.080   7.938  18.137  0.00  0.00    +0.000 C 
ENDBRANCH   1  11
BRANCH   3  12
ATOM     12  C   UNL     1       5.865   4.716  17.996  0.00  0.00    +0.000 C 
BRANCH  12  13
ATOM     13  C   UNL     1       6.044   4.605  16.502  0.00  0.00    +0.000 A 
ATOM     14  C   UNL     1       5.107   3.911  15.719  0.00  0.00    +0.000 A 
ATOM     15  C   UNL     1       5.335   3.701  14.360  0.00  0.00    +0.000 A 
ATOM     16  C   UNL     1       6.490   4.196  13.767  0.00  0.00    +0.000 A 
ATOM     17 CL   UNL     1       6.812   3.868  12.110  0.00  0.00    +0.000 Cl
ATOM     18  C   UNL     1       7.403   4.942  14.515  0.00  0.00    +0.000 A 
ATOM     19  C   UNL     1       7.177   5.149  15.877  0.00  0.00    +0.000 A 
ENDBRANCH  12  13
ENDBRANCH   3  12
TORSDOF 3
ENDMDL
