MODEL 1
REMARK VINA RESULT:      -6.1      0.000      0.000
REMARK  Name = 
REMARK  22 active torsions:
REMARK  status: ('A' for Active; 'I' for Inactive)
REMARK    1  A    between atoms: C_1  and  C_2
REMARK    2  A    between atoms: C_2  and  S_3
REMARK    3  A    between atoms: S_3  and  C_6
REMARK    4  A    between atoms: C_6  and  C_7
REMARK    5  A    between atoms: C_7  and  C_8
REMARK    6  A    between atoms: C_8  and  C_9
REMARK    7  A    between atoms: C_9  and  C_10
REMARK    8  A    between atoms: C_10  and  C_11
REMARK    9  A    between atoms: C_11  and  C_12
REMARK   10  A    between atoms: C_12  and  C_13
REMARK   11  A    between atoms: C_13  and  C_14
REMARK   12  A    between atoms: C_14  and  C_15
REMARK   13  A    between atoms: C_15  and  C_16
REMARK   14  A    between atoms: C_16  and  C_17
REMARK   15  A    between atoms: C_17  and  C_18
REMARK   16  A    between atoms: C_18  and  C_19
REMARK   17  A    between atoms: C_19  and  C_20
REMARK   18  A    between atoms: C_20  and  C_21
REMARK   19  A    between atoms: C_21  and  O_22
REMARK   20  A    between atoms: O_22  and  C_23
REMARK   21  A    between atoms: C_26  and  C_27
REMARK   22  A    between atoms: C_27  and  O_29
REMARK                            x       y       z     vdW  Elec       q    Type
REMARK                         _______ _______ _______ _____ _____    ______ ____
ROOT
ATOM      1  C   UNL     1       2.502   7.284  19.824  0.00  0.00    +0.000 C 
ENDROOT
BRANCH   1   2
ATOM      2  C   UNL     1       1.827   5.988  19.410  0.00  0.00    +0.000 C 
BRANCH   2   3
ATOM      3  C   UNL     1       1.663   5.080  20.614  0.00  0.00    +0.000 C 
BRANCH   3   4
ATOM      4  C   UNL     1       0.817   3.866  20.256  0.00  0.00    +0.000 C 
BRANCH   4   5
ATOM      5  C   UNL     1       1.515   2.574  20.664  0.00  0.00    +0.000 C 
BRANCH   5   6
ATOM      6  C   UNL     1       3.017   2.672  20.429  0.00  0.00    +0.000 C 
BRANCH   6   7
ATOM      7  O   UNL     1       3.278   2.483  19.038  0.00  0.00    +0.000 OA
BRANCH   7   8
ATOM      8  C   UNL     1       4.220   3.314  18.497  0.00  0.00    +0.000 A 
ATOM      9  C   UNL     1       4.966   4.051  19.414  0.00  0.00    +0.000 A 
ATOM     10  C   UNL     1       5.885   5.009  18.969  0.00  0.00    +0.000 A 
ATOM     11  C   UNL     1       6.137   5.179  17.594  0.00  0.00    +0.000 A 
ATOM     12  C   UNL     1       5.403   4.412  16.682  0.00  0.00    +0.000 A 
ATOM     13  C   UNL     1       4.455   3.484  17.132  0.00  0.00    +0.000 A 
BRANCH  11  14
ATOM     14  C   UNL     1       7.206   6.170  17.223  0.00  0.00    +0.000 C 
ATOM     15  O   UNL     1       7.735   6.870  18.059  0.00  0.00    +0.000 OA
BRANCH  14  16
ATOM     16  O   UNL     1       7.571   6.241  15.924  0.00  0.00    +0.000 OA
ATOM     17  H   UNL     1       7.541   5.440  15.385  0.00  0.00    +0.000 HD
ENDBRANCH  14  16
ENDBRANCH  11  14
ENDBRANCH   7   8
ENDBRANCH   6   7
ENDBRANCH   5   6
ENDBRANCH   4   5
ENDBRANCH   3   4
ENDBRANCH   2   3
ENDBRANCH   1   2
BRANCH   1  18
ATOM     18  C   UNL     1       1.460   8.369  20.030  0.00  0.00    +0.000 C 
BRANCH  18  19
ATOM     19  C   UNL     1       1.203   8.569  21.513  0.00  0.00    +0.000 C 
BRANCH  19  20
ATOM     20  C   UNL     1      -0.240   8.983  21.738  0.00  0.00    +0.000 C 
BRANCH  20  21
ATOM     21  C   UNL     1      -0.371   9.705  23.066  0.00  0.00    +0.000 C 
BRANCH  21  22
ATOM     22  C   UNL     1      -0.743  11.160  22.830  0.00  0.00    +0.000 C 
BRANCH  22  23
ATOM     23  C   UNL     1      -1.394  11.315  21.467  0.00  0.00    +0.000 C 
BRANCH  23  24
ATOM     24  C   UNL     1      -0.804  12.513  20.742  0.00  0.00    +0.000 C 
BRANCH  24  25
ATOM     25  C   UNL     1      -0.113  12.067  19.468  0.00  0.00    +0.000 C 
BRANCH  25  26
ATOM     26  C   UNL     1      -1.053  12.162  18.275  0.00  0.00    +0.000 C 
BRANCH  26  27
ATOM     27  C   UNL     1      -1.448  10.784  17.747  0.00  0.00    +0.000 C 
BRANCH  27  28
ATOM     28  S   UNL     1      -3.234  10.632  17.696  0.00  0.00    +0.000 S 
ATOM     29  O   UNL     1      -3.772  11.612  18.619  0.00  0.00    +0.000 OA
ATOM     30  O   UNL     1      -3.580   9.226  17.810  0.00  0.00    +0.000 OA
BRANCH  28  32
ATOM     31  C   UNL     1      -2.967  10.242  15.041  0.00  0.00    +0.000 C 
ATOM     32  C   UNL     1      -3.701  11.107  16.050  0.00  0.00    +0.000 C 
ENDBRANCH  28  32
ENDBRANCH  27  28
ENDBRANCH  26  27
ENDBRANCH  25  26
ENDBRANCH  24  25
ENDBRANCH  23  24
ENDBRANCH  22  23
ENDBRANCH  21  22
ENDBRANCH  20  21
ENDBRANCH  19  20
ENDBRANCH  18  19
ENDBRANCH   1  18
TORSDOF 21
ENDMDL
MODEL 2
REMARK VINA RESULT:      -6.1      3.190     10.059
REMARK  Name = 
REMARK  22 active torsions:
REMARK  status: ('A' for Active; 'I' for Inactive)
REMARK    1  A    between atoms: C_1  and  C_2
REMARK    2  A    between atoms: C_2  and  S_3
REMARK    3  A    between atoms: S_3  and  C_6
REMARK    4  A    between atoms: C_6  and  C_7
REMARK    5  A    between atoms: C_7  and  C_8
REMARK    6  A    between atoms: C_8  and  C_9
REMARK    7  A    between atoms: C_9  and  C_10
REMARK    8  A    between atoms: C_10  and  C_11
REMARK    9  A    between atoms: C_11  and  C_12
REMARK   10  A    between atoms: C_12  and  C_13
REMARK   11  A    between atoms: C_13  and  C_14
REMARK   12  A    between atoms: C_14  and  C_15
REMARK   13  A    between atoms: C_15  and  C_16
REMARK   14  A    between atoms: C_16  and  C_17
REMARK   15  A    between atoms: C_17  and  C_18
REMARK   16  A    between atoms: C_18  and  C_19
REMARK   17  A    between atoms: C_19  and  C_20
REMARK   18  A    between atoms: C_20  and  C_21
REMARK   19  A    between atoms: C_21  and  O_22
REMARK   20  A    between atoms: O_22  and  C_23
REMARK   21  A    between atoms: C_26  and  C_27
REMARK   22  A    between atoms: C_27  and  O_29
REMARK                            x       y       z     vdW  Elec       q    Type
REMARK                         _______ _______ _______ _____ _____    ______ ____
ROOT
ATOM      1  C   UNL     1       2.237   6.731  18.133  0.00  0.00    +0.000 C 
ENDROOT
BRANCH   1   2
ATOM      2  C   UNL     1       2.885   7.980  17.561  0.00  0.00    +0.000 C 
BRANCH   2   3
ATOM      3  C   UNL     1       2.238   9.218  18.152  0.00  0.00    +0.000 C 
BRANCH   3   4
ATOM      4  C   UNL     1       0.767   9.290  17.764  0.00  0.00    +0.000 C 
BRANCH   4   5
ATOM      5  C   UNL     1      -0.049   9.989  18.844  0.00  0.00    +0.000 C 
BRANCH   5   6
ATOM      6  C   UNL     1       0.757  10.127  20.129  0.00  0.00    +0.000 C 
BRANCH   6   7
ATOM      7  O   UNL     1       0.606  11.457  20.626  0.00  0.00    +0.000 OA
BRANCH   7   8
ATOM      8  C   UNL     1      -0.476  11.663  21.437  0.00  0.00    +0.000 A 
ATOM      9  C   UNL     1      -1.321  12.704  21.058  0.00  0.00    +0.000 A 
ATOM     10  C   UNL     1      -2.400  13.070  21.870  0.00  0.00    +0.000 A 
ATOM     11  C   UNL     1      -2.704  12.338  23.035  0.00  0.00    +0.000 A 
ATOM     12  C   UNL     1      -1.866  11.275  23.391  0.00  0.00    +0.000 A 
ATOM     13  C   UNL     1      -0.763  10.939  22.595  0.00  0.00    +0.000 A 
BRANCH  11  14
ATOM     14  C   UNL     1      -3.936  12.756  23.791  0.00  0.00    +0.000 C 
ATOM     15  O   UNL     1      -5.046  12.551  23.350  0.00  0.00    +0.000 OA
BRANCH  14  16
ATOM     16  O   UNL     1      -3.761  13.353  24.990  0.00  0.00    +0.000 OA
ATOM     17  H   UNL     1      -3.763  12.810  25.788  0.00  0.00    +0.000 HD
ENDBRANCH  14  16
ENDBRANCH  11  14
ENDBRANCH   7   8
ENDBRANCH   6   7
ENDBRANCH   5   6
ENDBRANCH   4   5
ENDBRANCH   3   4
ENDBRANCH   2   3
ENDBRANCH   1   2
BRANCH   1  18
ATOM     18  C   UNL     1       2.915   6.345  19.435  0.00  0.00    +0.000 C 
BRANCH  18  19
ATOM     19  C   UNL     1       1.874   6.133  20.520  0.00  0.00    +0.000 C 
BRANCH  19  20
ATOM     20  C   UNL     1       1.305   4.729  20.424  0.00  0.00    +0.000 C 
BRANCH  20  21
ATOM     21  C   UNL     1       2.215   3.751  21.146  0.00  0.00    +0.000 C 
BRANCH  21  22
ATOM     22  C   UNL     1       2.619   2.628  20.204  0.00  0.00    +0.000 C 
BRANCH  22  23
ATOM     23  C   UNL     1       1.598   2.493  19.088  0.00  0.00    +0.000 C 
BRANCH  23  24
ATOM     24  C   UNL     1       2.180   3.016  17.785  0.00  0.00    +0.000 C 
BRANCH  24  25
ATOM     25  C   UNL     1       3.620   2.567  17.636  0.00  0.00    +0.000 C 
BRANCH  25  26
ATOM     26  C   UNL     1       4.566   3.759  17.636  0.00  0.00    +0.000 C 
BRANCH  26  27
ATOM     27  C   UNL     1       5.173   4.008  16.257  0.00  0.00    +0.000 C 
BRANCH  27  28
ATOM     28  S   UNL     1       6.594   5.094  16.396  0.00  0.00    +0.000 S 
ATOM     29  O   UNL     1       6.186   6.395  15.907  0.00  0.00    +0.000 OA
ATOM     30  O   UNL     1       7.750   4.413  15.841  0.00  0.00    +0.000 OA
BRANCH  28  32
ATOM     31  C   UNL     1       7.630   6.541  18.424  0.00  0.00    +0.000 C 
ATOM     32  C   UNL     1       6.914   5.232  18.138  0.00  0.00    +0.000 C 
ENDBRANCH  28  32
ENDBRANCH  27  28
ENDBRANCH  26  27
ENDBRANCH  25  26
ENDBRANCH  24  25
ENDBRANCH  23  24
ENDBRANCH  22  23
ENDBRANCH  21  22
ENDBRANCH  20  21
ENDBRANCH  19  20
ENDBRANCH  18  19
ENDBRANCH   1  18
TORSDOF 21
ENDMDL
MODEL 3
REMARK VINA RESULT:      -5.6      3.266     10.548
REMARK  Name = 
REMARK  22 active torsions:
REMARK  status: ('A' for Active; 'I' for Inactive)
REMARK    1  A    between atoms: C_1  and  C_2
REMARK    2  A    between atoms: C_2  and  S_3
REMARK    3  A    between atoms: S_3  and  C_6
REMARK    4  A    between atoms: C_6  and  C_7
REMARK    5  A    between atoms: C_7  and  C_8
REMARK    6  A    between atoms: C_8  and  C_9
REMARK    7  A    between atoms: C_9  and  C_10
REMARK    8  A    between atoms: C_10  and  C_11
REMARK    9  A    between atoms: C_11  and  C_12
REMARK   10  A    between atoms: C_12  and  C_13
REMARK   11  A    between atoms: C_13  and  C_14
REMARK   12  A    between atoms: C_14  and  C_15
REMARK   13  A    between atoms: C_15  and  C_16
REMARK   14  A    between atoms: C_16  and  C_17
REMARK   15  A    between atoms: C_17  and  C_18
REMARK   16  A    between atoms: C_18  and  C_19
REMARK   17  A    between atoms: C_19  and  C_20
REMARK   18  A    between atoms: C_20  and  C_21
REMARK   19  A    between atoms: C_21  and  O_22
REMARK   20  A    between atoms: O_22  and  C_23
REMARK   21  A    between atoms: C_26  and  C_27
REMARK   22  A    between atoms: C_27  and  O_29
REMARK                            x       y       z     vdW  Elec       q    Type
REMARK                         _______ _______ _______ _____ _____    ______ ____
ROOT
ATOM      1  C   UNL     1       1.224   7.291  21.165  0.00  0.00    +0.000 C 
ENDROOT
BRANCH   1   2
ATOM      2  C   UNL     1       0.648   8.695  21.142  0.00  0.00    +0.000 C 
BRANCH   2   3
ATOM      3  C   UNL     1       0.910   9.343  19.796  0.00  0.00    +0.000 C 
BRANCH   3   4
ATOM      4  C   UNL     1      -0.170  10.369  19.477  0.00  0.00    +0.000 C 
BRANCH   4   5
ATOM      5  C   UNL     1       0.399  11.781  19.487  0.00  0.00    +0.000 C 
BRANCH   5   6
ATOM      6  C   UNL     1       0.389  12.359  20.897  0.00  0.00    +0.000 C 
BRANCH   6   7
ATOM      7  O   UNL     1      -0.485  13.488  20.925  0.00  0.00    +0.000 OA
BRANCH   7   8
ATOM      8  C   UNL     1      -1.657  13.309  21.608  0.00  0.00    +0.000 A 
ATOM      9  C   UNL     1      -1.581  13.491  22.987  0.00  0.00    +0.000 A 
ATOM     10  C   UNL     1      -2.694  13.232  23.796  0.00  0.00    +0.000 A 
ATOM     11  C   UNL     1      -3.930  12.871  23.224  0.00  0.00    +0.000 A 
ATOM     12  C   UNL     1      -4.002  12.719  21.834  0.00  0.00    +0.000 A 
ATOM     13  C   UNL     1      -2.874  12.940  21.033  0.00  0.00    +0.000 A 
BRANCH  11  14
ATOM     14  C   UNL     1      -5.086  12.701  24.171  0.00  0.00    +0.000 C 
ATOM     15  O   UNL     1      -6.221  12.960  23.833  0.00  0.00    +0.000 OA
BRANCH  14  16
ATOM     16  O   UNL     1      -4.818  12.231  25.409  0.00  0.00    +0.000 OA
ATOM     17  H   UNL     1      -5.354  12.537  26.152  0.00  0.00    +0.000 HD
ENDBRANCH  14  16
ENDBRANCH  11  14
ENDBRANCH   7   8
ENDBRANCH   6   7
ENDBRANCH   5   6
ENDBRANCH   4   5
ENDBRANCH   3   4
ENDBRANCH   2   3
ENDBRANCH   1   2
BRANCH   1  18
ATOM     18  C   UNL     1       2.107   7.073  19.950  0.00  0.00    +0.000 C 
BRANCH  18  19
ATOM     19  C   UNL     1       2.627   5.646  19.933  0.00  0.00    +0.000 C 
BRANCH  19  20
ATOM     20  C   UNL     1       2.143   4.905  21.166  0.00  0.00    +0.000 C 
BRANCH  20  21
ATOM     21  C   UNL     1       1.787   3.474  20.804  0.00  0.00    +0.000 C 
BRANCH  21  22
ATOM     22  C   UNL     1       0.748   3.463  19.695  0.00  0.00    +0.000 C 
BRANCH  22  23
ATOM     23  C   UNL     1       0.946   2.245  18.809  0.00  0.00    +0.000 C 
BRANCH  23  24
ATOM     24  C   UNL     1       2.381   2.194  18.309  0.00  0.00    +0.000 C 
BRANCH  24  25
ATOM     25  C   UNL     1       2.613   3.273  17.270  0.00  0.00    +0.000 C 
BRANCH  25  26
ATOM     26  C   UNL     1       4.101   3.510  17.051  0.00  0.00    +0.000 C 
BRANCH  26  27
ATOM     27  C   UNL     1       4.871   3.563  18.369  0.00  0.00    +0.000 C 
BRANCH  27  28
ATOM     28  S   UNL     1       6.105   4.863  18.309  0.00  0.00    +0.000 S 
ATOM     29  O   UNL     1       7.119   4.445  17.361  0.00  0.00    +0.000 OA
ATOM     30  O   UNL     1       6.456   5.229  19.670  0.00  0.00    +0.000 OA
BRANCH  28  32
ATOM     31  C   UNL     1       5.676   6.471  16.186  0.00  0.00    +0.000 C 
ATOM     32  C   UNL     1       5.268   6.278  17.636  0.00  0.00    +0.000 C 
ENDBRANCH  28  32
ENDBRANCH  27  28
ENDBRANCH  26  27
ENDBRANCH  25  26
ENDBRANCH  24  25
ENDBRANCH  23  24
ENDBRANCH  22  23
ENDBRANCH  21  22
ENDBRANCH  20  21
ENDBRANCH  19  20
ENDBRANCH  18  19
ENDBRANCH   1  18
TORSDOF 21
ENDMDL
MODEL 4
REMARK VINA RESULT:      -5.6      3.517      4.585
REMARK  Name = 
REMARK  22 active torsions:
REMARK  status: ('A' for Active; 'I' for Inactive)
REMARK    1  A    between atoms: C_1  and  C_2
REMARK    2  A    between atoms: C_2  and  S_3
REMARK    3  A    between atoms: S_3  and  C_6
REMARK    4  A    between atoms: C_6  and  C_7
REMARK    5  A    between atoms: C_7  and  C_8
REMARK    6  A    between atoms: C_8  and  C_9
REMARK    7  A    between atoms: C_9  and  C_10
REMARK    8  A    between atoms: C_10  and  C_11
REMARK    9  A    between atoms: C_11  and  C_12
REMARK   10  A    between atoms: C_12  and  C_13
REMARK   11  A    between atoms: C_13  and  C_14
REMARK   12  A    between atoms: C_14  and  C_15
REMARK   13  A    between atoms: C_15  and  C_16
REMARK   14  A    between atoms: C_16  and  C_17
REMARK   15  A    between atoms: C_17  and  C_18
REMARK   16  A    between atoms: C_18  and  C_19
REMARK   17  A    between atoms: C_19  and  C_20
REMARK   18  A    between atoms: C_20  and  C_21
REMARK   19  A    between atoms: C_21  and  O_22
REMARK   20  A    between atoms: O_22  and  C_23
REMARK   21  A    between atoms: C_26  and  C_27
REMARK   22  A    between atoms: C_27  and  O_29
REMARK                            x       y       z     vdW  Elec       q    Type
REMARK                         _______ _______ _______ _____ _____    ______ ____
ROOT
ATOM      1  C   UNL     1       2.291   6.894  18.223  0.00  0.00    +0.000 C 
ENDROOT
BRANCH   1   2
ATOM      2  C   UNL     1       2.873   6.361  19.521  0.00  0.00    +0.000 C 
BRANCH   2   3
ATOM      3  C   UNL     1       1.756   5.991  20.478  0.00  0.00    +0.000 C 
BRANCH   3   4
ATOM      4  C   UNL     1       1.093   4.689  20.048  0.00  0.00    +0.000 C 
BRANCH   4   5
ATOM      5  C   UNL     1       1.724   3.496  20.753  0.00  0.00    +0.000 C 
BRANCH   5   6
ATOM      6  C   UNL     1       2.201   2.459  19.744  0.00  0.00    +0.000 C 
BRANCH   6   7
ATOM      7  O   UNL     1       3.627   2.397  19.787  0.00  0.00    +0.000 OA
BRANCH   7   8
ATOM      8  C   UNL     1       4.279   3.242  18.933  0.00  0.00    +0.000 A 
ATOM      9  C   UNL     1       3.774   3.292  17.636  0.00  0.00    +0.000 A 
ATOM     10  C   UNL     1       4.427   4.043  16.651  0.00  0.00    +0.000 A 
ATOM     11  C   UNL     1       5.548   4.832  16.974  0.00  0.00    +0.000 A 
ATOM     12  C   UNL     1       6.030   4.798  18.288  0.00  0.00    +0.000 A 
ATOM     13  C   UNL     1       5.397   4.011  19.260  0.00  0.00    +0.000 A 
BRANCH  11  14
ATOM     14  C   UNL     1       6.123   5.671  15.866  0.00  0.00    +0.000 C 
ATOM     15  O   UNL     1       7.254   5.498  15.466  0.00  0.00    +0.000 OA
BRANCH  14  16
ATOM     16  O   UNL     1       5.327   6.616  15.319  0.00  0.00    +0.000 OA
ATOM     17  H   UNL     1       4.797   7.176  15.900  0.00  0.00    +0.000 HD
ENDBRANCH  14  16
ENDBRANCH  11  14
ENDBRANCH   7   8
ENDBRANCH   6   7
ENDBRANCH   5   6
ENDBRANCH   4   5
ENDBRANCH   3   4
ENDBRANCH   2   3
ENDBRANCH   1   2
BRANCH   1  18
ATOM     18  C   UNL     1       2.622   8.368  18.074  0.00  0.00    +0.000 C 
BRANCH  18  19
ATOM     19  C   UNL     1       1.368   9.149  17.722  0.00  0.00    +0.000 C 
BRANCH  19  20
ATOM     20  C   UNL     1       0.593   9.480  18.985  0.00  0.00    +0.000 C 
BRANCH  20  21
ATOM     21  C   UNL     1       1.193  10.703  19.655  0.00  0.00    +0.000 C 
BRANCH  21  22
ATOM     22  C   UNL     1       1.221  11.868  18.679  0.00  0.00    +0.000 C 
BRANCH  22  23
ATOM     23  C   UNL     1      -0.133  12.554  18.651  0.00  0.00    +0.000 C 
BRANCH  23  24
ATOM     24  C   UNL     1      -0.307  13.413  19.893  0.00  0.00    +0.000 C 
BRANCH  24  25
ATOM     25  C   UNL     1       0.823  14.418  19.999  0.00  0.00    +0.000 C 
BRANCH  25  26
ATOM     26  C   UNL     1       0.718  15.474  18.907  0.00  0.00    +0.000 C 
BRANCH  26  27
ATOM     27  C   UNL     1       1.705  16.618  19.122  0.00  0.00    +0.000 C 
BRANCH  27  28
ATOM     28  S   UNL     1       3.094  16.454  17.998  0.00  0.00    +0.000 S 
ATOM     29  O   UNL     1       2.991  17.529  17.033  0.00  0.00    +0.000 OA
ATOM     30  O   UNL     1       3.179  15.068  17.572  0.00  0.00    +0.000 OA
BRANCH  28  32
ATOM     31  C   UNL     1       4.752  15.563  19.930  0.00  0.00    +0.000 C 
ATOM     32  C   UNL     1       4.540  16.737  18.990  0.00  0.00    +0.000 C 
ENDBRANCH  28  32
ENDBRANCH  27  28
ENDBRANCH  26  27
ENDBRANCH  25  26
ENDBRANCH  24  25
ENDBRANCH  23  24
ENDBRANCH  22  23
ENDBRANCH  21  22
ENDBRANCH  20  21
ENDBRANCH  19  20
ENDBRANCH  18  19
ENDBRANCH   1  18
TORSDOF 21
ENDMDL
MODEL 5
REMARK VINA RESULT:      -5.6      3.398      4.132
REMARK  Name = 
REMARK  22 active torsions:
REMARK  status: ('A' for Active; 'I' for Inactive)
REMARK    1  A    between atoms: C_1  and  C_2
REMARK    2  A    between atoms: C_2  and  S_3
REMARK    3  A    between atoms: S_3  and  C_6
REMARK    4  A    between atoms: C_6  and  C_7
REMARK    5  A    between atoms: C_7  and  C_8
REMARK    6  A    between atoms: C_8  and  C_9
REMARK    7  A    between atoms: C_9  and  C_10
REMARK    8  A    between atoms: C_10  and  C_11
REMARK    9  A    between atoms: C_11  and  C_12
REMARK   10  A    between atoms: C_12  and  C_13
REMARK   11  A    between atoms: C_13  and  C_14
REMARK   12  A    between atoms: C_14  and  C_15
REMARK   13  A    between atoms: C_15  and  C_16
REMARK   14  A    between atoms: C_16  and  C_17
REMARK   15  A    between atoms: C_17  and  C_18
REMARK   16  A    between atoms: C_18  and  C_19
REMARK   17  A    between atoms: C_19  and  C_20
REMARK   18  A    between atoms: C_20  and  C_21
REMARK   19  A    between atoms: C_21  and  O_22
REMARK   20  A    between atoms: O_22  and  C_23
REMARK   21  A    between atoms: C_26  and  C_27
REMARK   22  A    between atoms: C_27  and  O_29
REMARK                            x       y       z     vdW  Elec       q    Type
REMARK                         _______ _______ _______ _____ _____    ______ ____
ROOT
ATOM      1  C   UNL     1       2.303   7.926  19.025  0.00  0.00    +0.000 C 
ENDROOT
BRANCH   1   2
ATOM      2  C   UNL     1       2.522   6.426  18.938  0.00  0.00    +0.000 C 
BRANCH   2   3
ATOM      3  C   UNL     1       2.177   5.773  20.263  0.00  0.00    +0.000 C 
BRANCH   3   4
ATOM      4  C   UNL     1       1.163   4.655  20.059  0.00  0.00    +0.000 C 
BRANCH   4   5
ATOM      5  C   UNL     1       1.583   3.394  20.803  0.00  0.00    +0.000 C 
BRANCH   5   6
ATOM      6  C   UNL     1       3.045   3.064  20.528  0.00  0.00    +0.000 C 
BRANCH   6   7
ATOM      7  O   UNL     1       3.160   2.559  19.197  0.00  0.00    +0.000 OA
BRANCH   7   8
ATOM      8  C   UNL     1       4.028   3.234  18.384  0.00  0.00    +0.000 A 
ATOM      9  C   UNL     1       5.144   3.777  19.018  0.00  0.00    +0.000 A 
ATOM     10  C   UNL     1       6.044   4.575  18.302  0.00  0.00    +0.000 A 
ATOM     11  C   UNL     1       5.888   4.768  16.916  0.00  0.00    +0.000 A 
ATOM     12  C   UNL     1       4.780   4.194  16.283  0.00  0.00    +0.000 A 
ATOM     13  C   UNL     1       3.859   3.430  17.013  0.00  0.00    +0.000 A 
BRANCH  11  14
ATOM     14  C   UNL     1       6.958   5.569  16.223  0.00  0.00    +0.000 C 
ATOM     15  O   UNL     1       7.322   5.295  15.100  0.00  0.00    +0.000 OA
BRANCH  14  16
ATOM     16  O   UNL     1       7.485   6.618  16.891  0.00  0.00    +0.000 OA
ATOM     17  H   UNL     1       7.499   7.485  16.465  0.00  0.00    +0.000 HD
ENDBRANCH  14  16
ENDBRANCH  11  14
ENDBRANCH   7   8
ENDBRANCH   6   7
ENDBRANCH   5   6
ENDBRANCH   4   5
ENDBRANCH   3   4
ENDBRANCH   2   3
ENDBRANCH   1   2
BRANCH   1  18
ATOM     18  C   UNL     1       1.698   8.437  17.730  0.00  0.00    +0.000 C 
BRANCH  18  19
ATOM     19  C   UNL     1       0.875   9.685  17.997  0.00  0.00    +0.000 C 
BRANCH  19  20
ATOM     20  C   UNL     1       0.688   9.873  19.492  0.00  0.00    +0.000 C 
BRANCH  20  21
ATOM     21  C   UNL     1      -0.659  10.515  19.769  0.00  0.00    +0.000 C 
BRANCH  21  22
ATOM     22  C   UNL     1      -0.468  11.795  20.566  0.00  0.00    +0.000 C 
BRANCH  22  23
ATOM     23  C   UNL     1       1.013  12.085  20.736  0.00  0.00    +0.000 C 
BRANCH  23  24
ATOM     24  C   UNL     1       1.239  13.584  20.854  0.00  0.00    +0.000 C 
BRANCH  24  25
ATOM     25  C   UNL     1       0.118  14.339  20.167  0.00  0.00    +0.000 C 
BRANCH  25  26
ATOM     26  C   UNL     1       0.579  14.899  18.828  0.00  0.00    +0.000 C 
BRANCH  26  27
ATOM     27  C   UNL     1       1.890  15.673  18.952  0.00  0.00    +0.000 C 
BRANCH  27  28
ATOM     28  S   UNL     1       1.687  17.336  18.313  0.00  0.00    +0.000 S 
ATOM     29  O   UNL     1       2.536  17.451  17.145  0.00  0.00    +0.000 OA
ATOM     30  O   UNL     1       1.802  18.271  19.419  0.00  0.00    +0.000 OA
BRANCH  28  32
ATOM     31  C   UNL     1      -0.765  18.404  18.667  0.00  0.00    +0.000 C 
ATOM     32  C   UNL     1      -0.005  17.434  17.780  0.00  0.00    +0.000 C 
ENDBRANCH  28  32
ENDBRANCH  27  28
ENDBRANCH  26  27
ENDBRANCH  25  26
ENDBRANCH  24  25
ENDBRANCH  23  24
ENDBRANCH  22  23
ENDBRANCH  21  22
ENDBRANCH  20  21
ENDBRANCH  19  20
ENDBRANCH  18  19
ENDBRANCH   1  18
TORSDOF 21
ENDMDL
MODEL 6
REMARK VINA RESULT:      -5.5      3.276      9.696
REMARK  Name = 
REMARK  22 active torsions:
REMARK  status: ('A' for Active; 'I' for Inactive)
REMARK    1  A    between atoms: C_1  and  C_2
REMARK    2  A    between atoms: C_2  and  S_3
REMARK    3  A    between atoms: S_3  and  C_6
REMARK    4  A    between atoms: C_6  and  C_7
REMARK    5  A    between atoms: C_7  and  C_8
REMARK    6  A    between atoms: C_8  and  C_9
REMARK    7  A    between atoms: C_9  and  C_10
REMARK    8  A    between atoms: C_10  and  C_11
REMARK    9  A    between atoms: C_11  and  C_12
REMARK   10  A    between atoms: C_12  and  C_13
REMARK   11  A    between atoms: C_13  and  C_14
REMARK   12  A    between atoms: C_14  and  C_15
REMARK   13  A    between atoms: C_15  and  C_16
REMARK   14  A    between atoms: C_16  and  C_17
REMARK   15  A    between atoms: C_17  and  C_18
REMARK   16  A    between atoms: C_18  and  C_19
REMARK   17  A    between atoms: C_19  and  C_20
REMARK   18  A    between atoms: C_20  and  C_21
REMARK   19  A    between atoms: C_21  and  O_22
REMARK   20  A    between atoms: O_22  and  C_23
REMARK   21  A    between atoms: C_26  and  C_27
REMARK   22  A    between atoms: C_27  and  O_29
REMARK                            x       y       z     vdW  Elec       q    Type
REMARK                         _______ _______ _______ _____ _____    ______ ____
ROOT
ATOM      1  C   UNL     1       1.939   3.425  21.620  0.00  0.00    +0.000 C 
ENDROOT
BRANCH   1   2
ATOM      2  C   UNL     1       2.264   4.873  21.296  0.00  0.00    +0.000 C 
BRANCH   2   3
ATOM      3  C   UNL     1       1.281   5.411  20.274  0.00  0.00    +0.000 C 
BRANCH   3   4
ATOM      4  C   UNL     1       0.792   6.794  20.680  0.00  0.00    +0.000 C 
BRANCH   4   5
ATOM      5  C   UNL     1       1.957   7.692  21.075  0.00  0.00    +0.000 C 
BRANCH   5   6
ATOM      6  C   UNL     1       1.455   9.013  21.644  0.00  0.00    +0.000 C 
BRANCH   6   7
ATOM      7  O   UNL     1       0.421   9.516  20.797  0.00  0.00    +0.000 OA
BRANCH   7   8
ATOM      8  C   UNL     1      -0.442  10.399  21.383  0.00  0.00    +0.000 A 
ATOM      9  C   UNL     1      -0.919  11.412  20.554  0.00  0.00    +0.000 A 
ATOM     10  C   UNL     1      -1.727  12.430  21.074  0.00  0.00    +0.000 A 
ATOM     11  C   UNL     1      -2.144  12.400  22.419  0.00  0.00    +0.000 A 
ATOM     12  C   UNL     1      -1.682  11.361  23.237  0.00  0.00    +0.000 A 
ATOM     13  C   UNL     1      -0.841  10.368  22.720  0.00  0.00    +0.000 A 
BRANCH  11  14
ATOM     14  C   UNL     1      -3.081  13.491  22.858  0.00  0.00    +0.000 C 
ATOM     15  O   UNL     1      -2.665  14.559  23.254  0.00  0.00    +0.000 OA
BRANCH  14  16
ATOM     16  O   UNL     1      -4.408  13.247  22.779  0.00  0.00    +0.000 OA
ATOM     17  H   UNL     1      -4.800  12.595  23.373  0.00  0.00    +0.000 HD
ENDBRANCH  14  16
ENDBRANCH  11  14
ENDBRANCH   7   8
ENDBRANCH   6   7
ENDBRANCH   5   6
ENDBRANCH   4   5
ENDBRANCH   3   4
ENDBRANCH   2   3
ENDBRANCH   1   2
BRANCH   1  18
ATOM     18  C   UNL     1       1.120   2.815  20.497  0.00  0.00    +0.000 C 
BRANCH  18  19
ATOM     19  C   UNL     1       2.024   2.032  19.561  0.00  0.00    +0.000 C 
BRANCH  19  20
ATOM     20  C   UNL     1       1.604   2.265  18.121  0.00  0.00    +0.000 C 
BRANCH  20  21
ATOM     21  C   UNL     1       2.720   2.961  17.362  0.00  0.00    +0.000 C 
BRANCH  21  22
ATOM     22  C   UNL     1       3.991   2.963  18.197  0.00  0.00    +0.000 C 
BRANCH  22  23
ATOM     23  C   UNL     1       4.409   4.391  18.502  0.00  0.00    +0.000 C 
BRANCH  23  24
ATOM     24  C   UNL     1       3.716   5.351  17.547  0.00  0.00    +0.000 C 
BRANCH  24  25
ATOM     25  C   UNL     1       4.248   6.757  17.739  0.00  0.00    +0.000 C 
BRANCH  25  26
ATOM     26  C   UNL     1       5.613   6.919  17.084  0.00  0.00    +0.000 C 
BRANCH  26  27
ATOM     27  C   UNL     1       5.636   6.355  15.665  0.00  0.00    +0.000 C 
BRANCH  27  28
ATOM     28  S   UNL     1       6.935   5.127  15.512  0.00  0.00    +0.000 S 
ATOM     29  O   UNL     1       7.479   4.914  16.837  0.00  0.00    +0.000 OA
ATOM     30  O   UNL     1       7.792   5.501  14.400  0.00  0.00    +0.000 OA
BRANCH  28  32
ATOM     31  C   UNL     1       5.536   3.821  13.611  0.00  0.00    +0.000 C 
ATOM     32  C   UNL     1       6.116   3.636  15.002  0.00  0.00    +0.000 C 
ENDBRANCH  28  32
ENDBRANCH  27  28
ENDBRANCH  26  27
ENDBRANCH  25  26
ENDBRANCH  24  25
ENDBRANCH  23  24
ENDBRANCH  22  23
ENDBRANCH  21  22
ENDBRANCH  20  21
ENDBRANCH  19  20
ENDBRANCH  18  19
ENDBRANCH   1  18
TORSDOF 21
ENDMDL
MODEL 7
REMARK VINA RESULT:      -5.5      2.627      9.588
REMARK  Name = 
REMARK  22 active torsions:
REMARK  status: ('A' for Active; 'I' for Inactive)
REMARK    1  A    between atoms: C_1  and  C_2
REMARK    2  A    between atoms: C_2  and  S_3
REMARK    3  A    between atoms: S_3  and  C_6
REMARK    4  A    between atoms: C_6  and  C_7
REMARK    5  A    between atoms: C_7  and  C_8
REMARK    6  A    between atoms: C_8  and  C_9
REMARK    7  A    between atoms: C_9  and  C_10
REMARK    8  A    between atoms: C_10  and  C_11
REMARK    9  A    between atoms: C_11  and  C_12
REMARK   10  A    between atoms: C_12  and  C_13
REMARK   11  A    between atoms: C_13  and  C_14
REMARK   12  A    between atoms: C_14  and  C_15
REMARK   13  A    between atoms: C_15  and  C_16
REMARK   14  A    between atoms: C_16  and  C_17
REMARK   15  A    between atoms: C_17  and  C_18
REMARK   16  A    between atoms: C_18  and  C_19
REMARK   17  A    between atoms: C_19  and  C_20
REMARK   18  A    between atoms: C_20  and  C_21
REMARK   19  A    between atoms: C_21  and  O_22
REMARK   20  A    between atoms: O_22  and  C_23
REMARK   21  A    between atoms: C_26  and  C_27
REMARK   22  A    between atoms: C_27  and  O_29
REMARK                            x       y       z     vdW  Elec       q    Type
REMARK                         _______ _______ _______ _____ _____    ______ ____
ROOT
ATOM      1  C   UNL     1       1.304   7.769  21.187  0.00  0.00    +0.000 C 
ENDROOT
BRANCH   1   2
ATOM      2  C   UNL     1       1.427   9.218  21.623  0.00  0.00    +0.000 C 
BRANCH   2   3
ATOM      3  C   UNL     1       0.360   9.546  22.650  0.00  0.00    +0.000 C 
BRANCH   3   4
ATOM      4  C   UNL     1      -0.663  10.512  22.068  0.00  0.00    +0.000 C 
BRANCH   4   5
ATOM      5  C   UNL     1      -0.606  10.518  20.546  0.00  0.00    +0.000 C 
BRANCH   5   6
ATOM      6  C   UNL     1      -1.209  11.799  19.986  0.00  0.00    +0.000 C 
BRANCH   6   7
ATOM      7  O   UNL     1      -2.548  11.531  19.565  0.00  0.00    +0.000 OA
BRANCH   7   8
ATOM      8  C   UNL     1      -2.684  11.098  18.275  0.00  0.00    +0.000 A 
ATOM      9  C   UNL     1      -3.640  11.769  17.515  0.00  0.00    +0.000 A 
ATOM     10  C   UNL     1      -3.936  11.342  16.216  0.00  0.00    +0.000 A 
ATOM     11  C   UNL     1      -3.213  10.288  15.623  0.00  0.00    +0.000 A 
ATOM     12  C   UNL     1      -2.235   9.639  16.385  0.00  0.00    +0.000 A 
ATOM     13  C   UNL     1      -1.971  10.045  17.700  0.00  0.00    +0.000 A 
BRANCH  11  14
ATOM     14  C   UNL     1      -3.547   9.963  14.192  0.00  0.00    +0.000 C 
ATOM     15  O   UNL     1      -4.645   9.556  13.878  0.00  0.00    +0.000 OA
BRANCH  14  16
ATOM     16  O   UNL     1      -2.585  10.159  13.265  0.00  0.00    +0.000 OA
ATOM     17  H   UNL     1      -1.754   9.672  13.342  0.00  0.00    +0.000 HD
ENDBRANCH  14  16
ENDBRANCH  11  14
ENDBRANCH   7   8
ENDBRANCH   6   7
ENDBRANCH   5   6
ENDBRANCH   4   5
ENDBRANCH   3   4
ENDBRANCH   2   3
ENDBRANCH   1   2
BRANCH   1  18
ATOM     18  C   UNL     1       1.843   7.604  19.778  0.00  0.00    +0.000 C 
BRANCH  18  19
ATOM     19  C   UNL     1       2.701   6.354  19.692  0.00  0.00    +0.000 C 
BRANCH  19  20
ATOM     20  C   UNL     1       2.161   5.290  20.630  0.00  0.00    +0.000 C 
BRANCH  20  21
ATOM     21  C   UNL     1       1.643   4.108  19.831  0.00  0.00    +0.000 C 
BRANCH  21  22
ATOM     22  C   UNL     1       2.519   2.891  20.077  0.00  0.00    +0.000 C 
BRANCH  22  23
ATOM     23  C   UNL     1       3.152   2.434  18.774  0.00  0.00    +0.000 C 
BRANCH  23  24
ATOM     24  C   UNL     1       2.538   3.188  17.606  0.00  0.00    +0.000 C 
BRANCH  24  25
ATOM     25  C   UNL     1       3.598   4.006  16.895  0.00  0.00    +0.000 C 
BRANCH  25  26
ATOM     26  C   UNL     1       4.951   3.857  17.576  0.00  0.00    +0.000 C 
BRANCH  26  27
ATOM     27  C   UNL     1       5.647   5.203  17.769  0.00  0.00    +0.000 C 
BRANCH  27  28
ATOM     28  S   UNL     1       6.818   5.487  16.441  0.00  0.00    +0.000 S 
ATOM     29  O   UNL     1       7.822   4.446  16.527  0.00  0.00    +0.000 OA
ATOM     30  O   UNL     1       7.191   6.891  16.450  0.00  0.00    +0.000 OA
BRANCH  28  32
ATOM     31  C   UNL     1       6.562   4.172  14.100  0.00  0.00    +0.000 C 
ATOM     32  C   UNL     1       5.898   5.248  14.941  0.00  0.00    +0.000 C 
ENDBRANCH  28  32
ENDBRANCH  27  28
ENDBRANCH  26  27
ENDBRANCH  25  26
ENDBRANCH  24  25
ENDBRANCH  23  24
ENDBRANCH  22  23
ENDBRANCH  21  22
ENDBRANCH  20  21
ENDBRANCH  19  20
ENDBRANCH  18  19
ENDBRANCH   1  18
TORSDOF 21
ENDMDL
MODEL 8
REMARK VINA RESULT:      -5.5      4.301      5.378
REMARK  Name = 
REMARK  22 active torsions:
REMARK  status: ('A' for Active; 'I' for Inactive)
REMARK    1  A    between atoms: C_1  and  C_2
REMARK    2  A    between atoms: C_2  and  S_3
REMARK    3  A    between atoms: S_3  and  C_6
REMARK    4  A    between atoms: C_6  and  C_7
REMARK    5  A    between atoms: C_7  and  C_8
REMARK    6  A    between atoms: C_8  and  C_9
REMARK    7  A    between atoms: C_9  and  C_10
REMARK    8  A    between atoms: C_10  and  C_11
REMARK    9  A    between atoms: C_11  and  C_12
REMARK   10  A    between atoms: C_12  and  C_13
REMARK   11  A    between atoms: C_13  and  C_14
REMARK   12  A    between atoms: C_14  and  C_15
REMARK   13  A    between atoms: C_15  and  C_16
REMARK   14  A    between atoms: C_16  and  C_17
REMARK   15  A    between atoms: C_17  and  C_18
REMARK   16  A    between atoms: C_18  and  C_19
REMARK   17  A    between atoms: C_19  and  C_20
REMARK   18  A    between atoms: C_20  and  C_21
REMARK   19  A    between atoms: C_21  and  O_22
REMARK   20  A    between atoms: O_22  and  C_23
REMARK   21  A    between atoms: C_26  and  C_27
REMARK   22  A    between atoms: C_27  and  O_29
REMARK                            x       y       z     vdW  Elec       q    Type
REMARK                         _______ _______ _______ _____ _____    ______ ____
ROOT
ATOM      1  C   UNL     1       2.240   8.310  17.811  0.00  0.00    +0.000 C 
ENDROOT
BRANCH   1   2
ATOM      2  C   UNL     1       2.414   7.633  19.159  0.00  0.00    +0.000 C 
BRANCH   2   3
ATOM      3  C   UNL     1       2.071   6.159  19.049  0.00  0.00    +0.000 C 
BRANCH   3   4
ATOM      4  C   UNL     1       1.748   5.581  20.420  0.00  0.00    +0.000 C 
BRANCH   4   5
ATOM      5  C   UNL     1       1.280   4.137  20.308  0.00  0.00    +0.000 C 
BRANCH   5   6
ATOM      6  C   UNL     1       2.393   3.173  20.701  0.00  0.00    +0.000 C 
BRANCH   6   7
ATOM      7  O   UNL     1       2.794   2.438  19.544  0.00  0.00    +0.000 OA
BRANCH   7   8
ATOM      8  C   UNL     1       3.687   3.072  18.724  0.00  0.00    +0.000 A 
ATOM      9  C   UNL     1       4.802   3.615  19.357  0.00  0.00    +0.000 A 
ATOM     10  C   UNL     1       5.726   4.375  18.631  0.00  0.00    +0.000 A 
ATOM     11  C   UNL     1       5.595   4.527  17.237  0.00  0.00    +0.000 A 
ATOM     12  C   UNL     1       4.486   3.951  16.605  0.00  0.00    +0.000 A 
ATOM     13  C   UNL     1       3.542   3.227  17.345  0.00  0.00    +0.000 A 
BRANCH  11  14
ATOM     14  C   UNL     1       6.689   5.287  16.536  0.00  0.00    +0.000 C 
ATOM     15  O   UNL     1       6.565   6.462  16.265  0.00  0.00    +0.000 OA
BRANCH  14  16
ATOM     16  O   UNL     1       7.823   4.617  16.236  0.00  0.00    +0.000 OA
ATOM     17  H   UNL     1       8.653   5.107  16.173  0.00  0.00    +0.000 HD
ENDBRANCH  14  16
ENDBRANCH  11  14
ENDBRANCH   7   8
ENDBRANCH   6   7
ENDBRANCH   5   6
ENDBRANCH   4   5
ENDBRANCH   3   4
ENDBRANCH   2   3
ENDBRANCH   1   2
BRANCH   1  18
ATOM     18  C   UNL     1       1.726   9.725  18.005  0.00  0.00    +0.000 C 
BRANCH  18  19
ATOM     19  C   UNL     1       0.207   9.732  17.994  0.00  0.00    +0.000 C 
BRANCH  19  20
ATOM     20  C   UNL     1      -0.313  10.736  19.007  0.00  0.00    +0.000 C 
BRANCH  20  21
ATOM     21  C   UNL     1       0.782  11.085  19.999  0.00  0.00    +0.000 C 
BRANCH  21  22
ATOM     22  C   UNL     1       0.572  12.495  20.527  0.00  0.00    +0.000 C 
BRANCH  22  23
ATOM     23  C   UNL     1       0.253  13.438  19.379  0.00  0.00    +0.000 C 
BRANCH  23  24
ATOM     24  C   UNL     1       1.402  14.412  19.173  0.00  0.00    +0.000 C 
BRANCH  24  25
ATOM     25  C   UNL     1       2.371  13.870  18.141  0.00  0.00    +0.000 C 
BRANCH  25  26
ATOM     26  C   UNL     1       3.812  14.115  18.565  0.00  0.00    +0.000 C 
BRANCH  26  27
ATOM     27  C   UNL     1       4.434  15.295  17.823  0.00  0.00    +0.000 C 
BRANCH  27  28
ATOM     28  S   UNL     1       5.800  15.969  18.770  0.00  0.00    +0.000 S 
ATOM     29  O   UNL     1       5.839  15.254  20.030  0.00  0.00    +0.000 OA
ATOM     30  O   UNL     1       5.714  17.418  18.734  0.00  0.00    +0.000 OA
BRANCH  28  32
ATOM     31  C   UNL     1       8.458  16.285  18.437  0.00  0.00    +0.000 C 
ATOM     32  C   UNL     1       7.262  15.554  17.852  0.00  0.00    +0.000 C 
ENDBRANCH  28  32
ENDBRANCH  27  28
ENDBRANCH  26  27
ENDBRANCH  25  26
ENDBRANCH  24  25
ENDBRANCH  23  24
ENDBRANCH  22  23
ENDBRANCH  21  22
ENDBRANCH  20  21
ENDBRANCH  19  20
ENDBRANCH  18  19
ENDBRANCH   1  18
TORSDOF 21
ENDMDL
MODEL 9
REMARK VINA RESULT:      -5.5      3.407     10.585
REMARK  Name = 
REMARK  22 active torsions:
REMARK  status: ('A' for Active; 'I' for Inactive)
REMARK    1  A    between atoms: C_1  and  C_2
REMARK    2  A    between atoms: C_2  and  S_3
REMARK    3  A    between atoms: S_3  and  C_6
REMARK    4  A    between atoms: C_6  and  C_7
REMARK    5  A    between atoms: C_7  and  C_8
REMARK    6  A    between atoms: C_8  and  C_9
REMARK    7  A    between atoms: C_9  and  C_10
REMARK    8  A    between atoms: C_10  and  C_11
REMARK    9  A    between atoms: C_11  and  C_12
REMARK   10  A    between atoms: C_12  and  C_13
REMARK   11  A    between atoms: C_13  and  C_14
REMARK   12  A    between atoms: C_14  and  C_15
REMARK   13  A    between atoms: C_15  and  C_16
REMARK   14  A    between atoms: C_16  and  C_17
REMARK   15  A    between atoms: C_17  and  C_18
REMARK   16  A    between atoms: C_18  and  C_19
REMARK   17  A    between atoms: C_19  and  C_20
REMARK   18  A    between atoms: C_20  and  C_21
REMARK   19  A    between atoms: C_21  and  O_22
REMARK   20  A    between atoms: O_22  and  C_23
REMARK   21  A    between atoms: C_26  and  C_27
REMARK   22  A    between atoms: C_27  and  O_29
REMARK                            x       y       z     vdW  Elec       q    Type
REMARK                         _______ _______ _______ _____ _____    ______ ____
ROOT
ATOM      1  C   UNL     1       2.383   7.759  19.974  0.00  0.00    +0.000 C 
ENDROOT
BRANCH   1   2
ATOM      2  C   UNL     1       1.245   8.439  19.232  0.00  0.00    +0.000 C 
BRANCH   2   3
ATOM      3  C   UNL     1       1.799   9.387  18.186  0.00  0.00    +0.000 C 
BRANCH   3   4
ATOM      4  C   UNL     1       1.452  10.828  18.534  0.00  0.00    +0.000 C 
BRANCH   4   5
ATOM      5  C   UNL     1       1.146  10.973  20.019  0.00  0.00    +0.000 C 
BRANCH   5   6
ATOM      6  C   UNL     1       0.646  12.377  20.335  0.00  0.00    +0.000 C 
BRANCH   6   7
ATOM      7  O   UNL     1       0.678  12.569  21.750  0.00  0.00    +0.000 OA
BRANCH   7   8
ATOM      8  C   UNL     1      -0.530  12.830  22.336  0.00  0.00    +0.000 A 
ATOM      9  C   UNL     1      -1.214  11.718  22.820  0.00  0.00    +0.000 A 
ATOM     10  C   UNL     1      -2.504  11.855  23.345  0.00  0.00    +0.000 A 
ATOM     11  C   UNL     1      -3.095  13.127  23.477  0.00  0.00    +0.000 A 
ATOM     12  C   UNL     1      -2.386  14.243  23.015  0.00  0.00    +0.000 A 
ATOM     13  C   UNL     1      -1.111  14.093  22.452  0.00  0.00    +0.000 A 
BRANCH  11  14
ATOM     14  C   UNL     1      -4.447  13.177  24.135  0.00  0.00    +0.000 C 
ATOM     15  O   UNL     1      -5.289  13.976  23.786  0.00  0.00    +0.000 OA
BRANCH  14  16
ATOM     16  O   UNL     1      -4.698  12.285  25.119  0.00  0.00    +0.000 OA
ATOM     17  H   UNL     1      -3.999  11.677  25.388  0.00  0.00    +0.000 HD
ENDBRANCH  14  16
ENDBRANCH  11  14
ENDBRANCH   7   8
ENDBRANCH   6   7
ENDBRANCH   5   6
ENDBRANCH   4   5
ENDBRANCH   3   4
ENDBRANCH   2   3
ENDBRANCH   1   2
BRANCH   1  18
ATOM     18  C   UNL     1       2.314   6.258  19.764  0.00  0.00    +0.000 C 
BRANCH  18  19
ATOM     19  C   UNL     1       1.427   5.624  20.821  0.00  0.00    +0.000 C 
BRANCH  19  20
ATOM     20  C   UNL     1       1.095   4.195  20.431  0.00  0.00    +0.000 C 
BRANCH  20  21
ATOM     21  C   UNL     1       1.859   3.226  21.316  0.00  0.00    +0.000 C 
BRANCH  21  22
ATOM     22  C   UNL     1       2.931   2.518  20.504  0.00  0.00    +0.000 C 
BRANCH  22  23
ATOM     23  C   UNL     1       2.368   2.093  19.159  0.00  0.00    +0.000 C 
BRANCH  23  24
ATOM     24  C   UNL     1       3.482   2.028  18.126  0.00  0.00    +0.000 C 
BRANCH  24  25
ATOM     25  C   UNL     1       3.266   3.079  17.055  0.00  0.00    +0.000 C 
BRANCH  25  26
ATOM     26  C   UNL     1       4.038   4.351  17.375  0.00  0.00    +0.000 C 
BRANCH  26  27
ATOM     27  C   UNL     1       5.255   4.524  16.469  0.00  0.00    +0.000 C 
BRANCH  27  28
ATOM     28  S   UNL     1       6.718   4.844  17.456  0.00  0.00    +0.000 S 
ATOM     29  O   UNL     1       7.853   4.328  16.717  0.00  0.00    +0.000 OA
ATOM     30  O   UNL     1       6.455   4.418  18.819  0.00  0.00    +0.000 OA
BRANCH  28  32
ATOM     31  C   UNL     1       7.999   6.996  18.459  0.00  0.00    +0.000 C 
ATOM     32  C   UNL     1       6.862   6.613  17.528  0.00  0.00    +0.000 C 
ENDBRANCH  28  32
ENDBRANCH  27  28
ENDBRANCH  26  27
ENDBRANCH  25  26
ENDBRANCH  24  25
ENDBRANCH  23  24
ENDBRANCH  22  23
ENDBRANCH  21  22
ENDBRANCH  20  21
ENDBRANCH  19  20
ENDBRANCH  18  19
ENDBRANCH   1  18
TORSDOF 21
ENDMDL
