MODEL 1
REMARK VINA RESULT:      -7.9      0.000      0.000
REMARK  Name = 
REMARK  11 active torsions:
REMARK  status: ('A' for Active; 'I' for Inactive)
REMARK    1  A    between atoms: C_1  and  C_2
REMARK    2  A    between atoms: C_5  and  S_6
REMARK    3  A    between atoms: S_6  and  N_9
REMARK    4  A    between atoms: N_9  and  C_10
REMARK    5  A    between atoms: C_10  and  C_11
REMARK    6  A    between atoms: C_11  and  C_12
REMARK    7  A    between atoms: N_14  and  N_15
REMARK    8  A    between atoms: C_16  and  C_18
REMARK    9  A    between atoms: C_18  and  O_19
REMARK   10  A    between atoms: O_19  and  C_20
REMARK   11  A    between atoms: C_28  and  C_29
REMARK                            x       y       z     vdW  Elec       q    Type
REMARK                         _______ _______ _______ _____ _____    ______ ____
ROOT
ATOM      1  C   UNL     1       5.563   4.189  18.871  0.00  0.00    +0.000 C 
ATOM      2  O   UNL     1       4.884   5.096  19.270  0.00  0.00    +0.000 OA
ATOM      3  N   UNL     1       6.946   4.260  18.547  0.00  0.00    +0.000 N 
ATOM      4  H   UNL     1       7.359   3.574  17.930  0.00  0.00    +0.000 HD
ENDROOT
BRANCH   3   5
ATOM      5  N   UNL     1       7.720   5.392  18.927  0.00  0.00    +0.000 N 
ATOM      6  C   UNL     1       7.834   6.549  18.213  0.00  0.00    +0.000 C 
ATOM      7  O   UNL     1       8.480   7.507  18.683  0.00  0.00    +0.000 OA
ATOM      8  H   UNL     1       8.157   5.375  19.880  0.00  0.00    +0.000 HD
BRANCH   6   9
ATOM      9  C   UNL     1       7.128   6.678  16.846  0.00  0.00    +0.000 C 
BRANCH   9  10
ATOM     10  O   UNL     1       7.736   6.060  15.720  0.00  0.00    +0.000 OA
BRANCH  10  11
ATOM     11  C   UNL     1       7.031   5.362  14.803  0.00  0.00    +0.000 A 
ATOM     12  C   UNL     1       5.815   4.738  15.079  0.00  0.00    +0.000 A 
ATOM     13  C   UNL     1       5.266   3.915  14.124  0.00  0.00    +0.000 A 
ATOM     14  C   UNL     1       5.903   3.743  12.896  0.00  0.00    +0.000 A 
ATOM     15 BR   UNL     1       5.118   2.585  11.619  0.00  0.00    +0.000 Br
ATOM     16  C   UNL     1       7.082   4.410  12.591  0.00  0.00    +0.000 A 
ATOM     17  C   UNL     1       7.636   5.244  13.562  0.00  0.00    +0.000 A 
ENDBRANCH  10  11
ENDBRANCH   9  10
ENDBRANCH   6   9
ENDBRANCH   3   5
BRANCH   1  18
ATOM     18  C   UNL     1       4.854   2.933  18.603  0.00  0.00    +0.000 C 
BRANCH  18  19
ATOM     19  C   UNL     1       4.012   2.475  19.806  0.00  0.00    +0.000 C 
BRANCH  19  20
ATOM     20  N   UNL     1       2.731   1.854  19.364  0.00  0.00    +0.000 NA
ATOM     21  H   UNL     1       2.688   1.656  18.361  0.00  0.00    +0.000 HD
BRANCH  20  22
ATOM     22  S   UNL     1       1.313   2.670  19.864  0.00  0.00    +0.000 S 
ATOM     23  O   UNL     1       1.291   2.639  21.314  0.00  0.00    +0.000 OA
ATOM     24  O   UNL     1       0.220   2.164  19.076  0.00  0.00    +0.000 OA
BRANCH  22  29
ATOM     25  C   UNL     1       2.362   8.453  18.238  0.00  0.00    +0.000 C 
ATOM     26  C   UNL     1       2.074   7.033  18.647  0.00  0.00    +0.000 A 
ATOM     27  C   UNL     1       2.042   6.021  17.670  0.00  0.00    +0.000 A 
ATOM     28  C   UNL     1       1.804   4.686  18.018  0.00  0.00    +0.000 A 
ATOM     29  C   UNL     1       1.619   4.355  19.363  0.00  0.00    +0.000 A 
ATOM     30  C   UNL     1       1.604   5.359  20.337  0.00  0.00    +0.000 A 
ATOM     31  C   UNL     1       1.834   6.697  19.994  0.00  0.00    +0.000 A 
ATOM     32  C   UNL     1       1.817   7.747  21.074  0.00  0.00    +0.000 C 
ENDBRANCH  22  29
ENDBRANCH  20  22
ENDBRANCH  19  20
ENDBRANCH  18  19
ENDBRANCH   1  18
TORSDOF 9
ENDMDL
MODEL 2
REMARK VINA RESULT:      -7.9      1.869      2.833
REMARK  Name = 
REMARK  11 active torsions:
REMARK  status: ('A' for Active; 'I' for Inactive)
REMARK    1  A    between atoms: C_1  and  C_2
REMARK    2  A    between atoms: C_5  and  S_6
REMARK    3  A    between atoms: S_6  and  N_9
REMARK    4  A    between atoms: N_9  and  C_10
REMARK    5  A    between atoms: C_10  and  C_11
REMARK    6  A    between atoms: C_11  and  C_12
REMARK    7  A    between atoms: N_14  and  N_15
REMARK    8  A    between atoms: C_16  and  C_18
REMARK    9  A    between atoms: C_18  and  O_19
REMARK   10  A    between atoms: O_19  and  C_20
REMARK   11  A    between atoms: C_28  and  C_29
REMARK                            x       y       z     vdW  Elec       q    Type
REMARK                         _______ _______ _______ _____ _____    ______ ____
ROOT
ATOM      1  C   UNL     1       3.896   3.031  17.997  0.00  0.00    +0.000 C 
ATOM      2  O   UNL     1       4.017   2.122  18.772  0.00  0.00    +0.000 OA
ATOM      3  N   UNL     1       4.810   4.107  17.820  0.00  0.00    +0.000 N 
ATOM      4  H   UNL     1       4.499   4.974  17.404  0.00  0.00    +0.000 HD
ENDROOT
BRANCH   3   5
ATOM      5  N   UNL     1       6.112   4.049  18.391  0.00  0.00    +0.000 N 
ATOM      6  C   UNL     1       7.164   4.846  18.045  0.00  0.00    +0.000 C 
ATOM      7  O   UNL     1       8.241   4.758  18.670  0.00  0.00    +0.000 OA
ATOM      8  H   UNL     1       6.246   3.411  19.212  0.00  0.00    +0.000 HD
BRANCH   6   9
ATOM      9  C   UNL     1       7.001   5.880  16.911  0.00  0.00    +0.000 C 
BRANCH   9  10
ATOM     10  O   UNL     1       7.598   5.592  15.654  0.00  0.00    +0.000 OA
BRANCH  10  11
ATOM     11  C   UNL     1       6.919   5.009  14.643  0.00  0.00    +0.000 A 
ATOM     12  C   UNL     1       5.628   4.498  14.775  0.00  0.00    +0.000 A 
ATOM     13  C   UNL     1       5.095   3.777  13.733  0.00  0.00    +0.000 A 
ATOM     14  C   UNL     1       5.826   3.595  12.559  0.00  0.00    +0.000 A 
ATOM     15 BR   UNL     1       5.058   2.579  11.158  0.00  0.00    +0.000 Br
ATOM     16  C   UNL     1       7.086   4.154  12.396  0.00  0.00    +0.000 A 
ATOM     17  C   UNL     1       7.624   4.884  13.455  0.00  0.00    +0.000 A 
ENDBRANCH  10  11
ENDBRANCH   9  10
ENDBRANCH   6   9
ENDBRANCH   3   5
BRANCH   1  18
ATOM     18  C   UNL     1       2.632   3.068  17.251  0.00  0.00    +0.000 C 
BRANCH  18  19
ATOM     19  C   UNL     1       1.579   3.952  17.940  0.00  0.00    +0.000 C 
BRANCH  19  20
ATOM     20  N   UNL     1       2.095   5.333  18.163  0.00  0.00    +0.000 NA
ATOM     21  H   UNL     1       2.872   5.591  17.549  0.00  0.00    +0.000 HD
BRANCH  20  22
ATOM     22  S   UNL     1       2.473   5.719  19.786  0.00  0.00    +0.000 S 
ATOM     23  O   UNL     1       3.919   5.791  19.882  0.00  0.00    +0.000 OA
ATOM     24  O   UNL     1       1.697   4.849  20.631  0.00  0.00    +0.000 OA
BRANCH  22  29
ATOM     25  C   UNL     1       0.310  11.396  20.318  0.00  0.00    +0.000 C 
ATOM     26  C   UNL     1       0.873  10.005  20.187  0.00  0.00    +0.000 A 
ATOM     27  C   UNL     1       0.730   9.095  21.250  0.00  0.00    +0.000 A 
ATOM     28  C   UNL     1       1.218   7.786  21.152  0.00  0.00    +0.000 A 
ATOM     29  C   UNL     1       1.834   7.376  19.967  0.00  0.00    +0.000 A 
ATOM     30  C   UNL     1       2.022   8.286  18.921  0.00  0.00    +0.000 A 
ATOM     31  C   UNL     1       1.544   9.598  19.016  0.00  0.00    +0.000 A 
ATOM     32  C   UNL     1       1.759  10.546  17.865  0.00  0.00    +0.000 C 
ENDBRANCH  22  29
ENDBRANCH  20  22
ENDBRANCH  19  20
ENDBRANCH  18  19
ENDBRANCH   1  18
TORSDOF 9
ENDMDL
MODEL 3
REMARK VINA RESULT:      -7.8      4.347      6.165
REMARK  Name = 
REMARK  11 active torsions:
REMARK  status: ('A' for Active; 'I' for Inactive)
REMARK    1  A    between atoms: C_1  and  C_2
REMARK    2  A    between atoms: C_5  and  S_6
REMARK    3  A    between atoms: S_6  and  N_9
REMARK    4  A    between atoms: N_9  and  C_10
REMARK    5  A    between atoms: C_10  and  C_11
REMARK    6  A    between atoms: C_11  and  C_12
REMARK    7  A    between atoms: N_14  and  N_15
REMARK    8  A    between atoms: C_16  and  C_18
REMARK    9  A    between atoms: C_18  and  O_19
REMARK   10  A    between atoms: O_19  and  C_20
REMARK   11  A    between atoms: C_28  and  C_29
REMARK                            x       y       z     vdW  Elec       q    Type
REMARK                         _______ _______ _______ _____ _____    ______ ____
ROOT
ATOM      1  C   UNL     1       2.434   6.449  18.804  0.00  0.00    +0.000 C 
ATOM      2  O   UNL     1       1.514   5.855  18.309  0.00  0.00    +0.000 OA
ATOM      3  N   UNL     1       2.827   6.393  20.170  0.00  0.00    +0.000 N 
ATOM      4  H   UNL     1       3.379   7.139  20.571  0.00  0.00    +0.000 HD
ENDROOT
BRANCH   3   5
ATOM      5  N   UNL     1       2.296   5.394  21.034  0.00  0.00    +0.000 N 
ATOM      6  C   UNL     1       2.598   4.065  20.985  0.00  0.00    +0.000 C 
ATOM      7  O   UNL     1       2.131   3.290  21.845  0.00  0.00    +0.000 OA
ATOM      8  H   UNL     1       1.702   5.719  21.834  0.00  0.00    +0.000 HD
BRANCH   6   9
ATOM      9  C   UNL     1       3.551   3.535  19.892  0.00  0.00    +0.000 C 
BRANCH   9  10
ATOM     10  O   UNL     1       4.752   4.254  19.649  0.00  0.00    +0.000 OA
BRANCH  10  11
ATOM     11  C   UNL     1       5.358   4.272  18.441  0.00  0.00    +0.000 A 
ATOM     12  C   UNL     1       6.672   4.695  18.245  0.00  0.00    +0.000 A 
ATOM     13  C   UNL     1       7.134   4.833  16.958  0.00  0.00    +0.000 A 
ATOM     14  C   UNL     1       6.309   4.520  15.879  0.00  0.00    +0.000 A 
ATOM     15 BR   UNL     1       6.983   4.744  14.123  0.00  0.00    +0.000 Br
ATOM     16  C   UNL     1       5.021   4.039  16.067  0.00  0.00    +0.000 A 
ATOM     17  C   UNL     1       4.555   3.900  17.374  0.00  0.00    +0.000 A 
ENDBRANCH  10  11
ENDBRANCH   9  10
ENDBRANCH   6   9
ENDBRANCH   3   5
BRANCH   1  18
ATOM     18  C   UNL     1       3.133   7.390  17.922  0.00  0.00    +0.000 C 
BRANCH  18  19
ATOM     19  C   UNL     1       2.352   8.702  17.738  0.00  0.00    +0.000 C 
BRANCH  19  20
ATOM     20  N   UNL     1       1.282   8.842  18.767  0.00  0.00    +0.000 NA
ATOM     21  H   UNL     1       0.404   8.380  18.520  0.00  0.00    +0.000 HD
BRANCH  20  22
ATOM     22  S   UNL     1       0.977  10.443  19.290  0.00  0.00    +0.000 S 
ATOM     23  O   UNL     1       1.859  11.314  18.537  0.00  0.00    +0.000 OA
ATOM     24  O   UNL     1       0.966  10.434  20.730  0.00  0.00    +0.000 OA
BRANCH  22  29
ATOM     25  C   UNL     1      -4.708  11.399  17.303  0.00  0.00    +0.000 C 
ATOM     26  C   UNL     1      -3.293  11.178  17.769  0.00  0.00    +0.000 A 
ATOM     27  C   UNL     1      -2.842  11.808  18.944  0.00  0.00    +0.000 A 
ATOM     28  C   UNL     1      -1.542  11.604  19.420  0.00  0.00    +0.000 A 
ATOM     29  C   UNL     1      -0.690  10.740  18.728  0.00  0.00    +0.000 A 
ATOM     30  C   UNL     1      -1.113  10.145  17.535  0.00  0.00    +0.000 A 
ATOM     31  C   UNL     1      -2.410  10.351  17.048  0.00  0.00    +0.000 A 
ATOM     32  C   UNL     1      -2.829   9.685  15.764  0.00  0.00    +0.000 C 
ENDBRANCH  22  29
ENDBRANCH  20  22
ENDBRANCH  19  20
ENDBRANCH  18  19
ENDBRANCH   1  18
TORSDOF 9
ENDMDL
MODEL 4
REMARK VINA RESULT:      -7.6      4.450      6.674
REMARK  Name = 
REMARK  11 active torsions:
REMARK  status: ('A' for Active; 'I' for Inactive)
REMARK    1  A    between atoms: C_1  and  C_2
REMARK    2  A    between atoms: C_5  and  S_6
REMARK    3  A    between atoms: S_6  and  N_9
REMARK    4  A    between atoms: N_9  and  C_10
REMARK    5  A    between atoms: C_10  and  C_11
REMARK    6  A    between atoms: C_11  and  C_12
REMARK    7  A    between atoms: N_14  and  N_15
REMARK    8  A    between atoms: C_16  and  C_18
REMARK    9  A    between atoms: C_18  and  O_19
REMARK   10  A    between atoms: O_19  and  C_20
REMARK   11  A    between atoms: C_28  and  C_29
REMARK                            x       y       z     vdW  Elec       q    Type
REMARK                         _______ _______ _______ _____ _____    ______ ____
ROOT
ATOM      1  C   UNL     1       2.626   6.462  19.124  0.00  0.00    +0.000 C 
ATOM      2  O   UNL     1       3.812   6.492  19.311  0.00  0.00    +0.000 OA
ATOM      3  N   UNL     1       1.682   5.697  19.865  0.00  0.00    +0.000 N 
ATOM      4  H   UNL     1       0.783   5.472  19.462  0.00  0.00    +0.000 HD
ENDROOT
BRANCH   3   5
ATOM      5  N   UNL     1       2.055   5.083  21.093  0.00  0.00    +0.000 N 
ATOM      6  C   UNL     1       1.908   3.761  21.393  0.00  0.00    +0.000 C 
ATOM      7  O   UNL     1       2.344   3.318  22.476  0.00  0.00    +0.000 OA
ATOM      8  H   UNL     1       2.576   5.674  21.784  0.00  0.00    +0.000 HD
BRANCH   6   9
ATOM      9  C   UNL     1       1.241   2.813  20.373  0.00  0.00    +0.000 C 
BRANCH   9  10
ATOM     10  O   UNL     1       2.084   2.067  19.506  0.00  0.00    +0.000 OA
BRANCH  10  11
ATOM     11  C   UNL     1       2.959   2.653  18.660  0.00  0.00    +0.000 A 
ATOM     12  C   UNL     1       4.292   2.905  18.983  0.00  0.00    +0.000 A 
ATOM     13  C   UNL     1       5.049   3.656  18.116  0.00  0.00    +0.000 A 
ATOM     14  C   UNL     1       4.496   4.121  16.924  0.00  0.00    +0.000 A 
ATOM     15 BR   UNL     1       5.573   5.167  15.769  0.00  0.00    +0.000 Br
ATOM     16  C   UNL     1       3.189   3.821  16.565  0.00  0.00    +0.000 A 
ATOM     17  C   UNL     1       2.423   3.060  17.448  0.00  0.00    +0.000 A 
ENDBRANCH  10  11
ENDBRANCH   9  10
ENDBRANCH   6   9
ENDBRANCH   3   5
BRANCH   1  18
ATOM     18  C   UNL     1       2.145   7.207  17.955  0.00  0.00    +0.000 C 
BRANCH  18  19
ATOM     19  C   UNL     1       2.621   8.669  17.966  0.00  0.00    +0.000 C 
BRANCH  19  20
ATOM     20  N   UNL     1       1.510   9.602  17.622  0.00  0.00    +0.000 NA
ATOM     21  H   UNL     1       1.726  10.241  16.852  0.00  0.00    +0.000 HD
BRANCH  20  22
ATOM     22  S   UNL     1       0.851  10.471  18.940  0.00  0.00    +0.000 S 
ATOM     23  O   UNL     1       1.506  11.765  18.968  0.00  0.00    +0.000 OA
ATOM     24  O   UNL     1       0.851   9.594  20.081  0.00  0.00    +0.000 OA
BRANCH  22  29
ATOM     25  C   UNL     1      -4.928  11.304  17.181  0.00  0.00    +0.000 C 
ATOM     26  C   UNL     1      -3.491  11.115  17.591  0.00  0.00    +0.000 A 
ATOM     27  C   UNL     1      -3.025  11.705  18.780  0.00  0.00    +0.000 A 
ATOM     28  C   UNL     1      -1.703  11.528  19.205  0.00  0.00    +0.000 A 
ATOM     29  C   UNL     1      -0.844  10.732  18.445  0.00  0.00    +0.000 A 
ATOM     30  C   UNL     1      -1.284  10.178  17.238  0.00  0.00    +0.000 A 
ATOM     31  C   UNL     1      -2.602  10.358  16.803  0.00  0.00    +0.000 A 
ATOM     32  C   UNL     1      -3.039   9.738  15.501  0.00  0.00    +0.000 C 
ENDBRANCH  22  29
ENDBRANCH  20  22
ENDBRANCH  19  20
ENDBRANCH  18  19
ENDBRANCH   1  18
TORSDOF 9
ENDMDL
MODEL 5
REMARK VINA RESULT:      -7.6      4.629      6.557
REMARK  Name = 
REMARK  11 active torsions:
REMARK  status: ('A' for Active; 'I' for Inactive)
REMARK    1  A    between atoms: C_1  and  C_2
REMARK    2  A    between atoms: C_5  and  S_6
REMARK    3  A    between atoms: S_6  and  N_9
REMARK    4  A    between atoms: N_9  and  C_10
REMARK    5  A    between atoms: C_10  and  C_11
REMARK    6  A    between atoms: C_11  and  C_12
REMARK    7  A    between atoms: N_14  and  N_15
REMARK    8  A    between atoms: C_16  and  C_18
REMARK    9  A    between atoms: C_18  and  O_19
REMARK   10  A    between atoms: O_19  and  C_20
REMARK   11  A    between atoms: C_28  and  C_29
REMARK                            x       y       z     vdW  Elec       q    Type
REMARK                         _______ _______ _______ _____ _____    ______ ____
ROOT
ATOM      1  C   UNL     1       2.488   6.539  18.442  0.00  0.00    +0.000 C 
ATOM      2  O   UNL     1       2.842   6.728  19.574  0.00  0.00    +0.000 OA
ATOM      3  N   UNL     1       1.848   5.367  17.951  0.00  0.00    +0.000 N 
ATOM      4  H   UNL     1       1.875   5.150  16.964  0.00  0.00    +0.000 HD
ENDROOT
BRANCH   3   5
ATOM      5  N   UNL     1       1.332   4.395  18.852  0.00  0.00    +0.000 N 
ATOM      6  C   UNL     1       1.575   3.054  18.794  0.00  0.00    +0.000 C 
ATOM      7  O   UNL     1       1.130   2.303  19.687  0.00  0.00    +0.000 OA
ATOM      8  H   UNL     1       0.803   4.748  19.686  0.00  0.00    +0.000 HD
BRANCH   6   9
ATOM      9  C   UNL     1       2.435   2.480  17.647  0.00  0.00    +0.000 C 
BRANCH   9  10
ATOM     10  O   UNL     1       3.833   2.349  17.863  0.00  0.00    +0.000 OA
BRANCH  10  11
ATOM     11  C   UNL     1       4.676   3.404  17.832  0.00  0.00    +0.000 A 
ATOM     12  C   UNL     1       5.219   3.989  18.976  0.00  0.00    +0.000 A 
ATOM     13  C   UNL     1       5.929   5.159  18.843  0.00  0.00    +0.000 A 
ATOM     14  C   UNL     1       6.124   5.722  17.582  0.00  0.00    +0.000 A 
ATOM     15 BR   UNL     1       7.093   7.345  17.452  0.00  0.00    +0.000 Br
ATOM     16  C   UNL     1       5.640   5.113  16.433  0.00  0.00    +0.000 A 
ATOM     17  C   UNL     1       4.920   3.926  16.571  0.00  0.00    +0.000 A 
ENDBRANCH  10  11
ENDBRANCH   9  10
ENDBRANCH   6   9
ENDBRANCH   3   5
BRANCH   1  18
ATOM     18  C   UNL     1       2.852   7.583  17.478  0.00  0.00    +0.000 C 
BRANCH  18  19
ATOM     19  C   UNL     1       2.686   8.995  18.063  0.00  0.00    +0.000 C 
BRANCH  19  20
ATOM     20  N   UNL     1       1.318   9.530  17.807  0.00  0.00    +0.000 NA
ATOM     21  H   UNL     1       1.254  10.129  16.980  0.00  0.00    +0.000 HD
BRANCH  20  22
ATOM     22  S   UNL     1       0.568  10.289  19.144  0.00  0.00    +0.000 S 
ATOM     23  O   UNL     1       1.257  11.547  19.362  0.00  0.00    +0.000 OA
ATOM     24  O   UNL     1       0.436   9.304  20.185  0.00  0.00    +0.000 OA
BRANCH  22  29
ATOM     25  C   UNL     1      -5.001  11.512  16.983  0.00  0.00    +0.000 C 
ATOM     26  C   UNL     1      -3.614  11.226  17.493  0.00  0.00    +0.000 A 
ATOM     27  C   UNL     1      -3.187  11.801  18.704  0.00  0.00    +0.000 A 
ATOM     28  C   UNL     1      -1.913  11.535  19.221  0.00  0.00    +0.000 A 
ATOM     29  C   UNL     1      -1.065  10.665  18.531  0.00  0.00    +0.000 A 
ATOM     30  C   UNL     1      -1.463  10.124  17.303  0.00  0.00    +0.000 A 
ATOM     31  C   UNL     1      -2.732  10.393  16.777  0.00  0.00    +0.000 A 
ATOM     32  C   UNL     1      -3.125   9.786  15.455  0.00  0.00    +0.000 C 
ENDBRANCH  22  29
ENDBRANCH  20  22
ENDBRANCH  19  20
ENDBRANCH  18  19
ENDBRANCH   1  18
TORSDOF 9
ENDMDL
MODEL 6
REMARK VINA RESULT:      -7.5      4.716      6.323
REMARK  Name = 
REMARK  11 active torsions:
REMARK  status: ('A' for Active; 'I' for Inactive)
REMARK    1  A    between atoms: C_1  and  C_2
REMARK    2  A    between atoms: C_5  and  S_6
REMARK    3  A    between atoms: S_6  and  N_9
REMARK    4  A    between atoms: N_9  and  C_10
REMARK    5  A    between atoms: C_10  and  C_11
REMARK    6  A    between atoms: C_11  and  C_12
REMARK    7  A    between atoms: N_14  and  N_15
REMARK    8  A    between atoms: C_16  and  C_18
REMARK    9  A    between atoms: C_18  and  O_19
REMARK   10  A    between atoms: O_19  and  C_20
REMARK   11  A    between atoms: C_28  and  C_29
REMARK                            x       y       z     vdW  Elec       q    Type
REMARK                         _______ _______ _______ _____ _____    ______ ____
ROOT
ATOM      1  C   UNL     1       4.123   6.690  18.135  0.00  0.00    +0.000 C 
ATOM      2  O   UNL     1       4.597   6.071  19.049  0.00  0.00    +0.000 OA
ATOM      3  N   UNL     1       4.809   7.097  16.957  0.00  0.00    +0.000 N 
ATOM      4  H   UNL     1       4.455   7.865  16.404  0.00  0.00    +0.000 HD
ENDROOT
BRANCH   3   5
ATOM      5  N   UNL     1       6.091   6.563  16.647  0.00  0.00    +0.000 N 
ATOM      6  C   UNL     1       6.321   5.372  16.023  0.00  0.00    +0.000 C 
ATOM      7  O   UNL     1       7.488   5.040  15.732  0.00  0.00    +0.000 OA
ATOM      8  H   UNL     1       6.921   7.179  16.821  0.00  0.00    +0.000 HD
BRANCH   6   9
ATOM      9  C   UNL     1       5.132   4.462  15.645  0.00  0.00    +0.000 C 
BRANCH   9  10
ATOM     10  O   UNL     1       4.955   3.257  16.377  0.00  0.00    +0.000 OA
BRANCH  10  11
ATOM     11  C   UNL     1       4.045   3.135  17.367  0.00  0.00    +0.000 A 
ATOM     12  C   UNL     1       2.689   3.421  17.207  0.00  0.00    +0.000 A 
ATOM     13  C   UNL     1       1.881   3.426  18.319  0.00  0.00    +0.000 A 
ATOM     14  C   UNL     1       2.410   3.114  19.572  0.00  0.00    +0.000 A 
ATOM     15 BR   UNL     1       1.262   3.150  21.078  0.00  0.00    +0.000 Br
ATOM     16  C   UNL     1       3.745   2.766  19.729  0.00  0.00    +0.000 A 
ATOM     17  C   UNL     1       4.561   2.763  18.599  0.00  0.00    +0.000 A 
ENDBRANCH  10  11
ENDBRANCH   9  10
ENDBRANCH   6   9
ENDBRANCH   3   5
BRANCH   1  18
ATOM     18  C   UNL     1       2.740   7.143  18.321  0.00  0.00    +0.000 C 
BRANCH  18  19
ATOM     19  C   UNL     1       2.540   8.596  17.856  0.00  0.00    +0.000 C 
BRANCH  19  20
ATOM     20  N   UNL     1       1.093   8.955  17.813  0.00  0.00    +0.000 NA
ATOM     21  H   UNL     1       0.770   9.269  16.895  0.00  0.00    +0.000 HD
BRANCH  20  22
ATOM     22  S   UNL     1       0.575  10.046  19.025  0.00  0.00    +0.000 S 
ATOM     23  O   UNL     1       1.442  11.207  18.953  0.00  0.00    +0.000 OA
ATOM     24  O   UNL     1       0.409   9.295  20.242  0.00  0.00    +0.000 OA
BRANCH  22  29
ATOM     25  C   UNL     1      -4.946  11.679  17.016  0.00  0.00    +0.000 C 
ATOM     26  C   UNL     1      -3.570  11.292  17.489  0.00  0.00    +0.000 A 
ATOM     27  C   UNL     1      -3.090  11.791  18.714  0.00  0.00    +0.000 A 
ATOM     28  C   UNL     1      -1.826  11.430  19.197  0.00  0.00    +0.000 A 
ATOM     29  C   UNL     1      -1.043  10.541  18.457  0.00  0.00    +0.000 A 
ATOM     30  C   UNL     1      -1.491  10.075  17.217  0.00  0.00    +0.000 A 
ATOM     31  C   UNL     1      -2.751  10.438  16.725  0.00  0.00    +0.000 A 
ATOM     32  C   UNL     1      -3.199   9.909  15.388  0.00  0.00    +0.000 C 
ENDBRANCH  22  29
ENDBRANCH  20  22
ENDBRANCH  19  20
ENDBRANCH  18  19
ENDBRANCH   1  18
TORSDOF 9
ENDMDL
MODEL 7
REMARK VINA RESULT:      -7.4      1.908      2.670
REMARK  Name = 
REMARK  11 active torsions:
REMARK  status: ('A' for Active; 'I' for Inactive)
REMARK    1  A    between atoms: C_1  and  C_2
REMARK    2  A    between atoms: C_5  and  S_6
REMARK    3  A    between atoms: S_6  and  N_9
REMARK    4  A    between atoms: N_9  and  C_10
REMARK    5  A    between atoms: C_10  and  C_11
REMARK    6  A    between atoms: C_11  and  C_12
REMARK    7  A    between atoms: N_14  and  N_15
REMARK    8  A    between atoms: C_16  and  C_18
REMARK    9  A    between atoms: C_18  and  O_19
REMARK   10  A    between atoms: O_19  and  C_20
REMARK   11  A    between atoms: C_28  and  C_29
REMARK                            x       y       z     vdW  Elec       q    Type
REMARK                         _______ _______ _______ _____ _____    ______ ____
ROOT
ATOM      1  C   UNL     1       3.946   2.913  18.192  0.00  0.00    +0.000 C 
ATOM      2  O   UNL     1       4.128   1.970  18.913  0.00  0.00    +0.000 OA
ATOM      3  N   UNL     1       4.884   3.947  17.915  0.00  0.00    +0.000 N 
ATOM      4  H   UNL     1       4.565   4.844  17.575  0.00  0.00    +0.000 HD
ENDROOT
BRANCH   3   5
ATOM      5  N   UNL     1       6.250   3.801  18.287  0.00  0.00    +0.000 N 
ATOM      6  C   UNL     1       7.265   4.629  17.908  0.00  0.00    +0.000 C 
ATOM      7  O   UNL     1       8.415   4.448  18.360  0.00  0.00    +0.000 OA
ATOM      8  H   UNL     1       6.478   3.057  18.989  0.00  0.00    +0.000 HD
BRANCH   6   9
ATOM      9  C   UNL     1       6.977   5.810  16.956  0.00  0.00    +0.000 C 
BRANCH   9  10
ATOM     10  O   UNL     1       7.510   5.751  15.641  0.00  0.00    +0.000 OA
BRANCH  10  11
ATOM     11  C   UNL     1       6.913   5.064  14.643  0.00  0.00    +0.000 A 
ATOM     12  C   UNL     1       5.697   4.396  14.788  0.00  0.00    +0.000 A 
ATOM     13  C   UNL     1       5.263   3.590  13.763  0.00  0.00    +0.000 A 
ATOM     14  C   UNL     1       6.012   3.478  12.593  0.00  0.00    +0.000 A 
ATOM     15 BR   UNL     1       5.382   2.341  11.215  0.00  0.00    +0.000 Br
ATOM     16  C   UNL     1       7.191   4.189  12.415  0.00  0.00    +0.000 A 
ATOM     17  C   UNL     1       7.629   5.006  13.457  0.00  0.00    +0.000 A 
ENDBRANCH  10  11
ENDBRANCH   9  10
ENDBRANCH   6   9
ENDBRANCH   3   5
BRANCH   1  18
ATOM     18  C   UNL     1       2.592   3.043  17.641  0.00  0.00    +0.000 C 
BRANCH  18  19
ATOM     19  C   UNL     1       2.109   4.503  17.630  0.00  0.00    +0.000 C 
BRANCH  19  20
ATOM     20  N   UNL     1       1.527   4.889  18.947  0.00  0.00    +0.000 NA
ATOM     21  H   UNL     1       0.591   5.299  18.884  0.00  0.00    +0.000 HD
BRANCH  20  22
ATOM     22  S   UNL     1       2.531   5.863  19.933  0.00  0.00    +0.000 S 
ATOM     23  O   UNL     1       3.878   5.757  19.406  0.00  0.00    +0.000 OA
ATOM     24  O   UNL     1       2.223   5.553  21.305  0.00  0.00    +0.000 OA
BRANCH  22  29
ATOM     25  C   UNL     1       0.510  11.518  18.872  0.00  0.00    +0.000 C 
ATOM     26  C   UNL     1       0.980  10.112  19.137  0.00  0.00    +0.000 A 
ATOM     27  C   UNL     1       1.605   9.383  18.108  0.00  0.00    +0.000 A 
ATOM     28  C   UNL     1       2.078   8.084  18.328  0.00  0.00    +0.000 A 
ATOM     29  C   UNL     1       1.945   7.515  19.597  0.00  0.00    +0.000 A 
ATOM     30  C   UNL     1       1.285   8.213  20.613  0.00  0.00    +0.000 A 
ATOM     31  C   UNL     1       0.803   9.511  20.398  0.00  0.00    +0.000 A 
ATOM     32  C   UNL     1       0.103  10.232  21.521  0.00  0.00    +0.000 C 
ENDBRANCH  22  29
ENDBRANCH  20  22
ENDBRANCH  19  20
ENDBRANCH  18  19
ENDBRANCH   1  18
TORSDOF 9
ENDMDL
MODEL 8
REMARK VINA RESULT:      -7.4      2.267      3.377
REMARK  Name = 
REMARK  11 active torsions:
REMARK  status: ('A' for Active; 'I' for Inactive)
REMARK    1  A    between atoms: C_1  and  C_2
REMARK    2  A    between atoms: C_5  and  S_6
REMARK    3  A    between atoms: S_6  and  N_9
REMARK    4  A    between atoms: N_9  and  C_10
REMARK    5  A    between atoms: C_10  and  C_11
REMARK    6  A    between atoms: C_11  and  C_12
REMARK    7  A    between atoms: N_14  and  N_15
REMARK    8  A    between atoms: C_16  and  C_18
REMARK    9  A    between atoms: C_18  and  O_19
REMARK   10  A    between atoms: O_19  and  C_20
REMARK   11  A    between atoms: C_28  and  C_29
REMARK                            x       y       z     vdW  Elec       q    Type
REMARK                         _______ _______ _______ _____ _____    ______ ____
ROOT
ATOM      1  C   UNL     1       3.691   3.056  17.956  0.00  0.00    +0.000 C 
ATOM      2  O   UNL     1       4.010   1.944  17.633  0.00  0.00    +0.000 OA
ATOM      3  N   UNL     1       4.541   4.028  18.555  0.00  0.00    +0.000 N 
ATOM      4  H   UNL     1       4.143   4.794  19.080  0.00  0.00    +0.000 HD
ENDROOT
BRANCH   3   5
ATOM      5  N   UNL     1       5.950   3.834  18.586  0.00  0.00    +0.000 N 
ATOM      6  C   UNL     1       6.877   4.682  18.054  0.00  0.00    +0.000 C 
ATOM      7  O   UNL     1       8.093   4.448  18.209  0.00  0.00    +0.000 OA
ATOM      8  H   UNL     1       6.310   3.027  19.149  0.00  0.00    +0.000 HD
BRANCH   6   9
ATOM      9  C   UNL     1       6.414   5.947  17.299  0.00  0.00    +0.000 C 
BRANCH   9  10
ATOM     10  O   UNL     1       6.883   6.140  15.972  0.00  0.00    +0.000 OA
BRANCH  10  11
ATOM     11  C   UNL     1       6.670   5.241  14.986  0.00  0.00    +0.000 A 
ATOM     12  C   UNL     1       7.573   5.006  13.950  0.00  0.00    +0.000 A 
ATOM     13  C   UNL     1       7.185   4.195  12.910  0.00  0.00    +0.000 A 
ATOM     14  C   UNL     1       5.925   3.598  12.918  0.00  0.00    +0.000 A 
ATOM     15 BR   UNL     1       5.428   2.504  11.454  0.00  0.00    +0.000 Br
ATOM     16  C   UNL     1       5.045   3.777  13.976  0.00  0.00    +0.000 A 
ATOM     17  C   UNL     1       5.441   4.601  15.029  0.00  0.00    +0.000 A 
ENDBRANCH  10  11
ENDBRANCH   9  10
ENDBRANCH   6   9
ENDBRANCH   3   5
BRANCH   1  18
ATOM     18  C   UNL     1       2.269   3.381  17.803  0.00  0.00    +0.000 C 
BRANCH  18  19
ATOM     19  C   UNL     1       1.843   4.551  18.707  0.00  0.00    +0.000 C 
BRANCH  19  20
ATOM     20  N   UNL     1       1.832   5.838  17.955  0.00  0.00    +0.000 NA
ATOM     21  H   UNL     1       1.954   5.732  16.945  0.00  0.00    +0.000 HD
BRANCH  20  22
ATOM     22  S   UNL     1       2.893   7.041  18.552  0.00  0.00    +0.000 S 
ATOM     23  O   UNL     1       3.608   7.583  17.413  0.00  0.00    +0.000 OA
ATOM     24  O   UNL     1       3.581   6.487  19.689  0.00  0.00    +0.000 OA
BRANCH  22  29
ATOM     25  C   UNL     1      -0.899  11.327  20.658  0.00  0.00    +0.000 C 
ATOM     26  C   UNL     1       0.015  10.247  20.143  0.00  0.00    +0.000 A 
ATOM     27  C   UNL     1       0.368  10.226  18.781  0.00  0.00    +0.000 A 
ATOM     28  C   UNL     1       1.237   9.253  18.274  0.00  0.00    +0.000 A 
ATOM     29  C   UNL     1       1.779   8.304  19.144  0.00  0.00    +0.000 A 
ATOM     30  C   UNL     1       1.400   8.288  20.490  0.00  0.00    +0.000 A 
ATOM     31  C   UNL     1       0.525   9.254  21.002  0.00  0.00    +0.000 A 
ATOM     32  C   UNL     1       0.147   9.206  22.460  0.00  0.00    +0.000 C 
ENDBRANCH  22  29
ENDBRANCH  20  22
ENDBRANCH  19  20
ENDBRANCH  18  19
ENDBRANCH   1  18
TORSDOF 9
ENDMDL
MODEL 9
REMARK VINA RESULT:      -7.3      4.662      8.035
REMARK  Name = 
REMARK  11 active torsions:
REMARK  status: ('A' for Active; 'I' for Inactive)
REMARK    1  A    between atoms: C_1  and  C_2
REMARK    2  A    between atoms: C_5  and  S_6
REMARK    3  A    between atoms: S_6  and  N_9
REMARK    4  A    between atoms: N_9  and  C_10
REMARK    5  A    between atoms: C_10  and  C_11
REMARK    6  A    between atoms: C_11  and  C_12
REMARK    7  A    between atoms: N_14  and  N_15
REMARK    8  A    between atoms: C_16  and  C_18
REMARK    9  A    between atoms: C_18  and  O_19
REMARK   10  A    between atoms: O_19  and  C_20
REMARK   11  A    between atoms: C_28  and  C_29
REMARK                            x       y       z     vdW  Elec       q    Type
REMARK                         _______ _______ _______ _____ _____    ______ ____
ROOT
ATOM      1  C   UNL     1       1.814   5.531  19.469  0.00  0.00    +0.000 C 
ATOM      2  O   UNL     1       1.760   4.945  18.422  0.00  0.00    +0.000 OA
ATOM      3  N   UNL     1       2.308   6.851  19.663  0.00  0.00    +0.000 N 
ATOM      4  H   UNL     1       2.617   7.148  20.578  0.00  0.00    +0.000 HD
ENDROOT
BRANCH   3   5
ATOM      5  N   UNL     1       2.549   7.703  18.549  0.00  0.00    +0.000 N 
ATOM      6  C   UNL     1       1.906   8.879  18.298  0.00  0.00    +0.000 C 
ATOM      7  O   UNL     1       2.255   9.584  17.329  0.00  0.00    +0.000 OA
ATOM      8  H   UNL     1       3.354   7.457  17.925  0.00  0.00    +0.000 HD
BRANCH   6   9
ATOM      9  C   UNL     1       0.777   9.351  19.241  0.00  0.00    +0.000 C 
BRANCH   9  10
ATOM     10  O   UNL     1       1.145   9.986  20.457  0.00  0.00    +0.000 OA
BRANCH  10  11
ATOM     11  C   UNL     1       0.244  10.570  21.276  0.00  0.00    +0.000 A 
ATOM     12  C   UNL     1      -0.142  10.034  22.504  0.00  0.00    +0.000 A 
ATOM     13  C   UNL     1      -1.188  10.618  23.178  0.00  0.00    +0.000 A 
ATOM     14  C   UNL     1      -1.819  11.745  22.653  0.00  0.00    +0.000 A 
ATOM     15 BR   UNL     1      -3.267  12.505  23.609  0.00  0.00    +0.000 Br
ATOM     16  C   UNL     1      -1.399  12.322  21.462  0.00  0.00    +0.000 A 
ATOM     17  C   UNL     1      -0.339  11.726  20.780  0.00  0.00    +0.000 A 
ENDBRANCH  10  11
ENDBRANCH   9  10
ENDBRANCH   6   9
ENDBRANCH   3   5
BRANCH   1  18
ATOM     18  C   UNL     1       1.427   4.757  20.653  0.00  0.00    +0.000 C 
BRANCH  18  19
ATOM     19  C   UNL     1       1.662   3.249  20.462  0.00  0.00    +0.000 C 
BRANCH  19  20
ATOM     20  N   UNL     1       3.063   2.873  20.804  0.00  0.00    +0.000 NA
ATOM     21  H   UNL     1       3.598   3.622  21.250  0.00  0.00    +0.000 HD
BRANCH  20  22
ATOM     22  S   UNL     1       3.968   2.185  19.526  0.00  0.00    +0.000 S 
ATOM     23  O   UNL     1       3.017   1.639  18.575  0.00  0.00    +0.000 OA
ATOM     24  O   UNL     1       5.005   1.377  20.113  0.00  0.00    +0.000 OA
BRANCH  22  29
ATOM     25  C   UNL     1       6.574   7.007  16.854  0.00  0.00    +0.000 C 
ATOM     26  C   UNL     1       5.954   5.798  17.502  0.00  0.00    +0.000 A 
ATOM     27  C   UNL     1       5.927   5.699  18.906  0.00  0.00    +0.000 A 
ATOM     28  C   UNL     1       5.334   4.602  19.542  0.00  0.00    +0.000 A 
ATOM     29  C   UNL     1       4.739   3.604  18.767  0.00  0.00    +0.000 A 
ATOM     30  C   UNL     1       4.799   3.670  17.371  0.00  0.00    +0.000 A 
ATOM     31  C   UNL     1       5.398   4.761  16.728  0.00  0.00    +0.000 A 
ATOM     32  C   UNL     1       5.436   4.798  15.223  0.00  0.00    +0.000 C 
ENDBRANCH  22  29
ENDBRANCH  20  22
ENDBRANCH  19  20
ENDBRANCH  18  19
ENDBRANCH   1  18
TORSDOF 9
ENDMDL
