MODEL 1
REMARK VINA RESULT:      -9.0      0.000      0.000
REMARK  Name = 
REMARK  8 active torsions:
REMARK  status: ('A' for Active; 'I' for Inactive)
REMARK    1  A    between atoms: C_4  and  C_5
REMARK    2  A    between atoms: C_5  and  N_6
REMARK    3  A    between atoms: N_9  and  C_10
REMARK    4  A    between atoms: N_20  and  C_21
REMARK    5  A    between atoms: C_21  and  C_22
REMARK    6  A    between atoms: C_22  and  C_23
REMARK    7  A    between atoms: C_23  and  N_24
REMARK    8  A    between atoms: N_24  and  C_25
REMARK                            x       y       z     vdW  Elec       q    Type
REMARK                         _______ _______ _______ _____ _____    ______ ____
ROOT
ATOM      1  O   UNL     1       7.756   5.592  14.588  0.00  0.00    +0.000 OA
ATOM      2  C   UNL     1       7.231   5.245  15.632  0.00  0.00    +0.000 C 
ATOM      3  O   UNL     1       6.590   4.048  15.800  0.00  0.00    +0.000 OA
ATOM      4  C   UNL     1       5.963   4.031  17.090  0.00  0.00    +0.000 C 
ATOM      5  C   UNL     1       6.405   5.298  17.793  0.00  0.00    +0.000 C 
ATOM      6  N   UNL     1       7.160   5.982  16.791  0.00  0.00    +0.000 N 
ENDROOT
BRANCH   4   7
ATOM      7  C   UNL     1       4.425   3.881  17.000  0.00  0.00    +0.000 C 
BRANCH   7   8
ATOM      8  N   UNL     1       3.723   3.361  18.195  0.00  0.00    +0.000 NA
ATOM      9  C   UNL     1       4.146   3.998  19.467  0.00  0.00    +0.000 C 
ATOM     10  C   UNL     1       3.807   5.499  19.594  0.00  0.00    +0.000 C 
ATOM     11  N   UNL     1       2.361   5.724  19.397  0.00  0.00    +0.000 N 
ATOM     12  C   UNL     1       1.788   5.060  18.204  0.00  0.00    +0.000 C 
ATOM     13  C   UNL     1       2.258   3.586  18.087  0.00  0.00    +0.000 C 
BRANCH  11  14
ATOM     14  C   UNL     1       1.855   7.005  19.689  0.00  0.00    +0.000 A 
ATOM     15  C   UNL     1       1.288   7.245  20.955  0.00  0.00    +0.000 A 
ATOM     16  C   UNL     1       0.824   8.511  21.337  0.00  0.00    +0.000 A 
ATOM     17  C   UNL     1       0.915   9.585  20.458  0.00  0.00    +0.000 A 
ATOM     18  C   UNL     1       1.468   9.387  19.199  0.00  0.00    +0.000 A 
ATOM     19  C   UNL     1       1.931   8.121  18.828  0.00  0.00    +0.000 A 
ATOM     20  F   UNL     1       2.443   8.011  17.591  0.00  0.00    +0.000 F 
ENDBRANCH  11  14
ENDBRANCH   7   8
ENDBRANCH   4   7
BRANCH   6  21
ATOM     21  C   UNL     1       7.456   7.395  16.882  0.00  0.00    +0.000 C 
BRANCH  21  22
ATOM     22  C   UNL     1       8.143   7.805  18.178  0.00  0.00    +0.000 C 
BRANCH  22  23
ATOM     23  C   UNL     1       8.402   9.308  18.247  0.00  0.00    +0.000 C 
BRANCH  23  24
ATOM     24  N   UNL     1       9.372   9.563  19.312  0.00  0.00    +0.000 N 
ATOM     25  H   UNL     1      10.292   9.241  19.031  0.00  0.00    +0.000 HD
BRANCH  24  26
ATOM     26  C   UNL     1       9.434  10.874  19.839  0.00  0.00    +0.000 A 
ATOM     27  C   UNL     1       9.025  11.141  21.149  0.00  0.00    +0.000 A 
ATOM     28  C   UNL     1       9.173  12.418  21.654  0.00  0.00    +0.000 A 
ATOM     29  N   UNL     1       9.720  13.437  20.968  0.00  0.00    +0.000 NA
ATOM     30  C   UNL     1      10.159  13.193  19.726  0.00  0.00    +0.000 A 
ATOM     31  C   UNL     1      10.744  14.244  19.039  0.00  0.00    +0.000 A 
ATOM     32  C   UNL     1      11.224  14.086  17.743  0.00  0.00    +0.000 A 
ATOM     33 CL   UNL     1      11.945  15.417  16.925  0.00  0.00    +0.000 Cl
ATOM     34  C   UNL     1      11.128  12.861  17.105  0.00  0.00    +0.000 A 
ATOM     35  C   UNL     1      10.553  11.787  17.780  0.00  0.00    +0.000 A 
ATOM     36  C   UNL     1      10.052  11.925  19.102  0.00  0.00    +0.000 A 
ENDBRANCH  24  26
ENDBRANCH  23  24
ENDBRANCH  22  23
ENDBRANCH  21  22
ENDBRANCH   6  21
TORSDOF 8
ENDMDL
MODEL 2
REMARK VINA RESULT:      -8.6      6.533     10.561
REMARK  Name = 
REMARK  8 active torsions:
REMARK  status: ('A' for Active; 'I' for Inactive)
REMARK    1  A    between atoms: C_4  and  C_5
REMARK    2  A    between atoms: C_5  and  N_6
REMARK    3  A    between atoms: N_9  and  C_10
REMARK    4  A    between atoms: N_20  and  C_21
REMARK    5  A    between atoms: C_21  and  C_22
REMARK    6  A    between atoms: C_22  and  C_23
REMARK    7  A    between atoms: C_23  and  N_24
REMARK    8  A    between atoms: N_24  and  C_25
REMARK                            x       y       z     vdW  Elec       q    Type
REMARK                         _______ _______ _______ _____ _____    ______ ____
ROOT
ATOM      1  O   UNL     1       0.364   9.912  18.156  0.00  0.00    +0.000 OA
ATOM      2  C   UNL     1       1.017   9.109  18.800  0.00  0.00    +0.000 C 
ATOM      3  O   UNL     1       1.968   8.291  18.255  0.00  0.00    +0.000 OA
ATOM      4  C   UNL     1       2.426   7.374  19.259  0.00  0.00    +0.000 C 
ATOM      5  C   UNL     1       1.766   7.799  20.555  0.00  0.00    +0.000 C 
ATOM      6  N   UNL     1       0.899   8.860  20.147  0.00  0.00    +0.000 N 
ENDROOT
BRANCH   4   7
ATOM      7  C   UNL     1       2.152   5.898  18.884  0.00  0.00    +0.000 C 
BRANCH   7   8
ATOM      8  N   UNL     1       3.103   4.881  19.388  0.00  0.00    +0.000 NA
ATOM      9  C   UNL     1       3.122   3.629  18.592  0.00  0.00    +0.000 C 
ATOM     10  C   UNL     1       3.638   3.777  17.145  0.00  0.00    +0.000 C 
ATOM     11  N   UNL     1       4.986   4.381  17.132  0.00  0.00    +0.000 N 
ATOM     12  C   UNL     1       5.129   5.594  17.968  0.00  0.00    +0.000 C 
ATOM     13  C   UNL     1       4.493   5.404  19.371  0.00  0.00    +0.000 C 
BRANCH  11  14
ATOM     14  C   UNL     1       5.684   4.390  15.910  0.00  0.00    +0.000 A 
ATOM     15  C   UNL     1       5.042   3.917  14.750  0.00  0.00    +0.000 A 
ATOM     16  C   UNL     1       5.653   3.957  13.490  0.00  0.00    +0.000 A 
ATOM     17  C   UNL     1       6.936   4.477  13.350  0.00  0.00    +0.000 A 
ATOM     18  C   UNL     1       7.603   4.952  14.472  0.00  0.00    +0.000 A 
ATOM     19  C   UNL     1       6.983   4.911  15.725  0.00  0.00    +0.000 A 
ATOM     20  F   UNL     1       7.698   5.381  16.760  0.00  0.00    +0.000 F 
ENDBRANCH  11  14
ENDBRANCH   7   8
ENDBRANCH   4   7
BRANCH   6  21
ATOM     21  C   UNL     1      -0.200   9.312  20.971  0.00  0.00    +0.000 C 
BRANCH  21  22
ATOM     22  C   UNL     1       0.218   9.820  22.344  0.00  0.00    +0.000 C 
BRANCH  22  23
ATOM     23  C   UNL     1      -0.967  10.331  23.159  0.00  0.00    +0.000 C 
BRANCH  23  24
ATOM     24  N   UNL     1      -1.061  11.781  22.984  0.00  0.00    +0.000 N 
ATOM     25  H   UNL     1      -0.167  12.155  22.684  0.00  0.00    +0.000 HD
BRANCH  24  26
ATOM     26  C   UNL     1      -2.113  12.277  22.180  0.00  0.00    +0.000 A 
ATOM     27  C   UNL     1      -1.948  12.441  20.802  0.00  0.00    +0.000 A 
ATOM     28  C   UNL     1      -3.022  12.854  20.038  0.00  0.00    +0.000 A 
ATOM     29  N   UNL     1      -4.250  13.087  20.536  0.00  0.00    +0.000 NA
ATOM     30  C   UNL     1      -4.442  12.894  21.847  0.00  0.00    +0.000 A 
ATOM     31  C   UNL     1      -5.717  13.113  22.343  0.00  0.00    +0.000 A 
ATOM     32  C   UNL     1      -6.010  12.943  23.692  0.00  0.00    +0.000 A 
ATOM     33 CL   UNL     1      -7.607  13.224  24.266  0.00  0.00    +0.000 Cl
ATOM     34  C   UNL     1      -5.023  12.545  24.579  0.00  0.00    +0.000 A 
ATOM     35  C   UNL     1      -3.736  12.310  24.101  0.00  0.00    +0.000 A 
ATOM     36  C   UNL     1      -3.412  12.480  22.729  0.00  0.00    +0.000 A 
ENDBRANCH  24  26
ENDBRANCH  23  24
ENDBRANCH  22  23
ENDBRANCH  21  22
ENDBRANCH   6  21
TORSDOF 8
ENDMDL
MODEL 3
REMARK VINA RESULT:      -8.5      5.310      9.798
REMARK  Name = 
REMARK  8 active torsions:
REMARK  status: ('A' for Active; 'I' for Inactive)
REMARK    1  A    between atoms: C_4  and  C_5
REMARK    2  A    between atoms: C_5  and  N_6
REMARK    3  A    between atoms: N_9  and  C_10
REMARK    4  A    between atoms: N_20  and  C_21
REMARK    5  A    between atoms: C_21  and  C_22
REMARK    6  A    between atoms: C_22  and  C_23
REMARK    7  A    between atoms: C_23  and  N_24
REMARK    8  A    between atoms: N_24  and  C_25
REMARK                            x       y       z     vdW  Elec       q    Type
REMARK                         _______ _______ _______ _____ _____    ______ ____
ROOT
ATOM      1  O   UNL     1      10.442  11.476  20.928  0.00  0.00    +0.000 OA
ATOM      2  C   UNL     1      10.104  11.939  19.852  0.00  0.00    +0.000 C 
ATOM      3  O   UNL     1      10.257  13.253  19.507  0.00  0.00    +0.000 OA
ATOM      4  C   UNL     1       9.619  13.482  18.242  0.00  0.00    +0.000 C 
ATOM      5  C   UNL     1       9.170  12.124  17.742  0.00  0.00    +0.000 C 
ATOM      6  N   UNL     1       9.496  11.252  18.827  0.00  0.00    +0.000 N 
ENDROOT
BRANCH   4   7
ATOM      7  C   UNL     1       8.470  14.514  18.335  0.00  0.00    +0.000 C 
BRANCH   7   8
ATOM      8  N   UNL     1       8.359  15.294  19.589  0.00  0.00    +0.000 NA
ATOM      9  C   UNL     1       8.016  16.723  19.381  0.00  0.00    +0.000 C 
ATOM     10  C   UNL     1       6.616  16.982  18.785  0.00  0.00    +0.000 C 
ATOM     11  N   UNL     1       5.571  16.348  19.615  0.00  0.00    +0.000 N 
ATOM     12  C   UNL     1       5.838  14.937  19.976  0.00  0.00    +0.000 C 
ATOM     13  C   UNL     1       7.297  14.737  20.466  0.00  0.00    +0.000 C 
BRANCH  11  14
ATOM     14  C   UNL     1       4.230  16.666  19.329  0.00  0.00    +0.000 A 
ATOM     15  C   UNL     1       3.494  17.428  20.256  0.00  0.00    +0.000 A 
ATOM     16  C   UNL     1       2.176  17.835  20.008  0.00  0.00    +0.000 A 
ATOM     17  C   UNL     1       1.550  17.491  18.815  0.00  0.00    +0.000 A 
ATOM     18  C   UNL     1       2.243  16.738  17.876  0.00  0.00    +0.000 A 
ATOM     19  C   UNL     1       3.559  16.339  18.131  0.00  0.00    +0.000 A 
ATOM     20  F   UNL     1       4.156  15.606  17.177  0.00  0.00    +0.000 F 
ENDBRANCH  11  14
ENDBRANCH   7   8
ENDBRANCH   4   7
BRANCH   6  21
ATOM     21  C   UNL     1       8.911   9.936  18.957  0.00  0.00    +0.000 C 
BRANCH  21  22
ATOM     22  C   UNL     1       8.079   9.503  17.758  0.00  0.00    +0.000 C 
BRANCH  22  23
ATOM     23  C   UNL     1       7.940   7.985  17.665  0.00  0.00    +0.000 C 
BRANCH  23  24
ATOM     24  N   UNL     1       6.524   7.657  17.505  0.00  0.00    +0.000 N 
ATOM     25  H   UNL     1       6.052   8.389  16.984  0.00  0.00    +0.000 HD
BRANCH  24  26
ATOM     26  C   UNL     1       6.202   6.381  16.987  0.00  0.00    +0.000 A 
ATOM     27  C   UNL     1       7.143   5.639  16.268  0.00  0.00    +0.000 A 
ATOM     28  C   UNL     1       6.818   4.365  15.845  0.00  0.00    +0.000 A 
ATOM     29  N   UNL     1       5.643   3.766  16.107  0.00  0.00    +0.000 NA
ATOM     30  C   UNL     1       4.742   4.442  16.831  0.00  0.00    +0.000 A 
ATOM     31  C   UNL     1       3.545   3.804  17.116  0.00  0.00    +0.000 A 
ATOM     32  C   UNL     1       2.549   4.429  17.858  0.00  0.00    +0.000 A 
ATOM     33 CL   UNL     1       1.078   3.601  18.190  0.00  0.00    +0.000 Cl
ATOM     34  C   UNL     1       2.733   5.716  18.335  0.00  0.00    +0.000 A 
ATOM     35  C   UNL     1       3.932   6.374  18.069  0.00  0.00    +0.000 A 
ATOM     36  C   UNL     1       4.963   5.757  17.312  0.00  0.00    +0.000 A 
ENDBRANCH  24  26
ENDBRANCH  23  24
ENDBRANCH  22  23
ENDBRANCH  21  22
ENDBRANCH   6  21
TORSDOF 8
ENDMDL
MODEL 4
REMARK VINA RESULT:      -8.5      5.858      9.252
REMARK  Name = 
REMARK  8 active torsions:
REMARK  status: ('A' for Active; 'I' for Inactive)
REMARK    1  A    between atoms: C_4  and  C_5
REMARK    2  A    between atoms: C_5  and  N_6
REMARK    3  A    between atoms: N_9  and  C_10
REMARK    4  A    between atoms: N_20  and  C_21
REMARK    5  A    between atoms: C_21  and  C_22
REMARK    6  A    between atoms: C_22  and  C_23
REMARK    7  A    between atoms: C_23  and  N_24
REMARK    8  A    between atoms: N_24  and  C_25
REMARK                            x       y       z     vdW  Elec       q    Type
REMARK                         _______ _______ _______ _____ _____    ______ ____
ROOT
ATOM      1  O   UNL     1       2.039   3.453  21.931  0.00  0.00    +0.000 OA
ATOM      2  C   UNL     1       2.456   3.827  20.848  0.00  0.00    +0.000 C 
ATOM      3  O   UNL     1       3.325   3.104  20.077  0.00  0.00    +0.000 OA
ATOM      4  C   UNL     1       3.724   3.901  18.952  0.00  0.00    +0.000 C 
ATOM      5  C   UNL     1       2.890   5.163  19.009  0.00  0.00    +0.000 C 
ATOM      6  N   UNL     1       2.166   5.022  20.233  0.00  0.00    +0.000 N 
ENDROOT
BRANCH   4   7
ATOM      7  C   UNL     1       5.247   4.169  18.925  0.00  0.00    +0.000 C 
BRANCH   7   8
ATOM      8  N   UNL     1       5.695   5.492  18.432  0.00  0.00    +0.000 NA
ATOM      9  C   UNL     1       7.063   5.488  17.857  0.00  0.00    +0.000 C 
ATOM     10  C   UNL     1       7.231   4.657  16.567  0.00  0.00    +0.000 C 
ATOM     11  N   UNL     1       6.271   5.097  15.535  0.00  0.00    +0.000 N 
ATOM     12  C   UNL     1       4.874   5.233  16.005  0.00  0.00    +0.000 C 
ATOM     13  C   UNL     1       4.796   5.988  17.359  0.00  0.00    +0.000 C 
BRANCH  11  14
ATOM     14  C   UNL     1       6.434   4.587  14.233  0.00  0.00    +0.000 A 
ATOM     15  C   UNL     1       5.473   3.695  13.722  0.00  0.00    +0.000 A 
ATOM     16  C   UNL     1       5.537   3.198  12.413  0.00  0.00    +0.000 A 
ATOM     17  C   UNL     1       6.573   3.583  11.568  0.00  0.00    +0.000 A 
ATOM     18  C   UNL     1       7.542   4.461  12.037  0.00  0.00    +0.000 A 
ATOM     19  C   UNL     1       7.467   4.954  13.344  0.00  0.00    +0.000 A 
ATOM     20  F   UNL     1       8.447   5.791  13.724  0.00  0.00    +0.000 F 
ENDBRANCH  11  14
ENDBRANCH   7   8
ENDBRANCH   4   7
BRANCH   6  21
ATOM     21  C   UNL     1       1.535   6.147  20.887  0.00  0.00    +0.000 C 
BRANCH  21  22
ATOM     22  C   UNL     1       2.009   7.505  20.387  0.00  0.00    +0.000 C 
BRANCH  22  23
ATOM     23  C   UNL     1       1.246   8.659  21.031  0.00  0.00    +0.000 C 
BRANCH  23  24
ATOM     24  N   UNL     1       0.746   9.534  19.970  0.00  0.00    +0.000 N 
ATOM     25  H   UNL     1       0.436   8.981  19.178  0.00  0.00    +0.000 HD
BRANCH  24  26
ATOM     26  C   UNL     1      -0.223  10.502  20.322  0.00  0.00    +0.000 A 
ATOM     27  C   UNL     1      -0.060  11.303  21.455  0.00  0.00    +0.000 A 
ATOM     28  C   UNL     1      -0.988  12.290  21.724  0.00  0.00    +0.000 A 
ATOM     29  N   UNL     1      -2.047  12.556  20.939  0.00  0.00    +0.000 NA
ATOM     30  C   UNL     1      -2.199  11.829  19.824  0.00  0.00    +0.000 A 
ATOM     31  C   UNL     1      -3.280  12.131  19.010  0.00  0.00    +0.000 A 
ATOM     32  C   UNL     1      -3.521  11.427  17.835  0.00  0.00    +0.000 A 
ATOM     33 CL   UNL     1      -4.873  11.834  16.852  0.00  0.00    +0.000 Cl
ATOM     34  C   UNL     1      -2.678  10.398  17.448  0.00  0.00    +0.000 A 
ATOM     35  C   UNL     1      -1.580  10.084  18.246  0.00  0.00    +0.000 A 
ATOM     36  C   UNL     1      -1.314  10.787  19.451  0.00  0.00    +0.000 A 
ENDBRANCH  24  26
ENDBRANCH  23  24
ENDBRANCH  22  23
ENDBRANCH  21  22
ENDBRANCH   6  21
TORSDOF 8
ENDMDL
MODEL 5
REMARK VINA RESULT:      -8.4      4.647      7.660
REMARK  Name = 
REMARK  8 active torsions:
REMARK  status: ('A' for Active; 'I' for Inactive)
REMARK    1  A    between atoms: C_4  and  C_5
REMARK    2  A    between atoms: C_5  and  N_6
REMARK    3  A    between atoms: N_9  and  C_10
REMARK    4  A    between atoms: N_20  and  C_21
REMARK    5  A    between atoms: C_21  and  C_22
REMARK    6  A    between atoms: C_22  and  C_23
REMARK    7  A    between atoms: C_23  and  N_24
REMARK    8  A    between atoms: N_24  and  C_25
REMARK                            x       y       z     vdW  Elec       q    Type
REMARK                         _______ _______ _______ _____ _____    ______ ____
ROOT
ATOM      1  O   UNL     1       2.100   5.405  20.742  0.00  0.00    +0.000 OA
ATOM      2  C   UNL     1       2.276   6.175  19.813  0.00  0.00    +0.000 C 
ATOM      3  O   UNL     1       2.433   7.525  19.963  0.00  0.00    +0.000 OA
ATOM      4  C   UNL     1       2.464   8.139  18.666  0.00  0.00    +0.000 C 
ATOM      5  C   UNL     1       2.462   7.006  17.661  0.00  0.00    +0.000 C 
ATOM      6  N   UNL     1       2.316   5.843  18.479  0.00  0.00    +0.000 N 
ENDROOT
BRANCH   4   7
ATOM      7  C   UNL     1       1.309   9.147  18.460  0.00  0.00    +0.000 C 
BRANCH   7   8
ATOM      8  N   UNL     1       1.188  10.250  19.440  0.00  0.00    +0.000 NA
ATOM      9  C   UNL     1       0.925  11.575  18.826  0.00  0.00    +0.000 C 
ATOM     10  C   UNL     1      -0.436  11.709  18.110  0.00  0.00    +0.000 C 
ATOM     11  N   UNL     1      -1.543  11.372  19.029  0.00  0.00    +0.000 N 
ATOM     12  C   UNL     1      -1.361  10.110  19.781  0.00  0.00    +0.000 C 
ATOM     13  C   UNL     1       0.066  10.000  20.381  0.00  0.00    +0.000 C 
BRANCH  11  14
ATOM     14  C   UNL     1      -2.854  11.647  18.598  0.00  0.00    +0.000 A 
ATOM     15  C   UNL     1      -3.213  11.357  17.267  0.00  0.00    +0.000 A 
ATOM     16  C   UNL     1      -4.517  11.545  16.789  0.00  0.00    +0.000 A 
ATOM     17  C   UNL     1      -5.510  12.030  17.633  0.00  0.00    +0.000 A 
ATOM     18  C   UNL     1      -5.194  12.328  18.952  0.00  0.00    +0.000 A 
ATOM     19  C   UNL     1      -3.891  12.134  19.422  0.00  0.00    +0.000 A 
ATOM     20  F   UNL     1      -3.665  12.455  20.707  0.00  0.00    +0.000 F 
ENDBRANCH  11  14
ENDBRANCH   7   8
ENDBRANCH   4   7
BRANCH   6  21
ATOM     21  C   UNL     1       1.888   4.571  17.938  0.00  0.00    +0.000 C 
BRANCH  21  22
ATOM     22  C   UNL     1       2.508   3.362  18.623  0.00  0.00    +0.000 C 
BRANCH  22  23
ATOM     23  C   UNL     1       3.373   2.537  17.674  0.00  0.00    +0.000 C 
BRANCH  23  24
ATOM     24  N   UNL     1       4.769   2.938  17.851  0.00  0.00    +0.000 N 
ATOM     25  H   UNL     1       5.368   2.120  17.861  0.00  0.00    +0.000 HD
BRANCH  24  26
ATOM     26  C   UNL     1       5.280   3.929  16.981  0.00  0.00    +0.000 A 
ATOM     27  C   UNL     1       4.863   4.000  15.649  0.00  0.00    +0.000 A 
ATOM     28  C   UNL     1       5.325   5.029  14.851  0.00  0.00    +0.000 A 
ATOM     29  N   UNL     1       6.145   6.003  15.285  0.00  0.00    +0.000 NA
ATOM     30  C   UNL     1       6.522   5.979  16.570  0.00  0.00    +0.000 A 
ATOM     31  C   UNL     1       7.345   7.003  17.011  0.00  0.00    +0.000 A 
ATOM     32  C   UNL     1       7.792   7.058  18.327  0.00  0.00    +0.000 A 
ATOM     33 CL   UNL     1       8.812   8.347  18.835  0.00  0.00    +0.000 Cl
ATOM     34  C   UNL     1       7.418   6.082  19.236  0.00  0.00    +0.000 A 
ATOM     35  C   UNL     1       6.583   5.049  18.817  0.00  0.00    +0.000 A 
ATOM     36  C   UNL     1       6.117   4.969  17.478  0.00  0.00    +0.000 A 
ENDBRANCH  24  26
ENDBRANCH  23  24
ENDBRANCH  22  23
ENDBRANCH  21  22
ENDBRANCH   6  21
TORSDOF 8
ENDMDL
MODEL 6
REMARK VINA RESULT:      -8.4      1.618      2.469
REMARK  Name = 
REMARK  8 active torsions:
REMARK  status: ('A' for Active; 'I' for Inactive)
REMARK    1  A    between atoms: C_4  and  C_5
REMARK    2  A    between atoms: C_5  and  N_6
REMARK    3  A    between atoms: N_9  and  C_10
REMARK    4  A    between atoms: N_20  and  C_21
REMARK    5  A    between atoms: C_21  and  C_22
REMARK    6  A    between atoms: C_22  and  C_23
REMARK    7  A    between atoms: C_23  and  N_24
REMARK    8  A    between atoms: N_24  and  C_25
REMARK                            x       y       z     vdW  Elec       q    Type
REMARK                         _______ _______ _______ _____ _____    ______ ____
ROOT
ATOM      1  O   UNL     1       7.750   5.728  15.165  0.00  0.00    +0.000 OA
ATOM      2  C   UNL     1       7.156   5.390  16.174  0.00  0.00    +0.000 C 
ATOM      3  O   UNL     1       6.638   4.139  16.368  0.00  0.00    +0.000 OA
ATOM      4  C   UNL     1       5.878   4.131  17.585  0.00  0.00    +0.000 C 
ATOM      5  C   UNL     1       6.095   5.485  18.228  0.00  0.00    +0.000 C 
ATOM      6  N   UNL     1       6.875   6.187  17.258  0.00  0.00    +0.000 N 
ENDROOT
BRANCH   4   7
ATOM      7  C   UNL     1       4.387   3.793  17.351  0.00  0.00    +0.000 C 
BRANCH   7   8
ATOM      8  N   UNL     1       3.548   3.557  18.548  0.00  0.00    +0.000 NA
ATOM      9  C   UNL     1       3.934   4.377  19.724  0.00  0.00    +0.000 C 
ATOM     10  C   UNL     1       3.735   5.898  19.558  0.00  0.00    +0.000 C 
ATOM     11  N   UNL     1       2.337   6.204  19.192  0.00  0.00    +0.000 N 
ATOM     12  C   UNL     1       1.794   5.385  18.085  0.00  0.00    +0.000 C 
ATOM     13  C   UNL     1       2.125   3.880  18.269  0.00  0.00    +0.000 C 
BRANCH  11  14
ATOM     14  C   UNL     1       1.939   7.554  19.211  0.00  0.00    +0.000 A 
ATOM     15  C   UNL     1       1.995   8.301  18.019  0.00  0.00    +0.000 A 
ATOM     16  C   UNL     1       1.554   9.630  17.950  0.00  0.00    +0.000 A 
ATOM     17  C   UNL     1       1.038  10.256  19.080  0.00  0.00    +0.000 A 
ATOM     18  C   UNL     1       0.967   9.551  20.275  0.00  0.00    +0.000 A 
ATOM     19  C   UNL     1       1.406   8.224  20.333  0.00  0.00    +0.000 A 
ATOM     20  F   UNL     1       1.313   7.616  21.526  0.00  0.00    +0.000 F 
ENDBRANCH  11  14
ENDBRANCH   7   8
ENDBRANCH   4   7
BRANCH   6  21
ATOM     21  C   UNL     1       6.999   7.629  17.269  0.00  0.00    +0.000 C 
BRANCH  21  22
ATOM     22  C   UNL     1       8.337   8.135  17.790  0.00  0.00    +0.000 C 
BRANCH  22  23
ATOM     23  C   UNL     1       8.250   9.563  18.321  0.00  0.00    +0.000 C 
BRANCH  23  24
ATOM     24  N   UNL     1       9.308   9.755  19.313  0.00  0.00    +0.000 N 
ATOM     25  H   UNL     1       9.939   8.962  19.308  0.00  0.00    +0.000 HD
BRANCH  24  26
ATOM     26  C   UNL     1      10.025  10.974  19.277  0.00  0.00    +0.000 A 
ATOM     27  C   UNL     1      10.840  11.296  18.189  0.00  0.00    +0.000 A 
ATOM     28  C   UNL     1      11.464  12.527  18.154  0.00  0.00    +0.000 A 
ATOM     29  N   UNL     1      11.315  13.470  19.103  0.00  0.00    +0.000 NA
ATOM     30  C   UNL     1      10.504  13.199  20.133  0.00  0.00    +0.000 A 
ATOM     31  C   UNL     1      10.339  14.188  21.090  0.00  0.00    +0.000 A 
ATOM     32  C   UNL     1       9.520  13.996  22.198  0.00  0.00    +0.000 A 
ATOM     33 CL   UNL     1       9.341  15.249  23.362  0.00  0.00    +0.000 Cl
ATOM     34  C   UNL     1       8.842  12.800  22.370  0.00  0.00    +0.000 A 
ATOM     35  C   UNL     1       8.986  11.795  21.415  0.00  0.00    +0.000 A 
ATOM     36  C   UNL     1       9.818  11.967  20.278  0.00  0.00    +0.000 A 
ENDBRANCH  24  26
ENDBRANCH  23  24
ENDBRANCH  22  23
ENDBRANCH  21  22
ENDBRANCH   6  21
TORSDOF 8
ENDMDL
MODEL 7
REMARK VINA RESULT:      -8.4      5.666      9.378
REMARK  Name = 
REMARK  8 active torsions:
REMARK  status: ('A' for Active; 'I' for Inactive)
REMARK    1  A    between atoms: C_4  and  C_5
REMARK    2  A    between atoms: C_5  and  N_6
REMARK    3  A    between atoms: N_9  and  C_10
REMARK    4  A    between atoms: N_20  and  C_21
REMARK    5  A    between atoms: C_21  and  C_22
REMARK    6  A    between atoms: C_22  and  C_23
REMARK    7  A    between atoms: C_23  and  N_24
REMARK    8  A    between atoms: N_24  and  C_25
REMARK                            x       y       z     vdW  Elec       q    Type
REMARK                         _______ _______ _______ _____ _____    ______ ____
ROOT
ATOM      1  O   UNL     1       0.981   3.920  19.923  0.00  0.00    +0.000 OA
ATOM      2  C   UNL     1       1.832   4.665  19.467  0.00  0.00    +0.000 C 
ATOM      3  O   UNL     1       2.809   4.262  18.600  0.00  0.00    +0.000 OA
ATOM      4  C   UNL     1       3.723   5.349  18.388  0.00  0.00    +0.000 C 
ATOM      5  C   UNL     1       3.131   6.545  19.103  0.00  0.00    +0.000 C 
ATOM      6  N   UNL     1       1.981   6.001  19.756  0.00  0.00    +0.000 N 
ENDROOT
BRANCH   4   7
ATOM      7  C   UNL     1       5.162   5.010  18.843  0.00  0.00    +0.000 C 
BRANCH   7   8
ATOM      8  N   UNL     1       6.246   5.917  18.399  0.00  0.00    +0.000 NA
ATOM      9  C   UNL     1       7.461   5.214  17.919  0.00  0.00    +0.000 C 
ATOM     10  C   UNL     1       7.273   4.381  16.634  0.00  0.00    +0.000 C 
ATOM     11  N   UNL     1       6.736   5.220  15.543  0.00  0.00    +0.000 N 
ATOM     12  C   UNL     1       5.569   6.050  15.918  0.00  0.00    +0.000 C 
ATOM     13  C   UNL     1       5.791   6.773  17.274  0.00  0.00    +0.000 C 
BRANCH  11  14
ATOM     14  C   UNL     1       6.706   4.667  14.249  0.00  0.00    +0.000 A 
ATOM     15  C   UNL     1       5.676   3.769  13.912  0.00  0.00    +0.000 A 
ATOM     16  C   UNL     1       5.547   3.230  12.624  0.00  0.00    +0.000 A 
ATOM     17  C   UNL     1       6.452   3.577  11.627  0.00  0.00    +0.000 A 
ATOM     18  C   UNL     1       7.483   4.460  11.922  0.00  0.00    +0.000 A 
ATOM     19  C   UNL     1       7.601   4.995  13.209  0.00  0.00    +0.000 A 
ATOM     20  F   UNL     1       8.630   5.833  13.415  0.00  0.00    +0.000 F 
ENDBRANCH  11  14
ENDBRANCH   7   8
ENDBRANCH   4   7
BRANCH   6  21
ATOM     21  C   UNL     1       1.326   6.681  20.851  0.00  0.00    +0.000 C 
BRANCH  21  22
ATOM     22  C   UNL     1       1.670   8.159  20.963  0.00  0.00    +0.000 C 
BRANCH  22  23
ATOM     23  C   UNL     1       1.069   8.983  19.826  0.00  0.00    +0.000 C 
BRANCH  23  24
ATOM     24  N   UNL     1       0.859  10.349  20.304  0.00  0.00    +0.000 N 
ATOM     25  H   UNL     1       1.654  10.930  20.062  0.00  0.00    +0.000 HD
BRANCH  24  26
ATOM     26  C   UNL     1      -0.356  10.985  19.955  0.00  0.00    +0.000 A 
ATOM     27  C   UNL     1      -0.905  10.834  18.679  0.00  0.00    +0.000 A 
ATOM     28  C   UNL     1      -2.131  11.407  18.401  0.00  0.00    +0.000 A 
ATOM     29  N   UNL     1      -2.861  12.090  19.300  0.00  0.00    +0.000 NA
ATOM     30  C   UNL     1      -2.374  12.209  20.542  0.00  0.00    +0.000 A 
ATOM     31  C   UNL     1      -3.147  12.893  21.467  0.00  0.00    +0.000 A 
ATOM     32  C   UNL     1      -2.721  13.071  22.779  0.00  0.00    +0.000 A 
ATOM     33 CL   UNL     1      -3.712  13.926  23.896  0.00  0.00    +0.000 Cl
ATOM     34  C   UNL     1      -1.502  12.562  23.195  0.00  0.00    +0.000 A 
ATOM     35  C   UNL     1      -0.712  11.863  22.285  0.00  0.00    +0.000 A 
ATOM     36  C   UNL     1      -1.124  11.671  20.940  0.00  0.00    +0.000 A 
ENDBRANCH  24  26
ENDBRANCH  23  24
ENDBRANCH  22  23
ENDBRANCH  21  22
ENDBRANCH   6  21
TORSDOF 8
ENDMDL
MODEL 8
REMARK VINA RESULT:      -8.3      4.732      7.626
REMARK  Name = 
REMARK  8 active torsions:
REMARK  status: ('A' for Active; 'I' for Inactive)
REMARK    1  A    between atoms: C_4  and  C_5
REMARK    2  A    between atoms: C_5  and  N_6
REMARK    3  A    between atoms: N_9  and  C_10
REMARK    4  A    between atoms: N_20  and  C_21
REMARK    5  A    between atoms: C_21  and  C_22
REMARK    6  A    between atoms: C_22  and  C_23
REMARK    7  A    between atoms: C_23  and  N_24
REMARK    8  A    between atoms: N_24  and  C_25
REMARK                            x       y       z     vdW  Elec       q    Type
REMARK                         _______ _______ _______ _____ _____    ______ ____
ROOT
ATOM      1  O   UNL     1       1.020   4.368  20.592  0.00  0.00    +0.000 OA
ATOM      2  C   UNL     1       1.539   5.352  20.094  0.00  0.00    +0.000 C 
ATOM      3  O   UNL     1       1.740   6.528  20.763  0.00  0.00    +0.000 OA
ATOM      4  C   UNL     1       2.229   7.513  19.841  0.00  0.00    +0.000 C 
ATOM      5  C   UNL     1       2.463   6.789  18.532  0.00  0.00    +0.000 C 
ATOM      6  N   UNL     1       1.978   5.470  18.796  0.00  0.00    +0.000 N 
ENDROOT
BRANCH   4   7
ATOM      7  C   UNL     1       1.279   8.727  19.712  0.00  0.00    +0.000 C 
BRANCH   7   8
ATOM      8  N   UNL     1       1.108   9.316  18.364  0.00  0.00    +0.000 NA
ATOM      9  C   UNL     1      -0.236   9.898  18.127  0.00  0.00    +0.000 C 
ATOM     10  C   UNL     1      -0.581  11.127  18.995  0.00  0.00    +0.000 C 
ATOM     11  N   UNL     1       0.440  12.182  18.836  0.00  0.00    +0.000 N 
ATOM     12  C   UNL     1       1.839  11.713  18.957  0.00  0.00    +0.000 C 
ATOM     13  C   UNL     1       2.082  10.415  18.140  0.00  0.00    +0.000 C 
BRANCH  11  14
ATOM     14  C   UNL     1       0.165  13.445  19.393  0.00  0.00    +0.000 A 
ATOM     15  C   UNL     1      -0.103  14.528  18.535  0.00  0.00    +0.000 A 
ATOM     16  C   UNL     1      -0.447  15.797  19.021  0.00  0.00    +0.000 A 
ATOM     17  C   UNL     1      -0.536  16.022  20.390  0.00  0.00    +0.000 A 
ATOM     18  C   UNL     1      -0.278  14.977  21.269  0.00  0.00    +0.000 A 
ATOM     19  C   UNL     1       0.062  13.714  20.775  0.00  0.00    +0.000 A 
ATOM     20  F   UNL     1       0.305  12.761  21.689  0.00  0.00    +0.000 F 
ENDBRANCH  11  14
ENDBRANCH   7   8
ENDBRANCH   4   7
BRANCH   6  21
ATOM     21  C   UNL     1       1.651   4.545  17.733  0.00  0.00    +0.000 C 
BRANCH  21  22
ATOM     22  C   UNL     1       2.327   3.187  17.860  0.00  0.00    +0.000 C 
BRANCH  22  23
ATOM     23  C   UNL     1       3.711   3.284  18.498  0.00  0.00    +0.000 C 
BRANCH  23  24
ATOM     24  N   UNL     1       4.705   2.839  17.521  0.00  0.00    +0.000 N 
ATOM     25  H   UNL     1       4.329   2.082  16.960  0.00  0.00    +0.000 HD
BRANCH  24  26
ATOM     26  C   UNL     1       5.306   3.825  16.703  0.00  0.00    +0.000 A 
ATOM     27  C   UNL     1       5.010   3.905  15.340  0.00  0.00    +0.000 A 
ATOM     28  C   UNL     1       5.557   4.928  14.591  0.00  0.00    +0.000 A 
ATOM     29  N   UNL     1       6.349   5.889  15.099  0.00  0.00    +0.000 NA
ATOM     30  C   UNL     1       6.611   5.856  16.412  0.00  0.00    +0.000 A 
ATOM     31  C   UNL     1       7.408   6.866  16.928  0.00  0.00    +0.000 A 
ATOM     32  C   UNL     1       7.737   6.911  18.279  0.00  0.00    +0.000 A 
ATOM     33 CL   UNL     1       8.727   8.183  18.879  0.00  0.00    +0.000 Cl
ATOM     34  C   UNL     1       7.269   5.939  19.147  0.00  0.00    +0.000 A 
ATOM     35  C   UNL     1       6.459   4.920  18.652  0.00  0.00    +0.000 A 
ATOM     36  C   UNL     1       6.112   4.850  17.277  0.00  0.00    +0.000 A 
ENDBRANCH  24  26
ENDBRANCH  23  24
ENDBRANCH  22  23
ENDBRANCH  21  22
ENDBRANCH   6  21
TORSDOF 8
ENDMDL
MODEL 9
REMARK VINA RESULT:      -8.2      4.525      7.317
REMARK  Name = 
REMARK  8 active torsions:
REMARK  status: ('A' for Active; 'I' for Inactive)
REMARK    1  A    between atoms: C_4  and  C_5
REMARK    2  A    between atoms: C_5  and  N_6
REMARK    3  A    between atoms: N_9  and  C_10
REMARK    4  A    between atoms: N_20  and  C_21
REMARK    5  A    between atoms: C_21  and  C_22
REMARK    6  A    between atoms: C_22  and  C_23
REMARK    7  A    between atoms: C_23  and  N_24
REMARK    8  A    between atoms: N_24  and  C_25
REMARK                            x       y       z     vdW  Elec       q    Type
REMARK                         _______ _______ _______ _____ _____    ______ ____
ROOT
ATOM      1  O   UNL     1       3.401   3.867  20.602  0.00  0.00    +0.000 OA
ATOM      2  C   UNL     1       3.035   4.827  19.944  0.00  0.00    +0.000 C 
ATOM      3  O   UNL     1       3.210   6.126  20.333  0.00  0.00    +0.000 OA
ATOM      4  C   UNL     1       2.531   6.987  19.407  0.00  0.00    +0.000 C 
ATOM      5  C   UNL     1       2.028   6.095  18.291  0.00  0.00    +0.000 C 
ATOM      6  N   UNL     1       2.370   4.782  18.741  0.00  0.00    +0.000 N 
ENDROOT
BRANCH   4   7
ATOM      7  C   UNL     1       1.416   7.820  20.080  0.00  0.00    +0.000 C 
BRANCH   7   8
ATOM      8  N   UNL     1       1.614   9.286  20.154  0.00  0.00    +0.000 NA
ATOM      9  C   UNL     1       1.724   9.946  18.830  0.00  0.00    +0.000 C 
ATOM     10  C   UNL     1       0.447   9.897  17.964  0.00  0.00    +0.000 C 
ATOM     11  N   UNL     1      -0.702  10.468  18.697  0.00  0.00    +0.000 N 
ATOM     12  C   UNL     1      -0.870   9.959  20.077  0.00  0.00    +0.000 C 
ATOM     13  C   UNL     1       0.476   9.939  20.850  0.00  0.00    +0.000 C 
BRANCH  11  14
ATOM     14  C   UNL     1      -1.889  10.692  17.975  0.00  0.00    +0.000 A 
ATOM     15  C   UNL     1      -2.122   9.960  16.796  0.00  0.00    +0.000 A 
ATOM     16  C   UNL     1      -3.311  10.085  16.063  0.00  0.00    +0.000 A 
ATOM     17  C   UNL     1      -4.310  10.952  16.492  0.00  0.00    +0.000 A 
ATOM     18  C   UNL     1      -4.117  11.692  17.651  0.00  0.00    +0.000 A 
ATOM     19  C   UNL     1      -2.929  11.558  18.378  0.00  0.00    +0.000 A 
ATOM     20  F   UNL     1      -2.815  12.314  19.482  0.00  0.00    +0.000 F 
ENDBRANCH  11  14
ENDBRANCH   7   8
ENDBRANCH   4   7
BRANCH   6  21
ATOM     21  C   UNL     1       1.756   3.595  18.189  0.00  0.00    +0.000 C 
BRANCH  21  22
ATOM     22  C   UNL     1       2.479   3.026  16.976  0.00  0.00    +0.000 C 
BRANCH  22  23
ATOM     23  C   UNL     1       3.627   2.098  17.367  0.00  0.00    +0.000 C 
BRANCH  23  24
ATOM     24  N   UNL     1       4.735   2.915  17.863  0.00  0.00    +0.000 N 
ATOM     25  H   UNL     1       5.430   2.326  18.309  0.00  0.00    +0.000 HD
BRANCH  24  26
ATOM     26  C   UNL     1       5.341   3.816  16.956  0.00  0.00    +0.000 A 
ATOM     27  C   UNL     1       5.055   3.760  15.589  0.00  0.00    +0.000 A 
ATOM     28  C   UNL     1       5.606   4.705  14.746  0.00  0.00    +0.000 A 
ATOM     29  N   UNL     1       6.393   5.713  15.162  0.00  0.00    +0.000 NA
ATOM     30  C   UNL     1       6.644   5.811  16.474  0.00  0.00    +0.000 A 
ATOM     31  C   UNL     1       7.435   6.870  16.894  0.00  0.00    +0.000 A 
ATOM     32  C   UNL     1       7.753   7.050  18.235  0.00  0.00    +0.000 A 
ATOM     33 CL   UNL     1       8.737   8.377  18.714  0.00  0.00    +0.000 Cl
ATOM     34  C   UNL     1       7.281   6.167  19.193  0.00  0.00    +0.000 A 
ATOM     35  C   UNL     1       6.476   5.102  18.795  0.00  0.00    +0.000 A 
ATOM     36  C   UNL     1       6.140   4.895  17.431  0.00  0.00    +0.000 A 
ENDBRANCH  24  26
ENDBRANCH  23  24
ENDBRANCH  22  23
ENDBRANCH  21  22
ENDBRANCH   6  21
TORSDOF 8
ENDMDL
