MODEL 1
REMARK VINA RESULT:      -7.4      0.000      0.000
REMARK  Name = 
REMARK  8 active torsions:
REMARK  status: ('A' for Active; 'I' for Inactive)
REMARK    1  A    between atoms: CD1_1  and  CG_2
REMARK    2  A    between atoms: CG_2  and  CD2_3
REMARK    3  A    between atoms: CG_2  and  CB_4
REMARK    4  A    between atoms: CB_4  and  CA_5
REMARK    5  A    between atoms: CA_5  and  C_6
REMARK    6  A    between atoms: CA_5  and  N_8
REMARK    7  A    between atoms: C_6  and  O_7
REMARK    8  A    between atoms: N_8  and  C_9
REMARK                            x       y       z     vdW  Elec       q    Type
REMARK                         _______ _______ _______ _____ _____    ______ ____
ROOT
ATOM      1  C   UNK A   0       3.417   5.319  18.313  0.00  0.00    +0.000 A 
ATOM      2  C   UNK A   0       3.370   4.426  19.433  0.00  0.00    +0.000 A 
ATOM      3  C   UNK A   0       4.111   3.224  19.588  0.00  0.00    +0.000 A 
ATOM      4  C   UNK A   0       3.785   2.271  20.548  0.00  0.00    +0.000 A 
ATOM      5  C   UNK A   0       2.794   2.557  21.467  0.00  0.00    +0.000 A 
ATOM      6  C   UNK A   0       2.214   3.825  21.466  0.00  0.00    +0.000 A 
ATOM      7  C   UNK A   0       2.506   4.766  20.488  0.00  0.00    +0.000 A 
ATOM      8  N   UNK A   0       1.931   5.965  20.607  0.00  0.00    +0.000 NA
ATOM      9  C   UNK A   0       2.138   6.888  19.667  0.00  0.00    +0.000 A 
ATOM     10  C   UNK A   0       1.607   8.147  19.917  0.00  0.00    +0.000 A 
ATOM     11  C   UNK A   0       1.692   9.185  18.993  0.00  0.00    +0.000 A 
ATOM     12  C   UNK A   0       2.323   8.952  17.789  0.00  0.00    +0.000 A 
ATOM     13  C   UNK A   0       2.893   7.699  17.526  0.00  0.00    +0.000 A 
ATOM     14  C   UNK A   0       2.835   6.630  18.467  0.00  0.00    +0.000 A 
ENDROOT
BRANCH   1  15
ATOM     15  N   LEU A   1       4.072   4.976  17.088  0.00  0.00    +0.000 N 
ATOM     16  H   LEU A   1       4.143   3.964  16.991  0.00  0.00    +0.000 HD
BRANCH  15  17
ATOM     17  CA  LEU A   1       5.378   5.601  16.721  0.00  0.00    +0.000 C 
BRANCH  17  18
ATOM     18  CB  LEU A   1       6.583   4.807  17.258  0.00  0.00    +0.000 C 
BRANCH  18  20
ATOM     19  CD1 LEU A   1       7.608   7.121  17.770  0.00  0.00    +0.000 C 
ATOM     20  CG  LEU A   1       7.540   5.638  18.155  0.00  0.00    +0.000 C 
ATOM     21  CD2 LEU A   1       7.115   5.529  19.622  0.00  0.00    +0.000 C 
ENDBRANCH  18  20
ENDBRANCH  17  18
BRANCH  17  22
ATOM     22  C   LEU A   1       5.413   5.783  15.186  0.00  0.00    +0.000 C 
BRANCH  22  23
ATOM     23  O   LEU A   1       6.742   5.596  14.694  0.00  0.00    +0.000 OA
ATOM     24  H   LEU A   1       7.070   6.496  14.494  0.00  0.00    +0.000 HD
ENDBRANCH  22  23
ENDBRANCH  17  22
ENDBRANCH  15  17
ENDBRANCH   1  15
TORSDOF 6
ENDMDL
MODEL 2
REMARK VINA RESULT:      -7.3      2.623      6.218
REMARK  Name = 
REMARK  8 active torsions:
REMARK  status: ('A' for Active; 'I' for Inactive)
REMARK    1  A    between atoms: CD1_1  and  CG_2
REMARK    2  A    between atoms: CG_2  and  CD2_3
REMARK    3  A    between atoms: CG_2  and  CB_4
REMARK    4  A    between atoms: CB_4  and  CA_5
REMARK    5  A    between atoms: CA_5  and  C_6
REMARK    6  A    between atoms: CA_5  and  N_8
REMARK    7  A    between atoms: C_6  and  O_7
REMARK    8  A    between atoms: N_8  and  C_9
REMARK                            x       y       z     vdW  Elec       q    Type
REMARK                         _______ _______ _______ _____ _____    ______ ____
ROOT
ATOM      1  C   UNK A   0       5.678   3.751  16.252  0.00  0.00    +0.000 A 
ATOM      2  C   UNK A   0       5.912   3.989  14.858  0.00  0.00    +0.000 A 
ATOM      3  C   UNK A   0       5.187   3.432  13.772  0.00  0.00    +0.000 A 
ATOM      4  C   UNK A   0       5.663   3.470  12.465  0.00  0.00    +0.000 A 
ATOM      5  C   UNK A   0       6.813   4.186  12.192  0.00  0.00    +0.000 A 
ATOM      6  C   UNK A   0       7.410   4.925  13.212  0.00  0.00    +0.000 A 
ATOM      7  C   UNK A   0       6.963   4.861  14.524  0.00  0.00    +0.000 A 
ATOM      8  N   UNK A   0       7.575   5.645  15.415  0.00  0.00    +0.000 NA
ATOM      9  C   UNK A   0       7.219   5.584  16.698  0.00  0.00    +0.000 A 
ATOM     10  C   UNK A   0       7.814   6.511  17.545  0.00  0.00    +0.000 A 
ATOM     11  C   UNK A   0       7.582   6.518  18.917  0.00  0.00    +0.000 A 
ATOM     12  C   UNK A   0       6.735   5.571  19.453  0.00  0.00    +0.000 A 
ATOM     13  C   UNK A   0       6.099   4.644  18.615  0.00  0.00    +0.000 A 
ATOM     14  C   UNK A   0       6.306   4.634  17.205  0.00  0.00    +0.000 A 
ENDROOT
BRANCH   1  15
ATOM     15  N   LEU A   1       4.801   2.720  16.715  0.00  0.00    +0.000 N 
ATOM     16  H   LEU A   1       4.369   2.238  15.929  0.00  0.00    +0.000 HD
BRANCH  15  17
ATOM     17  CA  LEU A   1       3.762   3.010  17.749  0.00  0.00    +0.000 C 
BRANCH  17  18
ATOM     18  CB  LEU A   1       2.619   3.886  17.206  0.00  0.00    +0.000 C 
BRANCH  18  20
ATOM     19  CD1 LEU A   1       2.353   4.717  19.636  0.00  0.00    +0.000 C 
ATOM     20  CG  LEU A   1       2.214   5.054  18.146  0.00  0.00    +0.000 C 
ATOM     21  CD2 LEU A   1       3.058   6.294  17.841  0.00  0.00    +0.000 C 
ENDBRANCH  18  20
ENDBRANCH  17  18
BRANCH  17  22
ATOM     22  C   LEU A   1       3.267   1.665  18.328  0.00  0.00    +0.000 C 
BRANCH  22  23
ATOM     23  O   LEU A   1       4.347   0.732  18.412  0.00  0.00    +0.000 OA
ATOM     24  H   LEU A   1       4.499   0.604  19.370  0.00  0.00    +0.000 HD
ENDBRANCH  22  23
ENDBRANCH  17  22
ENDBRANCH  15  17
ENDBRANCH   1  15
TORSDOF 6
ENDMDL
MODEL 3
REMARK VINA RESULT:      -7.3      2.559      6.099
REMARK  Name = 
REMARK  8 active torsions:
REMARK  status: ('A' for Active; 'I' for Inactive)
REMARK    1  A    between atoms: CD1_1  and  CG_2
REMARK    2  A    between atoms: CG_2  and  CD2_3
REMARK    3  A    between atoms: CG_2  and  CB_4
REMARK    4  A    between atoms: CB_4  and  CA_5
REMARK    5  A    between atoms: CA_5  and  C_6
REMARK    6  A    between atoms: CA_5  and  N_8
REMARK    7  A    between atoms: C_6  and  O_7
REMARK    8  A    between atoms: N_8  and  C_9
REMARK                            x       y       z     vdW  Elec       q    Type
REMARK                         _______ _______ _______ _____ _____    ______ ____
ROOT
ATOM      1  C   UNK A   0       5.620   3.947  16.154  0.00  0.00    +0.000 A 
ATOM      2  C   UNK A   0       6.372   4.690  17.122  0.00  0.00    +0.000 A 
ATOM      3  C   UNK A   0       6.325   4.533  18.533  0.00  0.00    +0.000 A 
ATOM      4  C   UNK A   0       6.846   5.486  19.403  0.00  0.00    +0.000 A 
ATOM      5  C   UNK A   0       7.548   6.555  18.883  0.00  0.00    +0.000 A 
ATOM      6  C   UNK A   0       7.796   6.601  17.512  0.00  0.00    +0.000 A 
ATOM      7  C   UNK A   0       7.248   5.676  16.634  0.00  0.00    +0.000 A 
ATOM      8  N   UNK A   0       7.586   5.783  15.347  0.00  0.00    +0.000 NA
ATOM      9  C   UNK A   0       7.047   4.952  14.455  0.00  0.00    +0.000 A 
ATOM     10  C   UNK A   0       7.536   5.044  13.158  0.00  0.00    +0.000 A 
ATOM     11  C   UNK A   0       7.017   4.282  12.114  0.00  0.00    +0.000 A 
ATOM     12  C   UNK A   0       5.982   3.409  12.379  0.00  0.00    +0.000 A 
ATOM     13  C   UNK A   0       5.493   3.276  13.686  0.00  0.00    +0.000 A 
ATOM     14  C   UNK A   0       6.024   4.031  14.772  0.00  0.00    +0.000 A 
ENDROOT
BRANCH   1  15
ATOM     15  N   LEU A   1       4.539   3.086  16.523  0.00  0.00    +0.000 N 
ATOM     16  H   LEU A   1       3.886   2.979  15.749  0.00  0.00    +0.000 HD
BRANCH  15  17
ATOM     17  CA  LEU A   1       3.776   3.319  17.786  0.00  0.00    +0.000 C 
BRANCH  17  18
ATOM     18  CB  LEU A   1       2.530   4.197  17.567  0.00  0.00    +0.000 C 
BRANCH  18  20
ATOM     19  CD1 LEU A   1       2.956   5.205  19.906  0.00  0.00    +0.000 C 
ATOM     20  CG  LEU A   1       2.476   5.458  18.472  0.00  0.00    +0.000 C 
ATOM     21  CD2 LEU A   1       3.319   6.581  17.860  0.00  0.00    +0.000 C 
ENDBRANCH  18  20
ENDBRANCH  17  18
BRANCH  17  22
ATOM     22  C   LEU A   1       3.442   1.946  18.411  0.00  0.00    +0.000 C 
BRANCH  22  23
ATOM     23  O   LEU A   1       4.483   1.538  19.301  0.00  0.00    +0.000 OA
ATOM     24  H   LEU A   1       4.190   1.831  20.188  0.00  0.00    +0.000 HD
ENDBRANCH  22  23
ENDBRANCH  17  22
ENDBRANCH  15  17
ENDBRANCH   1  15
TORSDOF 6
ENDMDL
MODEL 4
REMARK VINA RESULT:      -7.3      2.901      5.370
REMARK  Name = 
REMARK  8 active torsions:
REMARK  status: ('A' for Active; 'I' for Inactive)
REMARK    1  A    between atoms: CD1_1  and  CG_2
REMARK    2  A    between atoms: CG_2  and  CD2_3
REMARK    3  A    between atoms: CG_2  and  CB_4
REMARK    4  A    between atoms: CB_4  and  CA_5
REMARK    5  A    between atoms: CA_5  and  C_6
REMARK    6  A    between atoms: CA_5  and  N_8
REMARK    7  A    between atoms: C_6  and  O_7
REMARK    8  A    between atoms: N_8  and  C_9
REMARK                            x       y       z     vdW  Elec       q    Type
REMARK                         _______ _______ _______ _____ _____    ______ ____
ROOT
ATOM      1  C   UNK A   0       5.132   4.805  16.784  0.00  0.00    +0.000 A 
ATOM      2  C   UNK A   0       6.055   5.613  17.525  0.00  0.00    +0.000 A 
ATOM      3  C   UNK A   0       6.720   6.779  17.059  0.00  0.00    +0.000 A 
ATOM      4  C   UNK A   0       7.816   7.321  17.724  0.00  0.00    +0.000 A 
ATOM      5  C   UNK A   0       8.191   6.791  18.943  0.00  0.00    +0.000 A 
ATOM      6  C   UNK A   0       7.406   5.792  19.517  0.00  0.00    +0.000 A 
ATOM      7  C   UNK A   0       6.335   5.221  18.845  0.00  0.00    +0.000 A 
ATOM      8  N   UNK A   0       5.621   4.305  19.504  0.00  0.00    +0.000 NA
ATOM      9  C   UNK A   0       4.614   3.688  18.886  0.00  0.00    +0.000 A 
ATOM     10  C   UNK A   0       3.842   2.838  19.668  0.00  0.00    +0.000 A 
ATOM     11  C   UNK A   0       2.801   2.082  19.137  0.00  0.00    +0.000 A 
ATOM     12  C   UNK A   0       2.529   2.180  17.788  0.00  0.00    +0.000 A 
ATOM     13  C   UNK A   0       3.274   3.053  16.984  0.00  0.00    +0.000 A 
ATOM     14  C   UNK A   0       4.330   3.852  17.512  0.00  0.00    +0.000 A 
ENDROOT
BRANCH   1  15
ATOM     15  N   LEU A   1       4.939   4.960  15.375  0.00  0.00    +0.000 N 
ATOM     16  H   LEU A   1       3.948   4.933  15.144  0.00  0.00    +0.000 HD
BRANCH  15  17
ATOM     17  CA  LEU A   1       5.697   4.114  14.404  0.00  0.00    +0.000 C 
BRANCH  17  18
ATOM     18  CB  LEU A   1       5.249   4.344  12.949  0.00  0.00    +0.000 C 
BRANCH  18  20
ATOM     19  CD1 LEU A   1       3.926   3.240  11.026  0.00  0.00    +0.000 C 
ATOM     20  CG  LEU A   1       4.925   3.039  12.172  0.00  0.00    +0.000 C 
ATOM     21  CD2 LEU A   1       6.210   2.430  11.604  0.00  0.00    +0.000 C 
ENDBRANCH  18  20
ENDBRANCH  17  18
BRANCH  17  22
ATOM     22  C   LEU A   1       7.207   4.368  14.616  0.00  0.00    +0.000 C 
BRANCH  22  23
ATOM     23  O   LEU A   1       7.631   5.503  13.857  0.00  0.00    +0.000 OA
ATOM     24  H   LEU A   1       6.807   5.979  13.627  0.00  0.00    +0.000 HD
ENDBRANCH  22  23
ENDBRANCH  17  22
ENDBRANCH  15  17
ENDBRANCH   1  15
TORSDOF 6
ENDMDL
MODEL 5
REMARK VINA RESULT:      -7.3      2.306      5.015
REMARK  Name = 
REMARK  8 active torsions:
REMARK  status: ('A' for Active; 'I' for Inactive)
REMARK    1  A    between atoms: CD1_1  and  CG_2
REMARK    2  A    between atoms: CG_2  and  CD2_3
REMARK    3  A    between atoms: CG_2  and  CB_4
REMARK    4  A    between atoms: CB_4  and  CA_5
REMARK    5  A    between atoms: CA_5  and  C_6
REMARK    6  A    between atoms: CA_5  and  N_8
REMARK    7  A    between atoms: C_6  and  O_7
REMARK    8  A    between atoms: N_8  and  C_9
REMARK                            x       y       z     vdW  Elec       q    Type
REMARK                         _______ _______ _______ _____ _____    ______ ____
ROOT
ATOM      1  C   UNK A   0       4.481   4.970  18.431  0.00  0.00    +0.000 A 
ATOM      2  C   UNK A   0       5.012   4.869  17.104  0.00  0.00    +0.000 A 
ATOM      3  C   UNK A   0       5.636   3.731  16.527  0.00  0.00    +0.000 A 
ATOM      4  C   UNK A   0       6.388   3.811  15.359  0.00  0.00    +0.000 A 
ATOM      5  C   UNK A   0       6.421   5.004  14.663  0.00  0.00    +0.000 A 
ATOM      6  C   UNK A   0       5.629   6.065  15.099  0.00  0.00    +0.000 A 
ATOM      7  C   UNK A   0       4.908   6.006  16.283  0.00  0.00    +0.000 A 
ATOM      8  N   UNK A   0       4.144   7.059  16.584  0.00  0.00    +0.000 NA
ATOM      9  C   UNK A   0       3.471   7.075  17.734  0.00  0.00    +0.000 A 
ATOM     10  C   UNK A   0       2.606   8.145  17.925  0.00  0.00    +0.000 A 
ATOM     11  C   UNK A   0       1.891   8.320  19.107  0.00  0.00    +0.000 A 
ATOM     12  C   UNK A   0       2.050   7.400  20.122  0.00  0.00    +0.000 A 
ATOM     13  C   UNK A   0       2.893   6.295  19.942  0.00  0.00    +0.000 A 
ATOM     14  C   UNK A   0       3.617   6.086  18.733  0.00  0.00    +0.000 A 
ENDROOT
BRANCH   1  15
ATOM     15  N   LEU A   1       4.726   3.976  19.430  0.00  0.00    +0.000 N 
ATOM     16  H   LEU A   1       5.573   3.454  19.215  0.00  0.00    +0.000 HD
BRANCH  15  17
ATOM     17  CA  LEU A   1       3.649   3.026  19.841  0.00  0.00    +0.000 C 
BRANCH  17  18
ATOM     18  CB  LEU A   1       2.909   2.418  18.636  0.00  0.00    +0.000 C 
BRANCH  18  20
ATOM     19  CD1 LEU A   1       0.805   3.223  19.897  0.00  0.00    +0.000 C 
ATOM     20  CG  LEU A   1       1.408   2.810  18.549  0.00  0.00    +0.000 C 
ATOM     21  CD2 LEU A   1       1.220   3.956  17.552  0.00  0.00    +0.000 C 
ENDBRANCH  18  20
ENDBRANCH  17  18
BRANCH  17  22
ATOM     22  C   LEU A   1       4.273   1.957  20.766  0.00  0.00    +0.000 C 
BRANCH  22  23
ATOM     23  O   LEU A   1       5.302   1.244  20.076  0.00  0.00    +0.000 OA
ATOM     24  H   LEU A   1       5.035   1.256  19.135  0.00  0.00    +0.000 HD
ENDBRANCH  22  23
ENDBRANCH  17  22
ENDBRANCH  15  17
ENDBRANCH   1  15
TORSDOF 6
ENDMDL
MODEL 6
REMARK VINA RESULT:      -7.2      2.623      5.836
REMARK  Name = 
REMARK  8 active torsions:
REMARK  status: ('A' for Active; 'I' for Inactive)
REMARK    1  A    between atoms: CD1_1  and  CG_2
REMARK    2  A    between atoms: CG_2  and  CD2_3
REMARK    3  A    between atoms: CG_2  and  CB_4
REMARK    4  A    between atoms: CB_4  and  CA_5
REMARK    5  A    between atoms: CA_5  and  C_6
REMARK    6  A    between atoms: CA_5  and  N_8
REMARK    7  A    between atoms: C_6  and  O_7
REMARK    8  A    between atoms: N_8  and  C_9
REMARK                            x       y       z     vdW  Elec       q    Type
REMARK                         _______ _______ _______ _____ _____    ______ ____
ROOT
ATOM      1  C   UNK A   0       2.943   6.328  19.741  0.00  0.00    +0.000 A 
ATOM      2  C   UNK A   0       2.248   7.568  19.555  0.00  0.00    +0.000 A 
ATOM      3  C   UNK A   0       1.453   8.243  20.518  0.00  0.00    +0.000 A 
ATOM      4  C   UNK A   0       0.576   9.266  20.170  0.00  0.00    +0.000 A 
ATOM      5  C   UNK A   0       0.572   9.731  18.869  0.00  0.00    +0.000 A 
ATOM      6  C   UNK A   0       1.509   9.229  17.967  0.00  0.00    +0.000 A 
ATOM      7  C   UNK A   0       2.360   8.183  18.296  0.00  0.00    +0.000 A 
ATOM      8  N   UNK A   0       3.251   7.810  17.375  0.00  0.00    +0.000 NA
ATOM      9  C   UNK A   0       4.057   6.777  17.621  0.00  0.00    +0.000 A 
ATOM     10  C   UNK A   0       5.036   6.522  16.669  0.00  0.00    +0.000 A 
ATOM     11  C   UNK A   0       5.903   5.437  16.768  0.00  0.00    +0.000 A 
ATOM     12  C   UNK A   0       5.781   4.586  17.847  0.00  0.00    +0.000 A 
ATOM     13  C   UNK A   0       4.821   4.839  18.836  0.00  0.00    +0.000 A 
ATOM     14  C   UNK A   0       3.939   5.956  18.765  0.00  0.00    +0.000 A 
ENDROOT
BRANCH   1  15
ATOM     15  N   LEU A   1       2.728   5.494  20.882  0.00  0.00    +0.000 N 
ATOM     16  H   LEU A   1       3.612   5.128  21.231  0.00  0.00    +0.000 HD
BRANCH  15  17
ATOM     17  CA  LEU A   1       1.717   4.394  20.844  0.00  0.00    +0.000 C 
BRANCH  17  18
ATOM     18  CB  LEU A   1       1.149   4.166  19.432  0.00  0.00    +0.000 C 
BRANCH  18  20
ATOM     19  CD1 LEU A   1       0.648   1.764  18.627  0.00  0.00    +0.000 C 
ATOM     20  CG  LEU A   1       1.686   2.889  18.730  0.00  0.00    +0.000 C 
ATOM     21  CD2 LEU A   1       2.186   3.230  17.324  0.00  0.00    +0.000 C 
ENDBRANCH  18  20
ENDBRANCH  17  18
BRANCH  17  22
ATOM     22  C   LEU A   1       2.361   3.124  21.445  0.00  0.00    +0.000 C 
BRANCH  22  23
ATOM     23  O   LEU A   1       1.422   2.437  22.276  0.00  0.00    +0.000 OA
ATOM     24  H   LEU A   1       0.818   3.132  22.608  0.00  0.00    +0.000 HD
ENDBRANCH  22  23
ENDBRANCH  17  22
ENDBRANCH  15  17
ENDBRANCH   1  15
TORSDOF 6
ENDMDL
MODEL 7
REMARK VINA RESULT:      -7.1      0.902      3.963
REMARK  Name = 
REMARK  8 active torsions:
REMARK  status: ('A' for Active; 'I' for Inactive)
REMARK    1  A    between atoms: CD1_1  and  CG_2
REMARK    2  A    between atoms: CG_2  and  CD2_3
REMARK    3  A    between atoms: CG_2  and  CB_4
REMARK    4  A    between atoms: CB_4  and  CA_5
REMARK    5  A    between atoms: CA_5  and  C_6
REMARK    6  A    between atoms: CA_5  and  N_8
REMARK    7  A    between atoms: C_6  and  O_7
REMARK    8  A    between atoms: N_8  and  C_9
REMARK                            x       y       z     vdW  Elec       q    Type
REMARK                         _______ _______ _______ _____ _____    ______ ____
ROOT
ATOM      1  C   UNK A   0       3.088   5.684  18.262  0.00  0.00    +0.000 A 
ATOM      2  C   UNK A   0       2.416   6.926  18.509  0.00  0.00    +0.000 A 
ATOM      3  C   UNK A   0       2.175   7.960  17.565  0.00  0.00    +0.000 A 
ATOM      4  C   UNK A   0       1.797   9.242  17.951  0.00  0.00    +0.000 A 
ATOM      5  C   UNK A   0       1.518   9.487  19.282  0.00  0.00    +0.000 A 
ATOM      6  C   UNK A   0       1.532   8.424  20.183  0.00  0.00    +0.000 A 
ATOM      7  C   UNK A   0       1.946   7.152  19.814  0.00  0.00    +0.000 A 
ATOM      8  N   UNK A   0       1.876   6.195  20.743  0.00  0.00    +0.000 NA
ATOM      9  C   UNK A   0       2.309   4.968  20.456  0.00  0.00    +0.000 A 
ATOM     10  C   UNK A   0       2.096   3.998  21.428  0.00  0.00    +0.000 A 
ATOM     11  C   UNK A   0       2.554   2.692  21.286  0.00  0.00    +0.000 A 
ATOM     12  C   UNK A   0       3.246   2.350  20.142  0.00  0.00    +0.000 A 
ATOM     13  C   UNK A   0       3.447   3.303  19.133  0.00  0.00    +0.000 A 
ATOM     14  C   UNK A   0       2.967   4.640  19.250  0.00  0.00    +0.000 A 
ENDROOT
BRANCH   1  15
ATOM     15  N   LEU A   1       3.809   5.433  17.052  0.00  0.00    +0.000 N 
ATOM     16  H   LEU A   1       3.740   4.450  16.792  0.00  0.00    +0.000 HD
BRANCH  15  17
ATOM     17  CA  LEU A   1       5.224   5.888  16.898  0.00  0.00    +0.000 C 
BRANCH  17  18
ATOM     18  CB  LEU A   1       5.954   6.006  18.248  0.00  0.00    +0.000 C 
BRANCH  18  20
ATOM     19  CD1 LEU A   1       7.832   7.725  17.818  0.00  0.00    +0.000 C 
ATOM     20  CG  LEU A   1       7.481   6.263  18.122  0.00  0.00    +0.000 C 
ATOM     21  CD2 LEU A   1       8.194   5.842  19.410  0.00  0.00    +0.000 C 
ENDBRANCH  18  20
ENDBRANCH  17  18
BRANCH  17  22
ATOM     22  C   LEU A   1       5.934   4.934  15.911  0.00  0.00    +0.000 C 
BRANCH  22  23
ATOM     23  O   LEU A   1       5.872   3.588  16.389  0.00  0.00    +0.000 OA
ATOM     24  H   LEU A   1       6.780   3.382  16.691  0.00  0.00    +0.000 HD
ENDBRANCH  22  23
ENDBRANCH  17  22
ENDBRANCH  15  17
ENDBRANCH   1  15
TORSDOF 6
ENDMDL
MODEL 8
REMARK VINA RESULT:      -7.0      2.207      5.652
REMARK  Name = 
REMARK  8 active torsions:
REMARK  status: ('A' for Active; 'I' for Inactive)
REMARK    1  A    between atoms: CD1_1  and  CG_2
REMARK    2  A    between atoms: CG_2  and  CD2_3
REMARK    3  A    between atoms: CG_2  and  CB_4
REMARK    4  A    between atoms: CB_4  and  CA_5
REMARK    5  A    between atoms: CA_5  and  C_6
REMARK    6  A    between atoms: CA_5  and  N_8
REMARK    7  A    between atoms: C_6  and  O_7
REMARK    8  A    between atoms: N_8  and  C_9
REMARK                            x       y       z     vdW  Elec       q    Type
REMARK                         _______ _______ _______ _____ _____    ______ ____
ROOT
ATOM      1  C   UNK A   0       3.245   5.904  18.912  0.00  0.00    +0.000 A 
ATOM      2  C   UNK A   0       4.193   5.704  17.857  0.00  0.00    +0.000 A 
ATOM      3  C   UNK A   0       5.120   6.658  17.360  0.00  0.00    +0.000 A 
ATOM      4  C   UNK A   0       5.783   6.487  16.148  0.00  0.00    +0.000 A 
ATOM      5  C   UNK A   0       5.638   5.294  15.468  0.00  0.00    +0.000 A 
ATOM      6  C   UNK A   0       4.910   4.261  16.058  0.00  0.00    +0.000 A 
ATOM      7  C   UNK A   0       4.215   4.438  17.246  0.00  0.00    +0.000 A 
ATOM      8  N   UNK A   0       3.589   3.371  17.749  0.00  0.00    +0.000 NA
ATOM      9  C   UNK A   0       2.864   3.499  18.860  0.00  0.00    +0.000 A 
ATOM     10  C   UNK A   0       2.341   2.325  19.390  0.00  0.00    +0.000 A 
ATOM     11  C   UNK A   0       1.514   2.321  20.510  0.00  0.00    +0.000 A 
ATOM     12  C   UNK A   0       1.202   3.523  21.111  0.00  0.00    +0.000 A 
ATOM     13  C   UNK A   0       1.743   4.717  20.614  0.00  0.00    +0.000 A 
ATOM     14  C   UNK A   0       2.609   4.741  19.482  0.00  0.00    +0.000 A 
ENDROOT
BRANCH   1  15
ATOM     15  N   LEU A   1       2.965   7.198  19.453  0.00  0.00    +0.000 N 
ATOM     16  H   LEU A   1       2.879   7.152  20.467  0.00  0.00    +0.000 HD
BRANCH  15  17
ATOM     17  CA  LEU A   1       1.856   8.033  18.900  0.00  0.00    +0.000 C 
BRANCH  17  18
ATOM     18  CB  LEU A   1       1.295   9.026  19.934  0.00  0.00    +0.000 C 
BRANCH  18  20
ATOM     19  CD1 LEU A   1       1.572   9.222  22.494  0.00  0.00    +0.000 C 
ATOM     20  CG  LEU A   1       1.013   8.399  21.327  0.00  0.00    +0.000 C 
ATOM     21  CD2 LEU A   1      -0.494   8.217  21.528  0.00  0.00    +0.000 C 
ENDBRANCH  18  20
ENDBRANCH  17  18
BRANCH  17  22
ATOM     22  C   LEU A   1       2.366   8.726  17.616  0.00  0.00    +0.000 C 
BRANCH  22  23
ATOM     23  O   LEU A   1       1.769  10.018  17.479  0.00  0.00    +0.000 OA
ATOM     24  H   LEU A   1       0.896   9.854  17.069  0.00  0.00    +0.000 HD
ENDBRANCH  22  23
ENDBRANCH  17  22
ENDBRANCH  15  17
ENDBRANCH   1  15
TORSDOF 6
ENDMDL
MODEL 9
REMARK VINA RESULT:      -7.0      2.584      6.137
REMARK  Name = 
REMARK  8 active torsions:
REMARK  status: ('A' for Active; 'I' for Inactive)
REMARK    1  A    between atoms: CD1_1  and  CG_2
REMARK    2  A    between atoms: CG_2  and  CD2_3
REMARK    3  A    between atoms: CG_2  and  CB_4
REMARK    4  A    between atoms: CB_4  and  CA_5
REMARK    5  A    between atoms: CA_5  and  C_6
REMARK    6  A    between atoms: CA_5  and  N_8
REMARK    7  A    between atoms: C_6  and  O_7
REMARK    8  A    between atoms: N_8  and  C_9
REMARK                            x       y       z     vdW  Elec       q    Type
REMARK                         _______ _______ _______ _____ _____    ______ ____
ROOT
ATOM      1  C   UNK A   0       5.217   4.209  16.084  0.00  0.00    +0.000 A 
ATOM      2  C   UNK A   0       6.044   4.786  17.103  0.00  0.00    +0.000 A 
ATOM      3  C   UNK A   0       5.871   4.655  18.507  0.00  0.00    +0.000 A 
ATOM      4  C   UNK A   0       6.523   5.485  19.414  0.00  0.00    +0.000 A 
ATOM      5  C   UNK A   0       7.468   6.378  18.947  0.00  0.00    +0.000 A 
ATOM      6  C   UNK A   0       7.809   6.358  17.595  0.00  0.00    +0.000 A 
ATOM      7  C   UNK A   0       7.137   5.562  16.679  0.00  0.00    +0.000 A 
ATOM      8  N   UNK A   0       7.574   5.583  15.418  0.00  0.00    +0.000 NA
ATOM      9  C   UNK A   0       6.932   4.876  14.488  0.00  0.00    +0.000 A 
ATOM     10  C   UNK A   0       7.513   4.850  13.226  0.00  0.00    +0.000 A 
ATOM     11  C   UNK A   0       6.915   4.205  12.147  0.00  0.00    +0.000 A 
ATOM     12  C   UNK A   0       5.705   3.572  12.338  0.00  0.00    +0.000 A 
ATOM     13  C   UNK A   0       5.114   3.557  13.609  0.00  0.00    +0.000 A 
ATOM     14  C   UNK A   0       5.720   4.194  14.732  0.00  0.00    +0.000 A 
ENDROOT
BRANCH   1  15
ATOM     15  N   LEU A   1       3.957   3.598  16.377  0.00  0.00    +0.000 N 
ATOM     16  H   LEU A   1       3.202   4.088  15.899  0.00  0.00    +0.000 HD
BRANCH  15  17
ATOM     17  CA  LEU A   1       3.553   3.322  17.788  0.00  0.00    +0.000 C 
BRANCH  17  18
ATOM     18  CB  LEU A   1       2.277   4.083  18.194  0.00  0.00    +0.000 C 
BRANCH  18  20
ATOM     19  CD1 LEU A   1       2.452   6.264  19.565  0.00  0.00    +0.000 C 
ATOM     20  CG  LEU A   1       2.348   4.734  19.603  0.00  0.00    +0.000 C 
ATOM     21  CD2 LEU A   1       1.119   4.343  20.427  0.00  0.00    +0.000 C 
ENDBRANCH  18  20
ENDBRANCH  17  18
BRANCH  17  22
ATOM     22  C   LEU A   1       3.423   1.793  17.965  0.00  0.00    +0.000 C 
BRANCH  22  23
ATOM     23  O   LEU A   1       2.154   1.464  18.535  0.00  0.00    +0.000 OA
ATOM     24  H   LEU A   1       1.965   2.184  19.170  0.00  0.00    +0.000 HD
ENDBRANCH  22  23
ENDBRANCH  17  22
ENDBRANCH  15  17
ENDBRANCH   1  15
TORSDOF 6
ENDMDL
