MODEL 1
REMARK VINA RESULT:      -8.1      0.000      0.000
REMARK  Name = 
REMARK  5 active torsions:
REMARK  status: ('A' for Active; 'I' for Inactive)
REMARK    1  A    between atoms: C_1  and  C_2
REMARK    2  A    between atoms: C_2  and  C_3
REMARK    3  A    between atoms: C_2  and  C_4
REMARK    4  A    between atoms: C_7  and  C_9
REMARK    5  A    between atoms: C_19  and  N_20
REMARK                            x       y       z     vdW  Elec       q    Type
REMARK                         _______ _______ _______ _____ _____    ______ ____
ROOT
ATOM      1  C   UNL     1       2.236   5.401  19.634  0.00  0.00    +0.000 C 
ATOM      2  C   UNL     1       3.728   5.130  19.854  0.00  0.00    +0.000 C 
ATOM      3  N   UNL     1       4.341   5.357  18.559  0.00  0.00    +0.000 N 
ATOM      4  C   UNL     1       5.347   4.515  18.104  0.00  0.00    +0.000 C 
ATOM      5  O   UNL     1       5.765   3.572  18.773  0.00  0.00    +0.000 OA
ATOM      6  C   UNL     1       3.560   6.328  17.797  0.00  0.00    +0.000 C 
ATOM      7  C   UNL     1       2.240   6.528  18.577  0.00  0.00    +0.000 C 
ENDROOT
BRANCH   4   8
ATOM      8  C   UNL     1       5.933   4.702  16.751  0.00  0.00    +0.000 A 
ATOM      9  C   UNL     1       7.010   5.551  16.517  0.00  0.00    +0.000 A 
ATOM     10  N   UNL     1       7.599   5.743  15.309  0.00  0.00    +0.000 NA
ATOM     11  C   UNL     1       7.104   4.995  14.312  0.00  0.00    +0.000 A 
ATOM     12  C   UNL     1       6.075   4.077  14.447  0.00  0.00    +0.000 A 
ATOM     13  C   UNL     1       5.465   3.922  15.684  0.00  0.00    +0.000 A 
ATOM     14  C   UNL     1       5.861   3.304  13.190  0.00  0.00    +0.000 C 
ATOM     15  C   UNL     1       6.694   4.095  12.165  0.00  0.00    +0.000 C 
ATOM     16  C   UNL     1       7.691   4.972  12.933  0.00  0.00    +0.000 C 
ENDBRANCH   4   8
BRANCH   1  18
ATOM     17  C   UNL     1       2.031   3.291  18.102  0.00  0.00    +0.000 C 
ATOM     18  C   UNL     1       1.403   4.163  19.193  0.00  0.00    +0.000 C 
ATOM     19  C   UNL     1       1.037   3.285  20.396  0.00  0.00    +0.000 C 
ENDBRANCH   1  18
BRANCH   7  20
ATOM     20  N   UNL     1       2.193   7.858  19.201  0.00  0.00    +0.000 NA
ATOM     21  H   UNL     1       3.137   8.210  19.362  0.00  0.00    +0.000 HD
ATOM     22  H   UNL     1       1.754   7.790  20.120  0.00  0.00    +0.000 HD
ENDBRANCH   7  20
TORSDOF 3
ENDMDL
MODEL 2
REMARK VINA RESULT:      -7.6      1.039      1.113
REMARK  Name = 
REMARK  5 active torsions:
REMARK  status: ('A' for Active; 'I' for Inactive)
REMARK    1  A    between atoms: C_1  and  C_2
REMARK    2  A    between atoms: C_2  and  C_3
REMARK    3  A    between atoms: C_2  and  C_4
REMARK    4  A    between atoms: C_7  and  C_9
REMARK    5  A    between atoms: C_19  and  N_20
REMARK                            x       y       z     vdW  Elec       q    Type
REMARK                         _______ _______ _______ _____ _____    ______ ____
ROOT
ATOM      1  C   UNL     1       1.896   4.972  20.570  0.00  0.00    +0.000 C 
ATOM      2  C   UNL     1       3.341   4.516  20.795  0.00  0.00    +0.000 C 
ATOM      3  N   UNL     1       4.035   4.864  19.570  0.00  0.00    +0.000 N 
ATOM      4  C   UNL     1       4.972   3.996  19.026  0.00  0.00    +0.000 C 
ATOM      5  O   UNL     1       5.261   2.925  19.559  0.00  0.00    +0.000 OA
ATOM      6  C   UNL     1       3.392   6.013  18.938  0.00  0.00    +0.000 C 
ATOM      7  C   UNL     1       2.063   6.236  19.696  0.00  0.00    +0.000 C 
ENDROOT
BRANCH   4   8
ATOM      8  C   UNL     1       5.638   4.315  17.737  0.00  0.00    +0.000 A 
ATOM      9  C   UNL     1       6.861   4.975  17.674  0.00  0.00    +0.000 A 
ATOM     10  N   UNL     1       7.525   5.272  16.527  0.00  0.00    +0.000 NA
ATOM     11  C   UNL     1       6.943   4.827  15.404  0.00  0.00    +0.000 A 
ATOM     12  C   UNL     1       5.758   4.111  15.357  0.00  0.00    +0.000 A 
ATOM     13  C   UNL     1       5.079   3.848  16.539  0.00  0.00    +0.000 A 
ATOM     14  C   UNL     1       5.458   3.638  13.975  0.00  0.00    +0.000 C 
ATOM     15  C   UNL     1       6.464   4.433  13.123  0.00  0.00    +0.000 C 
ATOM     16  C   UNL     1       7.572   4.950  14.049  0.00  0.00    +0.000 C 
ENDBRANCH   4   8
BRANCH   1  18
ATOM     17  C   UNL     1       1.053   3.787  18.397  0.00  0.00    +0.000 C 
ATOM     18  C   UNL     1       0.965   3.908  19.921  0.00  0.00    +0.000 C 
ATOM     19  C   UNL     1       1.178   2.527  20.553  0.00  0.00    +0.000 C 
ENDBRANCH   1  18
BRANCH   7  20
ATOM     20  N   UNL     1       2.120   7.457  20.511  0.00  0.00    +0.000 NA
ATOM     21  H   UNL     1       3.024   7.535  20.975  0.00  0.00    +0.000 HD
ATOM     22  H   UNL     1       1.422   7.406  21.254  0.00  0.00    +0.000 HD
ENDBRANCH   7  20
TORSDOF 3
ENDMDL
MODEL 3
REMARK VINA RESULT:      -7.3      3.833      6.668
REMARK  Name = 
REMARK  5 active torsions:
REMARK  status: ('A' for Active; 'I' for Inactive)
REMARK    1  A    between atoms: C_1  and  C_2
REMARK    2  A    between atoms: C_2  and  C_3
REMARK    3  A    between atoms: C_2  and  C_4
REMARK    4  A    between atoms: C_7  and  C_9
REMARK    5  A    between atoms: C_19  and  N_20
REMARK                            x       y       z     vdW  Elec       q    Type
REMARK                         _______ _______ _______ _____ _____    ______ ____
ROOT
ATOM      1  C   UNL     1       2.856   2.775  19.862  0.00  0.00    +0.000 C 
ATOM      2  C   UNL     1       3.855   3.914  19.632  0.00  0.00    +0.000 C 
ATOM      3  N   UNL     1       3.077   5.127  19.790  0.00  0.00    +0.000 N 
ATOM      4  C   UNL     1       3.282   6.205  18.939  0.00  0.00    +0.000 C 
ATOM      5  O   UNL     1       4.129   6.184  18.046  0.00  0.00    +0.000 OA
ATOM      6  C   UNL     1       1.957   4.892  20.697  0.00  0.00    +0.000 C 
ATOM      7  C   UNL     1       1.897   3.364  20.922  0.00  0.00    +0.000 C 
ENDROOT
BRANCH   4   8
ATOM      8  C   UNL     1       2.444   7.427  19.051  0.00  0.00    +0.000 A 
ATOM      9  C   UNL     1       2.107   8.203  17.947  0.00  0.00    +0.000 A 
ATOM     10  N   UNL     1       1.327   9.314  17.988  0.00  0.00    +0.000 NA
ATOM     11  C   UNL     1       0.826   9.611  19.195  0.00  0.00    +0.000 A 
ATOM     12  C   UNL     1       1.049   8.874  20.348  0.00  0.00    +0.000 A 
ATOM     13  C   UNL     1       1.877   7.761  20.289  0.00  0.00    +0.000 A 
ATOM     14  C   UNL     1       0.234   9.380  21.489  0.00  0.00    +0.000 C 
ATOM     15  C   UNL     1      -0.285  10.729  20.957  0.00  0.00    +0.000 C 
ATOM     16  C   UNL     1      -0.148  10.726  19.430  0.00  0.00    +0.000 C 
ENDBRANCH   4   8
BRANCH   1  18
ATOM     17  C   UNL     1       0.588   2.390  18.618  0.00  0.00    +0.000 C 
ATOM     18  C   UNL     1       2.115   2.284  18.585  0.00  0.00    +0.000 C 
ATOM     19  C   UNL     1       2.646   2.991  17.331  0.00  0.00    +0.000 C 
ENDBRANCH   1  18
BRANCH   7  20
ATOM     20  N   UNL     1       2.316   3.015  22.287  0.00  0.00    +0.000 NA
ATOM     21  H   UNL     1       1.555   2.558  22.788  0.00  0.00    +0.000 HD
ATOM     22  H   UNL     1       2.529   3.866  22.808  0.00  0.00    +0.000 HD
ENDBRANCH   7  20
TORSDOF 3
ENDMDL
MODEL 4
REMARK VINA RESULT:      -7.0      1.171      1.267
REMARK  Name = 
REMARK  5 active torsions:
REMARK  status: ('A' for Active; 'I' for Inactive)
REMARK    1  A    between atoms: C_1  and  C_2
REMARK    2  A    between atoms: C_2  and  C_3
REMARK    3  A    between atoms: C_2  and  C_4
REMARK    4  A    between atoms: C_7  and  C_9
REMARK    5  A    between atoms: C_19  and  N_20
REMARK                            x       y       z     vdW  Elec       q    Type
REMARK                         _______ _______ _______ _____ _____    ______ ____
ROOT
ATOM      1  C   UNL     1       3.085   4.404  19.688  0.00  0.00    +0.000 C 
ATOM      2  C   UNL     1       4.538   4.887  19.666  0.00  0.00    +0.000 C 
ATOM      3  N   UNL     1       4.866   5.016  18.259  0.00  0.00    +0.000 N 
ATOM      4  C   UNL     1       6.111   4.618  17.791  0.00  0.00    +0.000 C 
ATOM      5  O   UNL     1       6.978   4.167  18.538  0.00  0.00    +0.000 OA
ATOM      6  C   UNL     1       3.660   5.307  17.487  0.00  0.00    +0.000 C 
ATOM      7  C   UNL     1       2.470   5.099  18.451  0.00  0.00    +0.000 C 
ENDROOT
BRANCH   4   8
ATOM      8  C   UNL     1       6.430   4.685  16.342  0.00  0.00    +0.000 A 
ATOM      9  C   UNL     1       7.463   5.473  15.842  0.00  0.00    +0.000 A 
ATOM     10  N   UNL     1       7.812   5.555  14.532  0.00  0.00    +0.000 NA
ATOM     11  C   UNL     1       7.116   4.759  13.709  0.00  0.00    +0.000 A 
ATOM     12  C   UNL     1       6.108   3.894  14.107  0.00  0.00    +0.000 A 
ATOM     13  C   UNL     1       5.745   3.852  15.447  0.00  0.00    +0.000 A 
ATOM     14  C   UNL     1       5.637   3.044  12.978  0.00  0.00    +0.000 C 
ATOM     15  C   UNL     1       6.276   3.726  11.755  0.00  0.00    +0.000 C 
ATOM     16  C   UNL     1       7.424   4.615  12.249  0.00  0.00    +0.000 C 
ENDBRANCH   4   8
BRANCH   1  18
ATOM     17  C   UNL     1       2.278   2.282  18.390  0.00  0.00    +0.000 C 
ATOM     18  C   UNL     1       2.906   2.859  19.661  0.00  0.00    +0.000 C 
ATOM     19  C   UNL     1       4.235   2.143  19.940  0.00  0.00    +0.000 C 
ENDBRANCH   1  18
BRANCH   7  20
ATOM     20  N   UNL     1       1.847   6.383  18.804  0.00  0.00    +0.000 NA
ATOM     21  H   UNL     1       1.626   6.915  17.963  0.00  0.00    +0.000 HD
ATOM     22  H   UNL     1       2.508   6.950  19.335  0.00  0.00    +0.000 HD
ENDBRANCH   7  20
TORSDOF 3
ENDMDL
MODEL 5
REMARK VINA RESULT:      -6.9      3.873      6.723
REMARK  Name = 
REMARK  5 active torsions:
REMARK  status: ('A' for Active; 'I' for Inactive)
REMARK    1  A    between atoms: C_1  and  C_2
REMARK    2  A    between atoms: C_2  and  C_3
REMARK    3  A    between atoms: C_2  and  C_4
REMARK    4  A    between atoms: C_7  and  C_9
REMARK    5  A    between atoms: C_19  and  N_20
REMARK                            x       y       z     vdW  Elec       q    Type
REMARK                         _______ _______ _______ _____ _____    ______ ____
ROOT
ATOM      1  C   UNL     1       2.967   2.649  19.719  0.00  0.00    +0.000 C 
ATOM      2  C   UNL     1       3.883   3.872  19.597  0.00  0.00    +0.000 C 
ATOM      3  N   UNL     1       3.050   4.999  19.969  0.00  0.00    +0.000 N 
ATOM      4  C   UNL     1       3.139   6.195  19.269  0.00  0.00    +0.000 C 
ATOM      5  O   UNL     1       3.926   6.352  18.337  0.00  0.00    +0.000 OA
ATOM      6  C   UNL     1       2.006   4.568  20.895  0.00  0.00    +0.000 C 
ATOM      7  C   UNL     1       2.047   3.023  20.904  0.00  0.00    +0.000 C 
ENDROOT
BRANCH   4   8
ATOM      8  C   UNL     1       2.241   7.332  19.600  0.00  0.00    +0.000 A 
ATOM      9  C   UNL     1       1.700   7.508  20.870  0.00  0.00    +0.000 A 
ATOM     10  N   UNL     1       0.895   8.538  21.234  0.00  0.00    +0.000 NA
ATOM     11  C   UNL     1       0.679   9.454  20.280  0.00  0.00    +0.000 A 
ATOM     12  C   UNL     1       1.215   9.408  19.002  0.00  0.00    +0.000 A 
ATOM     13  C   UNL     1       2.009   8.327  18.641  0.00  0.00    +0.000 A 
ATOM     14  C   UNL     1       0.906  10.646  18.233  0.00  0.00    +0.000 C 
ATOM     15  C   UNL     1      -0.162  11.327  19.107  0.00  0.00    +0.000 C 
ATOM     16  C   UNL     1      -0.084  10.723  20.515  0.00  0.00    +0.000 C 
ENDBRANCH   4   8
BRANCH   1  18
ATOM     17  C   UNL     1       0.649   2.309  18.558  0.00  0.00    +0.000 C 
ATOM     18  C   UNL     1       2.175   2.292  18.429  0.00  0.00    +0.000 C 
ATOM     19  C   UNL     1       2.594   3.188  17.256  0.00  0.00    +0.000 C 
ENDBRANCH   1  18
BRANCH   7  20
ATOM     20  N   UNL     1       2.572   2.517  22.180  0.00  0.00    +0.000 NA
ATOM     21  H   UNL     1       2.498   1.501  22.218  0.00  0.00    +0.000 HD
ATOM     22  H   UNL     1       2.006   2.873  22.949  0.00  0.00    +0.000 HD
ENDBRANCH   7  20
TORSDOF 3
ENDMDL
MODEL 6
REMARK VINA RESULT:      -6.9      1.830      6.675
REMARK  Name = 
REMARK  5 active torsions:
REMARK  status: ('A' for Active; 'I' for Inactive)
REMARK    1  A    between atoms: C_1  and  C_2
REMARK    2  A    between atoms: C_2  and  C_3
REMARK    3  A    between atoms: C_2  and  C_4
REMARK    4  A    between atoms: C_7  and  C_9
REMARK    5  A    between atoms: C_19  and  N_20
REMARK                            x       y       z     vdW  Elec       q    Type
REMARK                         _______ _______ _______ _____ _____    ______ ____
ROOT
ATOM      1  C   UNL     1       7.285   5.498  16.002  0.00  0.00    +0.000 C 
ATOM      2  C   UNL     1       6.478   6.496  16.838  0.00  0.00    +0.000 C 
ATOM      3  N   UNL     1       5.513   5.685  17.555  0.00  0.00    +0.000 N 
ATOM      4  C   UNL     1       4.207   6.128  17.713  0.00  0.00    +0.000 C 
ATOM      5  O   UNL     1       3.826   7.214  17.277  0.00  0.00    +0.000 OA
ATOM      6  C   UNL     1       6.043   4.340  17.764  0.00  0.00    +0.000 C 
ATOM      7  C   UNL     1       7.323   4.241  16.902  0.00  0.00    +0.000 C 
ENDROOT
BRANCH   4   8
ATOM      8  C   UNL     1       3.196   5.274  18.388  0.00  0.00    +0.000 A 
ATOM      9  C   UNL     1       2.112   4.725  17.709  0.00  0.00    +0.000 A 
ATOM     10  N   UNL     1       1.173   3.920  18.270  0.00  0.00    +0.000 NA
ATOM     11  C   UNL     1       1.379   3.621  19.560  0.00  0.00    +0.000 A 
ATOM     12  C   UNL     1       2.454   4.065  20.314  0.00  0.00    +0.000 A 
ATOM     13  C   UNL     1       3.384   4.913  19.729  0.00  0.00    +0.000 A 
ATOM     14  C   UNL     1       2.473   3.436  21.665  0.00  0.00    +0.000 C 
ATOM     15  C   UNL     1       1.082   2.782  21.750  0.00  0.00    +0.000 C 
ATOM     16  C   UNL     1       0.524   2.658  20.327  0.00  0.00    +0.000 C 
ENDBRANCH   4   8
BRANCH   1  18
ATOM     17  C   UNL     1       7.704   5.289  13.429  0.00  0.00    +0.000 C 
ATOM     18  C   UNL     1       6.706   5.208  14.587  0.00  0.00    +0.000 C 
ATOM     19  C   UNL     1       5.992   3.850  14.548  0.00  0.00    +0.000 C 
ENDBRANCH   1  18
BRANCH   7  20
ATOM     20  N   UNL     1       8.526   4.214  17.746  0.00  0.00    +0.000 NA
ATOM     21  H   UNL     1       8.425   4.854  18.532  0.00  0.00    +0.000 HD
ATOM     22  H   UNL     1       9.328   4.545  17.209  0.00  0.00    +0.000 HD
ENDBRANCH   7  20
TORSDOF 3
ENDMDL
MODEL 7
REMARK VINA RESULT:      -6.9      4.025      7.032
REMARK  Name = 
REMARK  5 active torsions:
REMARK  status: ('A' for Active; 'I' for Inactive)
REMARK    1  A    between atoms: C_1  and  C_2
REMARK    2  A    between atoms: C_2  and  C_3
REMARK    3  A    between atoms: C_2  and  C_4
REMARK    4  A    between atoms: C_7  and  C_9
REMARK    5  A    between atoms: C_19  and  N_20
REMARK                            x       y       z     vdW  Elec       q    Type
REMARK                         _______ _______ _______ _____ _____    ______ ____
ROOT
ATOM      1  C   UNL     1       2.741   3.329  19.726  0.00  0.00    +0.000 C 
ATOM      2  C   UNL     1       3.672   4.535  19.567  0.00  0.00    +0.000 C 
ATOM      3  N   UNL     1       2.824   5.690  19.790  0.00  0.00    +0.000 N 
ATOM      4  C   UNL     1       2.968   6.826  19.004  0.00  0.00    +0.000 C 
ATOM      5  O   UNL     1       3.816   6.905  18.116  0.00  0.00    +0.000 OA
ATOM      6  C   UNL     1       1.718   5.338  20.676  0.00  0.00    +0.000 C 
ATOM      7  C   UNL     1       1.746   3.798  20.812  0.00  0.00    +0.000 C 
ENDROOT
BRANCH   4   8
ATOM      8  C   UNL     1       2.059   7.988  19.182  0.00  0.00    +0.000 A 
ATOM      9  C   UNL     1       1.591   8.738  18.108  0.00  0.00    +0.000 A 
ATOM     10  N   UNL     1       0.743   9.794  18.210  0.00  0.00    +0.000 NA
ATOM     11  C   UNL     1       0.313  10.058  19.452  0.00  0.00    +0.000 A 
ATOM     12  C   UNL     1       0.669   9.339  20.583  0.00  0.00    +0.000 A 
ATOM     13  C   UNL     1       1.564   8.285  20.459  0.00  0.00    +0.000 A 
ATOM     14  C   UNL     1      -0.092   9.790  21.782  0.00  0.00    +0.000 C 
ATOM     15  C   UNL     1      -0.739  11.100  21.295  0.00  0.00    +0.000 C 
ATOM     16  C   UNL     1      -0.715  11.104  19.761  0.00  0.00    +0.000 C 
ENDBRANCH   4   8
BRANCH   1  18
ATOM     17  C   UNL     1       2.839   1.931  17.518  0.00  0.00    +0.000 C 
ATOM     18  C   UNL     1       2.033   2.870  18.419  0.00  0.00    +0.000 C 
ATOM     19  C   UNL     1       0.669   2.235  18.721  0.00  0.00    +0.000 C 
ENDBRANCH   1  18
BRANCH   7  20
ATOM     20  N   UNL     1       2.182   3.396  22.157  0.00  0.00    +0.000 NA
ATOM     21  H   UNL     1       2.476   4.211  22.695  0.00  0.00    +0.000 HD
ATOM     22  H   UNL     1       3.000   2.791  22.086  0.00  0.00    +0.000 HD
ENDBRANCH   7  20
TORSDOF 3
ENDMDL
MODEL 8
REMARK VINA RESULT:      -6.7      4.131      7.381
REMARK  Name = 
REMARK  5 active torsions:
REMARK  status: ('A' for Active; 'I' for Inactive)
REMARK    1  A    between atoms: C_1  and  C_2
REMARK    2  A    between atoms: C_2  and  C_3
REMARK    3  A    between atoms: C_2  and  C_4
REMARK    4  A    between atoms: C_7  and  C_9
REMARK    5  A    between atoms: C_19  and  N_20
REMARK                            x       y       z     vdW  Elec       q    Type
REMARK                         _______ _______ _______ _____ _____    ______ ____
ROOT
ATOM      1  C   UNL     1       2.642   3.253  19.718  0.00  0.00    +0.000 C 
ATOM      2  C   UNL     1       3.567   4.472  19.628  0.00  0.00    +0.000 C 
ATOM      3  N   UNL     1       2.747   5.592  20.044  0.00  0.00    +0.000 N 
ATOM      4  C   UNL     1       2.838   6.810  19.384  0.00  0.00    +0.000 C 
ATOM      5  O   UNL     1       3.618   6.992  18.449  0.00  0.00    +0.000 OA
ATOM      6  C   UNL     1       1.708   5.139  20.966  0.00  0.00    +0.000 C 
ATOM      7  C   UNL     1       1.736   3.594  20.923  0.00  0.00    +0.000 C 
ENDROOT
BRANCH   4   8
ATOM      8  C   UNL     1       1.954   7.943  19.761  0.00  0.00    +0.000 A 
ATOM      9  C   UNL     1       1.467   8.851  18.826  0.00  0.00    +0.000 A 
ATOM     10  N   UNL     1       0.639   9.889  19.111  0.00  0.00    +0.000 NA
ATOM     11  C   UNL     1       0.249   9.969  20.391  0.00  0.00    +0.000 A 
ATOM     12  C   UNL     1       0.626   9.085  21.390  0.00  0.00    +0.000 A 
ATOM     13  C   UNL     1       1.500   8.051  21.083  0.00  0.00    +0.000 A 
ATOM     14  C   UNL     1      -0.094   9.360  22.666  0.00  0.00    +0.000 C 
ATOM     15  C   UNL     1      -0.734  10.735  22.400  0.00  0.00    +0.000 C 
ATOM     16  C   UNL     1      -0.753  10.969  20.884  0.00  0.00    +0.000 C 
ENDBRANCH   4   8
BRANCH   1  18
ATOM     17  C   UNL     1       1.361   4.165  17.628  0.00  0.00    +0.000 C 
ATOM     18  C   UNL     1       1.834   2.946  18.424  0.00  0.00    +0.000 C 
ATOM     19  C   UNL     1       2.614   2.005  17.496  0.00  0.00    +0.000 C 
ENDBRANCH   1  18
BRANCH   7  20
ATOM     20  N   UNL     1       2.269   3.042  22.177  0.00  0.00    +0.000 NA
ATOM     21  H   UNL     1       1.962   3.601  22.972  0.00  0.00    +0.000 HD
ATOM     22  H   UNL     1       3.288   3.095  22.168  0.00  0.00    +0.000 HD
ENDBRANCH   7  20
TORSDOF 3
ENDMDL
MODEL 9
REMARK VINA RESULT:      -6.6      2.595      6.907
REMARK  Name = 
REMARK  5 active torsions:
REMARK  status: ('A' for Active; 'I' for Inactive)
REMARK    1  A    between atoms: C_1  and  C_2
REMARK    2  A    between atoms: C_2  and  C_3
REMARK    3  A    between atoms: C_2  and  C_4
REMARK    4  A    between atoms: C_7  and  C_9
REMARK    5  A    between atoms: C_19  and  N_20
REMARK                            x       y       z     vdW  Elec       q    Type
REMARK                         _______ _______ _______ _____ _____    ______ ____
ROOT
ATOM      1  C   UNL     1       6.409   5.007  17.194  0.00  0.00    +0.000 C 
ATOM      2  C   UNL     1       5.124   4.601  17.923  0.00  0.00    +0.000 C 
ATOM      3  N   UNL     1       4.266   5.767  17.841  0.00  0.00    +0.000 N 
ATOM      4  C   UNL     1       3.498   6.149  18.933  0.00  0.00    +0.000 C 
ATOM      5  O   UNL     1       3.497   5.515  19.987  0.00  0.00    +0.000 OA
ATOM      6  C   UNL     1       4.584   6.542  16.644  0.00  0.00    +0.000 C 
ATOM      7  C   UNL     1       5.893   5.945  16.079  0.00  0.00    +0.000 C 
ENDROOT
BRANCH   4   8
ATOM      8  C   UNL     1       2.668   7.380  18.879  0.00  0.00    +0.000 A 
ATOM      9  C   UNL     1       2.513   8.123  17.714  0.00  0.00    +0.000 A 
ATOM     10  N   UNL     1       1.750   9.241  17.602  0.00  0.00    +0.000 NA
ATOM     11  C   UNL     1       1.075   9.580  18.709  0.00  0.00    +0.000 A 
ATOM     12  C   UNL     1       1.111   8.879  19.904  0.00  0.00    +0.000 A 
ATOM     13  C   UNL     1       1.923   7.758  20.006  0.00  0.00    +0.000 A 
ATOM     14  C   UNL     1       0.138   9.427  20.891  0.00  0.00    +0.000 C 
ATOM     15  C   UNL     1      -0.277  10.763  20.246  0.00  0.00    +0.000 C 
ATOM     16  C   UNL     1       0.091  10.710  18.758  0.00  0.00    +0.000 C 
ENDBRANCH   4   8
BRANCH   1  18
ATOM     17  C   UNL     1       7.737   7.165  17.841  0.00  0.00    +0.000 C 
ATOM     18  C   UNL     1       7.489   5.675  18.092  0.00  0.00    +0.000 C 
ATOM     19  C   UNL     1       7.185   5.456  19.580  0.00  0.00    +0.000 C 
ENDBRANCH   1  18
BRANCH   7  20
ATOM     20  N   UNL     1       5.642   5.215  14.828  0.00  0.00    +0.000 NA
ATOM     21  H   UNL     1       6.384   5.398  14.153  0.00  0.00    +0.000 HD
ATOM     22  H   UNL     1       4.780   5.553  14.401  0.00  0.00    +0.000 HD
ENDBRANCH   7  20
TORSDOF 3
ENDMDL
