MODEL 1
REMARK VINA RESULT:      -8.7      0.000      0.000
REMARK  Name = 
REMARK  3 active torsions:
REMARK  status: ('A' for Active; 'I' for Inactive)
REMARK    1  A    between atoms: C_2  and  C_16
REMARK    2  A    between atoms: N_3  and  C_4
REMARK    3  A    between atoms: C_16  and  C_17
REMARK                            x       y       z     vdW  Elec       q    Type
REMARK                         _______ _______ _______ _____ _____    ______ ____
ROOT
ATOM      1  O   UNL     1       1.551   5.244  17.831  0.00  0.00    +0.000 OA
ATOM      2  C   UNL     1       2.563   5.144  18.528  0.00  0.00    +0.000 C 
ATOM      3  N   UNL     1       2.973   6.146  19.394  0.00  0.00    +0.000 N 
ATOM      4  H   UNL     1       3.973   6.256  19.510  0.00  0.00    +0.000 HD
ENDROOT
BRANCH   3   5
ATOM      5  C   UNL     1       2.200   7.307  19.652  0.00  0.00    +0.000 A 
ATOM      6  C   UNL     1       1.505   7.471  20.861  0.00  0.00    +0.000 A 
ATOM      7  C   UNL     1       0.765   8.632  21.100  0.00  0.00    +0.000 A 
ATOM      8  C   UNL     1       0.093   8.865  22.386  0.00  0.00    +0.000 A 
ATOM      9  C   UNL     1      -0.595   9.995  22.571  0.00  0.00    +0.000 A 
ATOM     10  N   UNL     1      -0.711  10.935  21.586  0.00  0.00    +0.000 N 
ATOM     11  C   UNL     1      -0.133  10.827  20.336  0.00  0.00    +0.000 A 
ATOM     12  O   UNL     1      -0.282  11.687  19.477  0.00  0.00    +0.000 OA
ATOM     13  C   UNL     1       0.685   9.613  20.098  0.00  0.00    +0.000 A 
ATOM     14  C   UNL     1       1.378   9.464  18.893  0.00  0.00    +0.000 A 
ATOM     15  C   UNL     1       2.158   8.329  18.689  0.00  0.00    +0.000 A 
ATOM     16 CL   UNL     1       3.029   8.176  17.201  0.00  0.00    +0.000 Cl
ATOM     17  H   UNL     1      -1.254  11.776  21.742  0.00  0.00    +0.000 HD
ENDBRANCH   3   5
BRANCH   2  18
ATOM     18  C   UNL     1       3.495   3.899  18.454  0.00  0.00    +0.000 C 
ATOM     19  C   UNL     1       2.691   2.715  17.859  0.00  0.00    +0.000 C 
ATOM     20  C   UNL     1       1.983   2.117  19.055  0.00  0.00    +0.000 C 
ATOM     21  N   UNL     1       3.015   2.119  20.093  0.00  0.00    +0.000 NA
ATOM     22  C   UNL     1       3.773   3.372  19.892  0.00  0.00    +0.000 C 
ATOM     23  H   UNL     1       3.645   1.333  19.918  0.00  0.00    +0.000 HD
BRANCH  18  24
ATOM     24  C   UNL     1       4.758   4.204  17.628  0.00  0.00    +0.000 A 
ATOM     25  C   UNL     1       5.988   4.509  18.240  0.00  0.00    +0.000 A 
ATOM     26  C   UNL     1       7.141   4.735  17.479  0.00  0.00    +0.000 A 
ATOM     27  C   UNL     1       7.092   4.661  16.090  0.00  0.00    +0.000 A 
ATOM     28  C   UNL     1       5.884   4.387  15.461  0.00  0.00    +0.000 A 
ATOM     29  C   UNL     1       4.728   4.178  16.220  0.00  0.00    +0.000 A 
ENDBRANCH  18  24
ENDBRANCH   2  18
TORSDOF 3
ENDMDL
MODEL 2
REMARK VINA RESULT:      -8.6      1.627      2.236
REMARK  Name = 
REMARK  3 active torsions:
REMARK  status: ('A' for Active; 'I' for Inactive)
REMARK    1  A    between atoms: C_2  and  C_16
REMARK    2  A    between atoms: N_3  and  C_4
REMARK    3  A    between atoms: C_16  and  C_17
REMARK                            x       y       z     vdW  Elec       q    Type
REMARK                         _______ _______ _______ _____ _____    ______ ____
ROOT
ATOM      1  O   UNL     1       2.071   4.637  17.617  0.00  0.00    +0.000 OA
ATOM      2  C   UNL     1       3.206   4.733  18.085  0.00  0.00    +0.000 C 
ATOM      3  N   UNL     1       3.604   5.814  18.856  0.00  0.00    +0.000 N 
ATOM      4  H   UNL     1       4.572   6.100  18.761  0.00  0.00    +0.000 HD
ENDROOT
BRANCH   3   5
ATOM      5  C   UNL     1       2.711   6.829  19.283  0.00  0.00    +0.000 A 
ATOM      6  C   UNL     1       2.547   8.017  18.552  0.00  0.00    +0.000 A 
ATOM      7  C   UNL     1       1.647   8.994  18.983  0.00  0.00    +0.000 A 
ATOM      8  C   UNL     1       1.398  10.211  18.197  0.00  0.00    +0.000 A 
ATOM      9  C   UNL     1       0.520  11.113  18.645  0.00  0.00    +0.000 A 
ATOM     10  N   UNL     1      -0.139  10.947  19.831  0.00  0.00    +0.000 N 
ATOM     11  C   UNL     1       0.016   9.854  20.660  0.00  0.00    +0.000 A 
ATOM     12  O   UNL     1      -0.581   9.758  21.725  0.00  0.00    +0.000 OA
ATOM     13  C   UNL     1       0.942   8.798  20.182  0.00  0.00    +0.000 A 
ATOM     14  C   UNL     1       1.091   7.618  20.915  0.00  0.00    +0.000 A 
ATOM     15  C   UNL     1       1.949   6.625  20.446  0.00  0.00    +0.000 A 
ATOM     16 CL   UNL     1       2.099   5.160  21.355  0.00  0.00    +0.000 Cl
ATOM     17  H   UNL     1      -0.785  11.654  20.160  0.00  0.00    +0.000 HD
ENDBRANCH   3   5
BRANCH   2  18
ATOM     18  C   UNL     1       4.306   3.669  17.804  0.00  0.00    +0.000 C 
ATOM     19  C   UNL     1       3.617   2.310  17.519  0.00  0.00    +0.000 C 
ATOM     20  C   UNL     1       3.394   1.719  18.894  0.00  0.00    +0.000 C 
ATOM     21  N   UNL     1       4.648   2.003  19.591  0.00  0.00    +0.000 NA
ATOM     22  C   UNL     1       5.064   3.343  19.124  0.00  0.00    +0.000 C 
ATOM     23  H   UNL     1       5.347   1.325  19.279  0.00  0.00    +0.000 HD
BRANCH  18  24
ATOM     24  C   UNL     1       5.213   4.105  16.638  0.00  0.00    +0.000 A 
ATOM     25  C   UNL     1       6.518   4.583  16.852  0.00  0.00    +0.000 A 
ATOM     26  C   UNL     1       7.349   4.930  15.780  0.00  0.00    +0.000 A 
ATOM     27  C   UNL     1       6.896   4.807  14.470  0.00  0.00    +0.000 A 
ATOM     28  C   UNL     1       5.601   4.361  14.233  0.00  0.00    +0.000 A 
ATOM     29  C   UNL     1       4.764   4.032  15.304  0.00  0.00    +0.000 A 
ENDBRANCH  18  24
ENDBRANCH   2  18
TORSDOF 3
ENDMDL
MODEL 3
REMARK VINA RESULT:      -8.6      1.054      1.439
REMARK  Name = 
REMARK  3 active torsions:
REMARK  status: ('A' for Active; 'I' for Inactive)
REMARK    1  A    between atoms: C_2  and  C_16
REMARK    2  A    between atoms: N_3  and  C_4
REMARK    3  A    between atoms: C_16  and  C_17
REMARK                            x       y       z     vdW  Elec       q    Type
REMARK                         _______ _______ _______ _____ _____    ______ ____
ROOT
ATOM      1  O   UNL     1       1.388   5.616  18.259  0.00  0.00    +0.000 OA
ATOM      2  C   UNL     1       2.485   5.677  18.818  0.00  0.00    +0.000 C 
ATOM      3  N   UNL     1       2.863   6.757  19.600  0.00  0.00    +0.000 N 
ATOM      4  H   UNL     1       3.846   7.002  19.580  0.00  0.00    +0.000 HD
ENDROOT
BRANCH   3   5
ATOM      5  C   UNL     1       1.980   7.816  19.933  0.00  0.00    +0.000 A 
ATOM      6  C   UNL     1       1.399   7.913  21.208  0.00  0.00    +0.000 A 
ATOM      7  C   UNL     1       0.547   8.975  21.518  0.00  0.00    +0.000 A 
ATOM      8  C   UNL     1      -0.013   9.145  22.867  0.00  0.00    +0.000 A 
ATOM      9  C   UNL     1      -0.816  10.182  23.118  0.00  0.00    +0.000 A 
ATOM     10  N   UNL     1      -1.151  11.084  22.146  0.00  0.00    +0.000 N 
ATOM     11  C   UNL     1      -0.697  11.027  20.843  0.00  0.00    +0.000 A 
ATOM     12  O   UNL     1      -1.042  11.846  20.001  0.00  0.00    +0.000 OA
ATOM     13  C   UNL     1       0.239   9.921  20.525  0.00  0.00    +0.000 A 
ATOM     14  C   UNL     1       0.817   9.840  19.255  0.00  0.00    +0.000 A 
ATOM     15  C   UNL     1       1.709   8.808  18.975  0.00  0.00    +0.000 A 
ATOM     16 CL   UNL     1       2.433   8.740  17.405  0.00  0.00    +0.000 Cl
ATOM     17  H   UNL     1      -1.778  11.852  22.355  0.00  0.00    +0.000 HD
ENDBRANCH   3   5
BRANCH   2  18
ATOM     18  C   UNL     1       3.558   4.563  18.649  0.00  0.00    +0.000 C 
ATOM     19  C   UNL     1       3.102   3.605  17.519  0.00  0.00    +0.000 C 
ATOM     20  C   UNL     1       2.191   2.622  18.221  0.00  0.00    +0.000 C 
ATOM     21  N   UNL     1       2.905   2.329  19.465  0.00  0.00    +0.000 NA
ATOM     22  C   UNL     1       3.517   3.610  19.878  0.00  0.00    +0.000 C 
ATOM     23  H   UNL     1       3.657   1.670  19.253  0.00  0.00    +0.000 HD
BRANCH  18  24
ATOM     24  C   UNL     1       4.943   5.171  18.357  0.00  0.00    +0.000 A 
ATOM     25  C   UNL     1       5.223   5.829  17.145  0.00  0.00    +0.000 A 
ATOM     26  C   UNL     1       6.471   6.421  16.912  0.00  0.00    +0.000 A 
ATOM     27  C   UNL     1       7.466   6.369  17.884  0.00  0.00    +0.000 A 
ATOM     28  C   UNL     1       7.223   5.703  19.079  0.00  0.00    +0.000 A 
ATOM     29  C   UNL     1       5.983   5.097  19.305  0.00  0.00    +0.000 A 
ENDBRANCH  18  24
ENDBRANCH   2  18
TORSDOF 3
ENDMDL
MODEL 4
REMARK VINA RESULT:      -8.4      0.928      1.009
REMARK  Name = 
REMARK  3 active torsions:
REMARK  status: ('A' for Active; 'I' for Inactive)
REMARK    1  A    between atoms: C_2  and  C_16
REMARK    2  A    between atoms: N_3  and  C_4
REMARK    3  A    between atoms: C_16  and  C_17
REMARK                            x       y       z     vdW  Elec       q    Type
REMARK                         _______ _______ _______ _____ _____    ______ ____
ROOT
ATOM      1  O   UNL     1       1.330   5.769  17.908  0.00  0.00    +0.000 OA
ATOM      2  C   UNL     1       2.366   5.661  18.566  0.00  0.00    +0.000 C 
ATOM      3  N   UNL     1       2.762   6.612  19.494  0.00  0.00    +0.000 N 
ATOM      4  H   UNL     1       3.761   6.756  19.590  0.00  0.00    +0.000 HD
ENDROOT
BRANCH   3   5
ATOM      5  C   UNL     1       1.952   7.717  19.860  0.00  0.00    +0.000 A 
ATOM      6  C   UNL     1       1.334   7.788  21.119  0.00  0.00    +0.000 A 
ATOM      7  C   UNL     1       0.555   8.895  21.464  0.00  0.00    +0.000 A 
ATOM      8  C   UNL     1      -0.038   9.032  22.803  0.00  0.00    +0.000 A 
ATOM      9  C   UNL     1      -0.767  10.114  23.089  0.00  0.00    +0.000 A 
ATOM     10  N   UNL     1      -0.997  11.092  22.161  0.00  0.00    +0.000 N 
ATOM     11  C   UNL     1      -0.503  11.072  20.872  0.00  0.00    +0.000 A 
ATOM     12  O   UNL     1      -0.753  11.962  20.068  0.00  0.00    +0.000 OA
ATOM     13  C   UNL     1       0.357   9.915  20.520  0.00  0.00    +0.000 A 
ATOM     14  C   UNL     1       0.971   9.860  19.266  0.00  0.00    +0.000 A 
ATOM     15  C   UNL     1       1.792   8.779  18.954  0.00  0.00    +0.000 A 
ATOM     16 CL   UNL     1       2.564   8.742  17.406  0.00  0.00    +0.000 Cl
ATOM     17  H   UNL     1      -1.570  11.893  22.395  0.00  0.00    +0.000 HD
ENDBRANCH   3   5
BRANCH   2  18
ATOM     18  C   UNL     1       3.344   4.466  18.373  0.00  0.00    +0.000 C 
ATOM     19  C   UNL     1       2.512   3.174  18.170  0.00  0.00    +0.000 C 
ATOM     20  C   UNL     1       2.215   2.706  19.578  0.00  0.00    +0.000 C 
ATOM     21  N   UNL     1       3.489   2.898  20.272  0.00  0.00    +0.000 NA
ATOM     22  C   UNL     1       4.052   4.150  19.723  0.00  0.00    +0.000 C 
ATOM     23  H   UNL     1       4.111   2.128  20.016  0.00  0.00    +0.000 HD
BRANCH  18  24
ATOM     24  C   UNL     1       4.301   4.720  17.193  0.00  0.00    +0.000 A 
ATOM     25  C   UNL     1       4.601   6.021  16.749  0.00  0.00    +0.000 A 
ATOM     26  C   UNL     1       5.510   6.241  15.708  0.00  0.00    +0.000 A 
ATOM     27  C   UNL     1       6.141   5.167  15.087  0.00  0.00    +0.000 A 
ATOM     28  C   UNL     1       5.843   3.871  15.489  0.00  0.00    +0.000 A 
ATOM     29  C   UNL     1       4.921   3.650  16.518  0.00  0.00    +0.000 A 
ENDBRANCH  18  24
ENDBRANCH   2  18
TORSDOF 3
ENDMDL
MODEL 5
REMARK VINA RESULT:      -8.3      1.770      2.521
REMARK  Name = 
REMARK  3 active torsions:
REMARK  status: ('A' for Active; 'I' for Inactive)
REMARK    1  A    between atoms: C_2  and  C_16
REMARK    2  A    between atoms: N_3  and  C_4
REMARK    3  A    between atoms: C_16  and  C_17
REMARK                            x       y       z     vdW  Elec       q    Type
REMARK                         _______ _______ _______ _____ _____    ______ ____
ROOT
ATOM      1  O   UNL     1       4.536   5.386  19.493  0.00  0.00    +0.000 OA
ATOM      2  C   UNL     1       3.788   5.003  18.593  0.00  0.00    +0.000 C 
ATOM      3  N   UNL     1       2.576   5.618  18.319  0.00  0.00    +0.000 N 
ATOM      4  H   UNL     1       1.830   5.013  17.995  0.00  0.00    +0.000 HD
ENDROOT
BRANCH   3   5
ATOM      5  C   UNL     1       2.155   6.812  18.956  0.00  0.00    +0.000 A 
ATOM      6  C   UNL     1       2.161   8.045  18.283  0.00  0.00    +0.000 A 
ATOM      7  C   UNL     1       1.724   9.205  18.926  0.00  0.00    +0.000 A 
ATOM      8  C   UNL     1       1.645  10.493  18.221  0.00  0.00    +0.000 A 
ATOM      9  C   UNL     1       1.212  11.573  18.876  0.00  0.00    +0.000 A 
ATOM     10  N   UNL     1       0.859  11.521  20.195  0.00  0.00    +0.000 N 
ATOM     11  C   UNL     1       0.898  10.375  20.966  0.00  0.00    +0.000 A 
ATOM     12  O   UNL     1       0.592  10.380  22.151  0.00  0.00    +0.000 OA
ATOM     13  C   UNL     1       1.324   9.135  20.271  0.00  0.00    +0.000 A 
ATOM     14  C   UNL     1       1.307   7.914  20.950  0.00  0.00    +0.000 A 
ATOM     15  C   UNL     1       1.690   6.754  20.281  0.00  0.00    +0.000 A 
ATOM     16 CL   UNL     1       1.637   5.249  21.133  0.00  0.00    +0.000 Cl
ATOM     17  H   UNL     1       0.553  12.357  20.677  0.00  0.00    +0.000 HD
ENDBRANCH   3   5
BRANCH   2  18
ATOM     18  C   UNL     1       4.121   3.760  17.718  0.00  0.00    +0.000 C 
ATOM     19  C   UNL     1       2.808   3.238  17.080  0.00  0.00    +0.000 C 
ATOM     20  C   UNL     1       2.220   2.335  18.142  0.00  0.00    +0.000 C 
ATOM     21  N   UNL     1       3.381   1.591  18.632  0.00  0.00    +0.000 NA
ATOM     22  C   UNL     1       4.497   2.562  18.638  0.00  0.00    +0.000 C 
ATOM     23  H   UNL     1       3.600   0.858  17.955  0.00  0.00    +0.000 HD
BRANCH  18  24
ATOM     24  C   UNL     1       5.177   4.103  16.650  0.00  0.00    +0.000 A 
ATOM     25  C   UNL     1       4.875   4.086  15.276  0.00  0.00    +0.000 A 
ATOM     26  C   UNL     1       5.830   4.447  14.319  0.00  0.00    +0.000 A 
ATOM     27  C   UNL     1       7.107   4.835  14.711  0.00  0.00    +0.000 A 
ATOM     28  C   UNL     1       7.439   4.836  16.061  0.00  0.00    +0.000 A 
ATOM     29  C   UNL     1       6.490   4.458  17.017  0.00  0.00    +0.000 A 
ENDBRANCH  18  24
ENDBRANCH   2  18
TORSDOF 3
ENDMDL
MODEL 6
REMARK VINA RESULT:      -7.9      2.715      8.211
REMARK  Name = 
REMARK  3 active torsions:
REMARK  status: ('A' for Active; 'I' for Inactive)
REMARK    1  A    between atoms: C_2  and  C_16
REMARK    2  A    between atoms: N_3  and  C_4
REMARK    3  A    between atoms: C_16  and  C_17
REMARK                            x       y       z     vdW  Elec       q    Type
REMARK                         _______ _______ _______ _____ _____    ______ ____
ROOT
ATOM      1  O   UNL     1       2.109  10.210  17.487  0.00  0.00    +0.000 OA
ATOM      2  C   UNL     1       1.427  10.029  18.498  0.00  0.00    +0.000 C 
ATOM      3  N   UNL     1       1.424   8.827  19.189  0.00  0.00    +0.000 N 
ATOM      4  H   UNL     1       0.546   8.561  19.620  0.00  0.00    +0.000 HD
ENDROOT
BRANCH   3   5
ATOM      5  C   UNL     1       2.296   7.754  18.875  0.00  0.00    +0.000 A 
ATOM      6  C   UNL     1       3.136   7.796  17.750  0.00  0.00    +0.000 A 
ATOM      7  C   UNL     1       4.000   6.734  17.472  0.00  0.00    +0.000 A 
ATOM      8  C   UNL     1       4.946   6.786  16.348  0.00  0.00    +0.000 A 
ATOM      9  C   UNL     1       5.759   5.749  16.127  0.00  0.00    +0.000 A 
ATOM     10  N   UNL     1       5.722   4.628  16.908  0.00  0.00    +0.000 N 
ATOM     11  C   UNL     1       4.874   4.457  17.985  0.00  0.00    +0.000 A 
ATOM     12  O   UNL     1       4.862   3.425  18.643  0.00  0.00    +0.000 OA
ATOM     13  C   UNL     1       3.985   5.602  18.303  0.00  0.00    +0.000 A 
ATOM     14  C   UNL     1       3.159   5.550  19.429  0.00  0.00    +0.000 A 
ATOM     15  C   UNL     1       2.343   6.639  19.728  0.00  0.00    +0.000 A 
ATOM     16 CL   UNL     1       1.347   6.566  21.141  0.00  0.00    +0.000 Cl
ATOM     17  H   UNL     1       6.334   3.846  16.709  0.00  0.00    +0.000 HD
ENDBRANCH   3   5
BRANCH   2  18
ATOM     18  C   UNL     1       0.472  11.125  19.055  0.00  0.00    +0.000 C 
ATOM     19  C   UNL     1       1.066  12.516  18.716  0.00  0.00    +0.000 C 
ATOM     20  C   UNL     1       2.035  12.784  19.846  0.00  0.00    +0.000 C 
ATOM     21  N   UNL     1       1.299  12.346  21.033  0.00  0.00    +0.000 NA
ATOM     22  C   UNL     1       0.551  11.143  20.609  0.00  0.00    +0.000 C 
ATOM     23  H   UNL     1       0.623  13.073  21.275  0.00  0.00    +0.000 HD
BRANCH  18  24
ATOM     24  C   UNL     1      -0.950  10.957  18.488  0.00  0.00    +0.000 A 
ATOM     25  C   UNL     1      -1.252   9.982  17.520  0.00  0.00    +0.000 A 
ATOM     26  C   UNL     1      -2.559   9.808  17.049  0.00  0.00    +0.000 A 
ATOM     27  C   UNL     1      -3.593  10.602  17.535  0.00  0.00    +0.000 A 
ATOM     28  C   UNL     1      -3.317  11.589  18.472  0.00  0.00    +0.000 A 
ATOM     29  C   UNL     1      -2.008  11.776  18.930  0.00  0.00    +0.000 A 
ENDBRANCH  18  24
ENDBRANCH   2  18
TORSDOF 3
ENDMDL
MODEL 7
REMARK VINA RESULT:      -7.9      3.055      7.548
REMARK  Name = 
REMARK  3 active torsions:
REMARK  status: ('A' for Active; 'I' for Inactive)
REMARK    1  A    between atoms: C_2  and  C_16
REMARK    2  A    between atoms: N_3  and  C_4
REMARK    3  A    between atoms: C_16  and  C_17
REMARK                            x       y       z     vdW  Elec       q    Type
REMARK                         _______ _______ _______ _____ _____    ______ ____
ROOT
ATOM      1  O   UNL     1       2.788   3.782  16.699  0.00  0.00    +0.000 OA
ATOM      2  C   UNL     1       3.292   4.305  17.695  0.00  0.00    +0.000 C 
ATOM      3  N   UNL     1       4.585   4.804  17.700  0.00  0.00    +0.000 N 
ATOM      4  H   UNL     1       5.093   4.721  18.573  0.00  0.00    +0.000 HD
ENDROOT
BRANCH   3   5
ATOM      5  C   UNL     1       5.389   4.877  16.534  0.00  0.00    +0.000 A 
ATOM      6  C   UNL     1       5.123   4.082  15.408  0.00  0.00    +0.000 A 
ATOM      7  C   UNL     1       5.918   4.185  14.264  0.00  0.00    +0.000 A 
ATOM      8  C   UNL     1       5.615   3.423  13.045  0.00  0.00    +0.000 A 
ATOM      9  C   UNL     1       6.399   3.562  11.972  0.00  0.00    +0.000 A 
ATOM     10  N   UNL     1       7.494   4.380  11.984  0.00  0.00    +0.000 N 
ATOM     11  C   UNL     1       7.886   5.140  13.070  0.00  0.00    +0.000 A 
ATOM     12  O   UNL     1       8.887   5.843  13.040  0.00  0.00    +0.000 OA
ATOM     13  C   UNL     1       7.018   5.059  14.270  0.00  0.00    +0.000 A 
ATOM     14  C   UNL     1       7.289   5.861  15.381  0.00  0.00    +0.000 A 
ATOM     15  C   UNL     1       6.456   5.791  16.495  0.00  0.00    +0.000 A 
ATOM     16 CL   UNL     1       6.794   6.812  17.851  0.00  0.00    +0.000 Cl
ATOM     17  H   UNL     1       8.085   4.455  11.165  0.00  0.00    +0.000 HD
ENDBRANCH   3   5
BRANCH   2  18
ATOM     18  C   UNL     1       2.530   4.402  19.049  0.00  0.00    +0.000 C 
ATOM     19  C   UNL     1       3.412   3.773  20.157  0.00  0.00    +0.000 C 
ATOM     20  C   UNL     1       3.093   2.296  20.083  0.00  0.00    +0.000 C 
ATOM     21  N   UNL     1       1.639   2.273  19.919  0.00  0.00    +0.000 NA
ATOM     22  C   UNL     1       1.324   3.419  19.039  0.00  0.00    +0.000 C 
ATOM     23  H   UNL     1       1.212   2.445  20.832  0.00  0.00    +0.000 HD
BRANCH  18  24
ATOM     24  C   UNL     1       2.163   5.863  19.371  0.00  0.00    +0.000 A 
ATOM     25  C   UNL     1       1.664   6.241  20.631  0.00  0.00    +0.000 A 
ATOM     26  C   UNL     1       1.381   7.579  20.928  0.00  0.00    +0.000 A 
ATOM     27  C   UNL     1       1.590   8.570  19.974  0.00  0.00    +0.000 A 
ATOM     28  C   UNL     1       2.057   8.220  18.714  0.00  0.00    +0.000 A 
ATOM     29  C   UNL     1       2.324   6.881  18.411  0.00  0.00    +0.000 A 
ENDBRANCH  18  24
ENDBRANCH   2  18
TORSDOF 3
ENDMDL
MODEL 8
REMARK VINA RESULT:      -7.8      1.208      1.464
REMARK  Name = 
REMARK  3 active torsions:
REMARK  status: ('A' for Active; 'I' for Inactive)
REMARK    1  A    between atoms: C_2  and  C_16
REMARK    2  A    between atoms: N_3  and  C_4
REMARK    3  A    between atoms: C_16  and  C_17
REMARK                            x       y       z     vdW  Elec       q    Type
REMARK                         _______ _______ _______ _____ _____    ______ ____
ROOT
ATOM      1  O   UNL     1       0.514   5.225  20.092  0.00  0.00    +0.000 OA
ATOM      2  C   UNL     1       1.740   5.344  20.107  0.00  0.00    +0.000 C 
ATOM      3  N   UNL     1       2.367   6.580  20.148  0.00  0.00    +0.000 N 
ATOM      4  H   UNL     1       3.248   6.652  19.652  0.00  0.00    +0.000 HD
ENDROOT
BRANCH   3   5
ATOM      5  C   UNL     1       1.661   7.799  20.310  0.00  0.00    +0.000 A 
ATOM      6  C   UNL     1       1.016   8.119  21.516  0.00  0.00    +0.000 A 
ATOM      7  C   UNL     1       0.342   9.334  21.657  0.00  0.00    +0.000 A 
ATOM      8  C   UNL     1      -0.274   9.729  22.933  0.00  0.00    +0.000 A 
ATOM      9  C   UNL     1      -0.899  10.905  23.022  0.00  0.00    +0.000 A 
ATOM     10  N   UNL     1      -1.003  11.748  21.951  0.00  0.00    +0.000 N 
ATOM     11  C   UNL     1      -0.474  11.486  20.702  0.00  0.00    +0.000 A 
ATOM     12  O   UNL     1      -0.610  12.263  19.765  0.00  0.00    +0.000 OA
ATOM     13  C   UNL     1       0.276  10.213  20.564  0.00  0.00    +0.000 A 
ATOM     14  C   UNL     1       0.919   9.911  19.361  0.00  0.00    +0.000 A 
ATOM     15  C   UNL     1       1.636   8.722  19.250  0.00  0.00    +0.000 A 
ATOM     16 CL   UNL     1       2.447   8.377  17.761  0.00  0.00    +0.000 Cl
ATOM     17  H   UNL     1      -1.499  12.627  22.038  0.00  0.00    +0.000 HD
ENDBRANCH   3   5
BRANCH   2  18
ATOM     18  C   UNL     1       2.689   4.114  20.030  0.00  0.00    +0.000 C 
ATOM     19  C   UNL     1       1.835   2.847  19.770  0.00  0.00    +0.000 C 
ATOM     20  C   UNL     1       1.389   2.418  21.151  0.00  0.00    +0.000 C 
ATOM     21  N   UNL     1       2.597   2.581  21.961  0.00  0.00    +0.000 NA
ATOM     22  C   UNL     1       3.253   3.802  21.446  0.00  0.00    +0.000 C 
ATOM     23  H   UNL     1       3.213   1.786  21.779  0.00  0.00    +0.000 HD
BRANCH  18  24
ATOM     24  C   UNL     1       3.762   4.311  18.943  0.00  0.00    +0.000 A 
ATOM     25  C   UNL     1       5.111   4.544  19.266  0.00  0.00    +0.000 A 
ATOM     26  C   UNL     1       6.085   4.673  18.269  0.00  0.00    +0.000 A 
ATOM     27  C   UNL     1       5.734   4.572  16.926  0.00  0.00    +0.000 A 
ATOM     28  C   UNL     1       4.405   4.367  16.579  0.00  0.00    +0.000 A 
ATOM     29  C   UNL     1       3.428   4.256  17.575  0.00  0.00    +0.000 A 
ENDBRANCH  18  24
ENDBRANCH   2  18
TORSDOF 3
ENDMDL
MODEL 9
REMARK VINA RESULT:      -7.8      1.101      1.494
REMARK  Name = 
REMARK  3 active torsions:
REMARK  status: ('A' for Active; 'I' for Inactive)
REMARK    1  A    between atoms: C_2  and  C_16
REMARK    2  A    between atoms: N_3  and  C_4
REMARK    3  A    between atoms: C_16  and  C_17
REMARK                            x       y       z     vdW  Elec       q    Type
REMARK                         _______ _______ _______ _____ _____    ______ ____
ROOT
ATOM      1  O   UNL     1       2.247   5.226  21.035  0.00  0.00    +0.000 OA
ATOM      2  C   UNL     1       2.517   5.288  19.834  0.00  0.00    +0.000 C 
ATOM      3  N   UNL     1       2.208   6.395  19.058  0.00  0.00    +0.000 N 
ATOM      4  H   UNL     1       1.963   6.210  18.092  0.00  0.00    +0.000 HD
ENDROOT
BRANCH   3   5
ATOM      5  C   UNL     1       1.680   7.594  19.600  0.00  0.00    +0.000 A 
ATOM      6  C   UNL     1       1.061   7.620  20.860  0.00  0.00    +0.000 A 
ATOM      7  C   UNL     1       0.564   8.817  21.381  0.00  0.00    +0.000 A 
ATOM      8  C   UNL     1      -0.016   8.888  22.729  0.00  0.00    +0.000 A 
ATOM      9  C   UNL     1      -0.470  10.058  23.187  0.00  0.00    +0.000 A 
ATOM     10  N   UNL     1      -0.430  11.192  22.426  0.00  0.00    +0.000 N 
ATOM     11  C   UNL     1       0.083  11.251  21.144  0.00  0.00    +0.000 A 
ATOM     12  O   UNL     1       0.078  12.287  20.491  0.00  0.00    +0.000 OA
ATOM     13  C   UNL     1       0.646   9.987  20.608  0.00  0.00    +0.000 A 
ATOM     14  C   UNL     1       1.265   9.977  19.355  0.00  0.00    +0.000 A 
ATOM     15  C   UNL     1       1.808   8.789  18.871  0.00  0.00    +0.000 A 
ATOM     16 CL   UNL     1       2.593   8.802  17.329  0.00  0.00    +0.000 Cl
ATOM     17  H   UNL     1      -0.798  12.064  22.787  0.00  0.00    +0.000 HD
ENDBRANCH   3   5
BRANCH   2  18
ATOM     18  C   UNL     1       3.186   4.105  19.077  0.00  0.00    +0.000 C 
ATOM     19  C   UNL     1       2.266   3.690  17.900  0.00  0.00    +0.000 C 
ATOM     20  C   UNL     1       1.279   2.732  18.528  0.00  0.00    +0.000 C 
ATOM     21  N   UNL     1       2.117   1.904  19.396  0.00  0.00    +0.000 NA
ATOM     22  C   UNL     1       3.129   2.824  19.959  0.00  0.00    +0.000 C 
ATOM     23  H   UNL     1       2.600   1.217  18.813  0.00  0.00    +0.000 HD
BRANCH  18  24
ATOM     24  C   UNL     1       4.597   4.486  18.592  0.00  0.00    +0.000 A 
ATOM     25  C   UNL     1       5.038   4.190  17.289  0.00  0.00    +0.000 A 
ATOM     26  C   UNL     1       6.306   4.586  16.845  0.00  0.00    +0.000 A 
ATOM     27  C   UNL     1       7.160   5.286  17.691  0.00  0.00    +0.000 A 
ATOM     28  C   UNL     1       6.758   5.568  18.990  0.00  0.00    +0.000 A 
ATOM     29  C   UNL     1       5.499   5.157  19.441  0.00  0.00    +0.000 A 
ENDBRANCH  18  24
ENDBRANCH   2  18
TORSDOF 3
ENDMDL
