MODEL 1
REMARK VINA RESULT:      -7.6      0.000      0.000
REMARK  Name = 
REMARK  8 active torsions:
REMARK  status: ('A' for Active; 'I' for Inactive)
REMARK    1  A    between atoms: C_1  and  C_2
REMARK    2  A    between atoms: C_2  and  C_3
REMARK    3  A    between atoms: C_3  and  N_4
REMARK    4  A    between atoms: C_5  and  C_7
REMARK    5  A    between atoms: C_7  and  N_8
REMARK    6  A    between atoms: C_9  and  C_10
REMARK    7  A    between atoms: C_13  and  C_14
REMARK    8  A    between atoms: C_16  and  C_17
REMARK                            x       y       z     vdW  Elec       q    Type
REMARK                         _______ _______ _______ _____ _____    ______ ____
ROOT
ATOM      1  N   UNL     1       4.411   4.159  18.362  0.00  0.00    +0.000 N 
ATOM      2  C   UNL     1       3.415   3.209  18.335  0.00  0.00    +0.000 A 
ATOM      3  C   UNL     1       3.745   1.757  18.072  0.00  0.00    +0.000 C 
ATOM      4  N   UNL     1       2.166   3.477  18.567  0.00  0.00    +0.000 NA
ATOM      5  C   UNL     1       1.822   4.784  18.798  0.00  0.00    +0.000 A 
ATOM      6  C   UNL     1       2.693   5.795  18.933  0.00  0.00    +0.000 A 
ATOM      7  C   UNL     1       4.121   5.405  18.893  0.00  0.00    +0.000 A 
ATOM      8  O   UNL     1       4.990   6.139  19.374  0.00  0.00    +0.000 OA
ENDROOT
BRANCH   6   9
ATOM      9  C   UNL     1       2.253   7.137  19.117  0.00  0.00    +0.000 A 
ATOM     10  N   UNL     1       1.682   7.641  20.200  0.00  0.00    +0.000 NA
ATOM     11  C   UNL     1       1.287   8.956  19.999  0.00  0.00    +0.000 A 
ATOM     12  C   UNL     1       1.590   9.466  18.756  0.00  0.00    +0.000 A 
ATOM     13  S   UNL     1       2.336   8.272  17.798  0.00  0.00    +0.000 S 
BRANCH  11  14
ATOM     14  C   UNL     1       0.580   9.701  21.032  0.00  0.00    +0.000 A 
ATOM     15  C   UNL     1       0.239   9.069  22.235  0.00  0.00    +0.000 A 
ATOM     16  C   UNL     1      -0.491   9.749  23.211  0.00  0.00    +0.000 A 
ATOM     17  C   UNL     1      -0.891  11.067  22.993  0.00  0.00    +0.000 A 
ATOM     18  C   UNL     1      -0.550  11.709  21.804  0.00  0.00    +0.000 A 
ATOM     19  C   UNL     1       0.183  11.032  20.829  0.00  0.00    +0.000 A 
ENDBRANCH  11  14
ENDBRANCH   6   9
BRANCH   1  20
ATOM     20  C   UNL     1       5.830   3.893  18.090  0.00  0.00    +0.000 C 
BRANCH  20  22
ATOM     21  N   UNL     1       5.376   4.112  15.687  0.00  0.00    +0.000 N 
ATOM     22  C   UNL     1       6.281   4.380  16.703  0.00  0.00    +0.000 C 
ATOM     23  O   UNL     1       7.303   5.039  16.528  0.00  0.00    +0.000 OA
ATOM     24  H   UNL     1       4.647   3.425  15.835  0.00  0.00    +0.000 HD
BRANCH  21  25
ATOM     25  C   UNL     1       5.552   4.627  14.339  0.00  0.00    +0.000 C 
BRANCH  25  27
ATOM     26  C   UNL     1       5.454   3.416  12.140  0.00  0.00    +0.000 C 
ATOM     27  C   UNL     1       6.249   3.632  13.420  0.00  0.00    +0.000 C 
ENDBRANCH  25  27
ENDBRANCH  21  25
ENDBRANCH  20  22
ENDBRANCH   1  20
TORSDOF 6
ENDMDL
MODEL 2
REMARK VINA RESULT:      -7.5      2.483      4.412
REMARK  Name = 
REMARK  8 active torsions:
REMARK  status: ('A' for Active; 'I' for Inactive)
REMARK    1  A    between atoms: C_1  and  C_2
REMARK    2  A    between atoms: C_2  and  C_3
REMARK    3  A    between atoms: C_3  and  N_4
REMARK    4  A    between atoms: C_5  and  C_7
REMARK    5  A    between atoms: C_7  and  N_8
REMARK    6  A    between atoms: C_9  and  C_10
REMARK    7  A    between atoms: C_13  and  C_14
REMARK    8  A    between atoms: C_16  and  C_17
REMARK                            x       y       z     vdW  Elec       q    Type
REMARK                         _______ _______ _______ _____ _____    ______ ____
ROOT
ATOM      1  N   UNL     1       3.869   4.404  17.244  0.00  0.00    +0.000 N 
ATOM      2  C   UNL     1       5.038   4.938  16.750  0.00  0.00    +0.000 A 
ATOM      3  C   UNL     1       6.047   4.058  16.047  0.00  0.00    +0.000 C 
ATOM      4  N   UNL     1       5.329   6.201  16.815  0.00  0.00    +0.000 NA
ATOM      5  C   UNL     1       4.446   7.032  17.456  0.00  0.00    +0.000 A 
ATOM      6  C   UNL     1       3.238   6.666  17.909  0.00  0.00    +0.000 A 
ATOM      7  C   UNL     1       2.849   5.269  17.607  0.00  0.00    +0.000 A 
ATOM      8  O   UNL     1       1.663   4.926  17.619  0.00  0.00    +0.000 OA
ENDROOT
BRANCH   6   9
ATOM      9  C   UNL     1       2.400   7.576  18.614  0.00  0.00    +0.000 A 
ATOM     10  N   UNL     1       1.907   8.715  18.156  0.00  0.00    +0.000 NA
ATOM     11  C   UNL     1       1.216   9.403  19.143  0.00  0.00    +0.000 A 
ATOM     12  C   UNL     1       1.158   8.761  20.361  0.00  0.00    +0.000 A 
ATOM     13  S   UNL     1       2.023   7.296  20.292  0.00  0.00    +0.000 S 
BRANCH  11  14
ATOM     14  C   UNL     1       0.635  10.715  18.889  0.00  0.00    +0.000 A 
ATOM     15  C   UNL     1      -0.726  10.823  18.578  0.00  0.00    +0.000 A 
ATOM     16  C   UNL     1      -1.287  12.064  18.272  0.00  0.00    +0.000 A 
ATOM     17  C   UNL     1      -0.492  13.209  18.272  0.00  0.00    +0.000 A 
ATOM     18  C   UNL     1       0.862  13.116  18.590  0.00  0.00    +0.000 A 
ATOM     19  C   UNL     1       1.423  11.876  18.899  0.00  0.00    +0.000 A 
ENDBRANCH  11  14
ENDBRANCH   6   9
BRANCH   1  20
ATOM     20  C   UNL     1       3.515   2.979  17.201  0.00  0.00    +0.000 C 
BRANCH  20  22
ATOM     21  N   UNL     1       3.374   3.112  19.648  0.00  0.00    +0.000 N 
ATOM     22  C   UNL     1       3.637   2.284  18.567  0.00  0.00    +0.000 C 
ATOM     23  O   UNL     1       3.845   1.080  18.687  0.00  0.00    +0.000 OA
ATOM     24  H   UNL     1       3.382   4.117  19.522  0.00  0.00    +0.000 HD
BRANCH  21  25
ATOM     25  C   UNL     1       3.288   2.604  21.008  0.00  0.00    +0.000 C 
BRANCH  25  27
ATOM     26  C   UNL     1       1.001   3.599  20.705  0.00  0.00    +0.000 C 
ATOM     27  C   UNL     1       1.889   2.740  21.595  0.00  0.00    +0.000 C 
ENDBRANCH  25  27
ENDBRANCH  21  25
ENDBRANCH  20  22
ENDBRANCH   1  20
TORSDOF 6
ENDMDL
MODEL 3
REMARK VINA RESULT:      -7.5      0.404      1.026
REMARK  Name = 
REMARK  8 active torsions:
REMARK  status: ('A' for Active; 'I' for Inactive)
REMARK    1  A    between atoms: C_1  and  C_2
REMARK    2  A    between atoms: C_2  and  C_3
REMARK    3  A    between atoms: C_3  and  N_4
REMARK    4  A    between atoms: C_5  and  C_7
REMARK    5  A    between atoms: C_7  and  N_8
REMARK    6  A    between atoms: C_9  and  C_10
REMARK    7  A    between atoms: C_13  and  C_14
REMARK    8  A    between atoms: C_16  and  C_17
REMARK                            x       y       z     vdW  Elec       q    Type
REMARK                         _______ _______ _______ _____ _____    ______ ____
ROOT
ATOM      1  N   UNL     1       4.400   4.225  18.357  0.00  0.00    +0.000 N 
ATOM      2  C   UNL     1       3.402   3.289  18.195  0.00  0.00    +0.000 A 
ATOM      3  C   UNL     1       3.742   1.846  17.899  0.00  0.00    +0.000 C 
ATOM      4  N   UNL     1       2.139   3.564  18.320  0.00  0.00    +0.000 NA
ATOM      5  C   UNL     1       1.786   4.863  18.576  0.00  0.00    +0.000 A 
ATOM      6  C   UNL     1       2.649   5.856  18.837  0.00  0.00    +0.000 A 
ATOM      7  C   UNL     1       4.072   5.450  18.913  0.00  0.00    +0.000 A 
ATOM      8  O   UNL     1       4.898   6.151  19.506  0.00  0.00    +0.000 OA
ENDROOT
BRANCH   6   9
ATOM      9  C   UNL     1       2.206   7.194  19.039  0.00  0.00    +0.000 A 
ATOM     10  N   UNL     1       1.571   7.666  20.100  0.00  0.00    +0.000 NA
ATOM     11  C   UNL     1       1.196   8.990  19.920  0.00  0.00    +0.000 A 
ATOM     12  C   UNL     1       1.579   9.540  18.716  0.00  0.00    +0.000 A 
ATOM     13  S   UNL     1       2.378   8.373  17.767  0.00  0.00    +0.000 S 
BRANCH  11  14
ATOM     14  C   UNL     1       0.430   9.706  20.931  0.00  0.00    +0.000 A 
ATOM     15  C   UNL     1      -0.064  10.987  20.651  0.00  0.00    +0.000 A 
ATOM     16  C   UNL     1      -0.748  11.712  21.628  0.00  0.00    +0.000 A 
ATOM     17  C   UNL     1      -0.943  11.166  22.895  0.00  0.00    +0.000 A 
ATOM     18  C   UNL     1      -0.465   9.889  23.183  0.00  0.00    +0.000 A 
ATOM     19  C   UNL     1       0.216   9.160  22.206  0.00  0.00    +0.000 A 
ENDBRANCH  11  14
ENDBRANCH   6   9
BRANCH   1  20
ATOM     20  C   UNL     1       5.835   3.952  18.207  0.00  0.00    +0.000 C 
BRANCH  20  22
ATOM     21  N   UNL     1       6.135   3.864  15.772  0.00  0.00    +0.000 N 
ATOM     22  C   UNL     1       6.436   4.563  16.931  0.00  0.00    +0.000 C 
ATOM     23  O   UNL     1       7.041   5.632  16.924  0.00  0.00    +0.000 OA
ATOM     24  H   UNL     1       5.794   2.912  15.837  0.00  0.00    +0.000 HD
BRANCH  21  25
ATOM     25  C   UNL     1       6.482   4.366  14.453  0.00  0.00    +0.000 C 
BRANCH  25  27
ATOM     26  C   UNL     1       6.426   3.428  12.122  0.00  0.00    +0.000 C 
ATOM     27  C   UNL     1       5.603   3.780  13.355  0.00  0.00    +0.000 C 
ENDBRANCH  25  27
ENDBRANCH  21  25
ENDBRANCH  20  22
ENDBRANCH   1  20
TORSDOF 6
ENDMDL
MODEL 4
REMARK VINA RESULT:      -7.3      1.537      2.322
REMARK  Name = 
REMARK  8 active torsions:
REMARK  status: ('A' for Active; 'I' for Inactive)
REMARK    1  A    between atoms: C_1  and  C_2
REMARK    2  A    between atoms: C_2  and  C_3
REMARK    3  A    between atoms: C_3  and  N_4
REMARK    4  A    between atoms: C_5  and  C_7
REMARK    5  A    between atoms: C_7  and  N_8
REMARK    6  A    between atoms: C_9  and  C_10
REMARK    7  A    between atoms: C_13  and  C_14
REMARK    8  A    between atoms: C_16  and  C_17
REMARK                            x       y       z     vdW  Elec       q    Type
REMARK                         _______ _______ _______ _____ _____    ______ ____
ROOT
ATOM      1  N   UNL     1       3.643   4.168  17.925  0.00  0.00    +0.000 N 
ATOM      2  C   UNL     1       3.296   3.334  18.964  0.00  0.00    +0.000 A 
ATOM      3  C   UNL     1       3.689   1.874  18.941  0.00  0.00    +0.000 C 
ATOM      4  N   UNL     1       2.663   3.738  20.023  0.00  0.00    +0.000 NA
ATOM      5  C   UNL     1       2.278   5.052  20.079  0.00  0.00    +0.000 A 
ATOM      6  C   UNL     1       2.617   5.990  19.183  0.00  0.00    +0.000 A 
ATOM      7  C   UNL     1       3.534   5.537  18.112  0.00  0.00    +0.000 A 
ATOM      8  O   UNL     1       4.211   6.348  17.473  0.00  0.00    +0.000 OA
ENDROOT
BRANCH   6   9
ATOM      9  C   UNL     1       2.130   7.325  19.281  0.00  0.00    +0.000 A 
ATOM     10  N   UNL     1       1.572   7.887  20.342  0.00  0.00    +0.000 NA
ATOM     11  C   UNL     1       1.118   9.168  20.058  0.00  0.00    +0.000 A 
ATOM     12  C   UNL     1       1.364   9.595  18.771  0.00  0.00    +0.000 A 
ATOM     13  S   UNL     1       2.129   8.361  17.881  0.00  0.00    +0.000 S 
BRANCH  11  14
ATOM     14  C   UNL     1       0.413   9.961  21.055  0.00  0.00    +0.000 A 
ATOM     15  C   UNL     1      -0.070   9.346  22.218  0.00  0.00    +0.000 A 
ATOM     16  C   UNL     1      -0.801  10.078  23.156  0.00  0.00    +0.000 A 
ATOM     17  C   UNL     1      -1.058  11.431  22.940  0.00  0.00    +0.000 A 
ATOM     18  C   UNL     1      -0.575  12.056  21.792  0.00  0.00    +0.000 A 
ATOM     19  C   UNL     1       0.159  11.327  20.855  0.00  0.00    +0.000 A 
ENDBRANCH  11  14
ENDBRANCH   6   9
BRANCH   1  20
ATOM     20  C   UNL     1       4.345   3.742  16.707  0.00  0.00    +0.000 C 
BRANCH  20  22
ATOM     21  N   UNL     1       6.403   4.311  17.919  0.00  0.00    +0.000 N 
ATOM     22  C   UNL     1       5.815   4.190  16.669  0.00  0.00    +0.000 C 
ATOM     23  O   UNL     1       6.444   4.328  15.623  0.00  0.00    +0.000 OA
ATOM     24  H   UNL     1       5.817   4.362  18.744  0.00  0.00    +0.000 HD
BRANCH  21  25
ATOM     25  C   UNL     1       7.823   4.573  18.085  0.00  0.00    +0.000 C 
BRANCH  25  27
ATOM     26  C   UNL     1       7.903   7.080  18.232  0.00  0.00    +0.000 C 
ATOM     27  C   UNL     1       8.095   5.771  18.986  0.00  0.00    +0.000 C 
ENDBRANCH  25  27
ENDBRANCH  21  25
ENDBRANCH  20  22
ENDBRANCH   1  20
TORSDOF 6
ENDMDL
MODEL 5
REMARK VINA RESULT:      -7.2      3.255      8.316
REMARK  Name = 
REMARK  8 active torsions:
REMARK  status: ('A' for Active; 'I' for Inactive)
REMARK    1  A    between atoms: C_1  and  C_2
REMARK    2  A    between atoms: C_2  and  C_3
REMARK    3  A    between atoms: C_3  and  N_4
REMARK    4  A    between atoms: C_5  and  C_7
REMARK    5  A    between atoms: C_7  and  N_8
REMARK    6  A    between atoms: C_9  and  C_10
REMARK    7  A    between atoms: C_13  and  C_14
REMARK    8  A    between atoms: C_16  and  C_17
REMARK                            x       y       z     vdW  Elec       q    Type
REMARK                         _______ _______ _______ _____ _____    ______ ____
ROOT
ATOM      1  N   UNL     1       0.995   9.972  19.662  0.00  0.00    +0.000 N 
ATOM      2  C   UNL     1       0.555   9.915  20.966  0.00  0.00    +0.000 A 
ATOM      3  C   UNL     1      -0.232  11.060  21.562  0.00  0.00    +0.000 C 
ATOM      4  N   UNL     1       0.743   8.889  21.738  0.00  0.00    +0.000 NA
ATOM      5  C   UNL     1       1.463   7.833  21.241  0.00  0.00    +0.000 A 
ATOM      6  C   UNL     1       1.879   7.718  19.971  0.00  0.00    +0.000 A 
ATOM      7  C   UNL     1       1.441   8.804  19.064  0.00  0.00    +0.000 A 
ATOM      8  O   UNL     1       1.420   8.636  17.841  0.00  0.00    +0.000 OA
ENDROOT
BRANCH   6   9
ATOM      9  C   UNL     1       2.670   6.614  19.544  0.00  0.00    +0.000 A 
ATOM     10  N   UNL     1       3.572   6.615  18.575  0.00  0.00    +0.000 NA
ATOM     11  C   UNL     1       4.082   5.344  18.355  0.00  0.00    +0.000 A 
ATOM     12  C   UNL     1       3.583   4.369  19.190  0.00  0.00    +0.000 A 
ATOM     13  S   UNL     1       2.418   5.036  20.238  0.00  0.00    +0.000 S 
BRANCH  11  14
ATOM     14  C   UNL     1       5.046   5.086  17.293  0.00  0.00    +0.000 A 
ATOM     15  C   UNL     1       6.256   5.794  17.267  0.00  0.00    +0.000 A 
ATOM     16  C   UNL     1       7.165   5.604  16.225  0.00  0.00    +0.000 A 
ATOM     17  C   UNL     1       6.874   4.709  15.197  0.00  0.00    +0.000 A 
ATOM     18  C   UNL     1       5.678   3.993  15.217  0.00  0.00    +0.000 A 
ATOM     19  C   UNL     1       4.770   4.178  16.261  0.00  0.00    +0.000 A 
ENDBRANCH  11  14
ENDBRANCH   6   9
BRANCH   1  20
ATOM     20  C   UNL     1       0.812  11.121  18.766  0.00  0.00    +0.000 C 
BRANCH  20  22
ATOM     21  N   UNL     1      -1.076  10.255  17.456  0.00  0.00    +0.000 N 
ATOM     22  C   UNL     1      -0.637  11.282  18.278  0.00  0.00    +0.000 C 
ATOM     23  O   UNL     1      -1.374  12.185  18.665  0.00  0.00    +0.000 OA
ATOM     24  H   UNL     1      -0.399   9.637  17.024  0.00  0.00    +0.000 HD
BRANCH  21  25
ATOM     25  C   UNL     1      -2.458  10.150  17.020  0.00  0.00    +0.000 C 
BRANCH  25  27
ATOM     26  C   UNL     1      -3.013  10.032  14.572  0.00  0.00    +0.000 C 
ATOM     27  C   UNL     1      -2.734  10.951  15.753  0.00  0.00    +0.000 C 
ENDBRANCH  25  27
ENDBRANCH  21  25
ENDBRANCH  20  22
ENDBRANCH   1  20
TORSDOF 6
ENDMDL
MODEL 6
REMARK VINA RESULT:      -7.1      3.778      8.411
REMARK  Name = 
REMARK  8 active torsions:
REMARK  status: ('A' for Active; 'I' for Inactive)
REMARK    1  A    between atoms: C_1  and  C_2
REMARK    2  A    between atoms: C_2  and  C_3
REMARK    3  A    between atoms: C_3  and  N_4
REMARK    4  A    between atoms: C_5  and  C_7
REMARK    5  A    between atoms: C_7  and  N_8
REMARK    6  A    between atoms: C_9  and  C_10
REMARK    7  A    between atoms: C_13  and  C_14
REMARK    8  A    between atoms: C_16  and  C_17
REMARK                            x       y       z     vdW  Elec       q    Type
REMARK                         _______ _______ _______ _____ _____    ______ ____
ROOT
ATOM      1  N   UNL     1      -0.057  11.425  20.066  0.00  0.00    +0.000 N 
ATOM      2  C   UNL     1      -0.047  11.509  21.441  0.00  0.00    +0.000 A 
ATOM      3  C   UNL     1      -0.645  12.708  22.141  0.00  0.00    +0.000 C 
ATOM      4  N   UNL     1       0.424  10.575  22.209  0.00  0.00    +0.000 NA
ATOM      5  C   UNL     1       0.987   9.476  21.615  0.00  0.00    +0.000 A 
ATOM      6  C   UNL     1       0.973   9.224  20.297  0.00  0.00    +0.000 A 
ATOM      7  C   UNL     1       0.220  10.201  19.478  0.00  0.00    +0.000 A 
ATOM      8  O   UNL     1      -0.190   9.900  18.352  0.00  0.00    +0.000 OA
ENDROOT
BRANCH   6   9
ATOM      9  C   UNL     1       1.629   8.085  19.750  0.00  0.00    +0.000 A 
ATOM     10  N   UNL     1       1.752   6.895  20.316  0.00  0.00    +0.000 NA
ATOM     11  C   UNL     1       2.540   6.048  19.549  0.00  0.00    +0.000 A 
ATOM     12  C   UNL     1       2.996   6.594  18.370  0.00  0.00    +0.000 A 
ATOM     13  S   UNL     1       2.478   8.210  18.233  0.00  0.00    +0.000 S 
BRANCH  11  14
ATOM     14  C   UNL     1       2.867   4.702  20.000  0.00  0.00    +0.000 A 
ATOM     15  C   UNL     1       2.156   4.134  21.065  0.00  0.00    +0.000 A 
ATOM     16  C   UNL     1       2.496   2.869  21.550  0.00  0.00    +0.000 A 
ATOM     17  C   UNL     1       3.551   2.162  20.978  0.00  0.00    +0.000 A 
ATOM     18  C   UNL     1       4.261   2.713  19.912  0.00  0.00    +0.000 A 
ATOM     19  C   UNL     1       3.920   3.975  19.423  0.00  0.00    +0.000 A 
ENDBRANCH  11  14
ENDBRANCH   6   9
BRANCH   1  20
ATOM     20  C   UNL     1      -0.569  12.467  19.167  0.00  0.00    +0.000 C 
BRANCH  20  22
ATOM     21  N   UNL     1      -1.886  11.989  17.150  0.00  0.00    +0.000 N 
ATOM     22  C   UNL     1      -1.922  12.107  18.532  0.00  0.00    +0.000 C 
ATOM     23  O   UNL     1      -2.921  11.844  19.196  0.00  0.00    +0.000 OA
ATOM     24  H   UNL     1      -1.106  12.380  16.636  0.00  0.00    +0.000 HD
BRANCH  21  25
ATOM     25  C   UNL     1      -3.023  11.507  16.385  0.00  0.00    +0.000 C 
BRANCH  25  27
ATOM     26  C   UNL     1      -3.472  10.069  14.374  0.00  0.00    +0.000 C 
ATOM     27  C   UNL     1      -2.748  10.169  15.709  0.00  0.00    +0.000 C 
ENDBRANCH  25  27
ENDBRANCH  21  25
ENDBRANCH  20  22
ENDBRANCH   1  20
TORSDOF 6
ENDMDL
MODEL 7
REMARK VINA RESULT:      -7.1      1.865      2.667
REMARK  Name = 
REMARK  8 active torsions:
REMARK  status: ('A' for Active; 'I' for Inactive)
REMARK    1  A    between atoms: C_1  and  C_2
REMARK    2  A    between atoms: C_2  and  C_3
REMARK    3  A    between atoms: C_3  and  N_4
REMARK    4  A    between atoms: C_5  and  C_7
REMARK    5  A    between atoms: C_7  and  N_8
REMARK    6  A    between atoms: C_9  and  C_10
REMARK    7  A    between atoms: C_13  and  C_14
REMARK    8  A    between atoms: C_16  and  C_17
REMARK                            x       y       z     vdW  Elec       q    Type
REMARK                         _______ _______ _______ _____ _____    ______ ____
ROOT
ATOM      1  N   UNL     1       4.061   4.215  18.464  0.00  0.00    +0.000 N 
ATOM      2  C   UNL     1       3.113   3.462  17.808  0.00  0.00    +0.000 A 
ATOM      3  C   UNL     1       3.419   2.044  17.380  0.00  0.00    +0.000 C 
ATOM      4  N   UNL     1       1.913   3.887  17.556  0.00  0.00    +0.000 NA
ATOM      5  C   UNL     1       1.597   5.171  17.916  0.00  0.00    +0.000 A 
ATOM      6  C   UNL     1       2.389   5.985  18.629  0.00  0.00    +0.000 A 
ATOM      7  C   UNL     1       3.657   5.379  19.097  0.00  0.00    +0.000 A 
ATOM      8  O   UNL     1       4.276   5.864  20.050  0.00  0.00    +0.000 OA
ENDROOT
BRANCH   6   9
ATOM      9  C   UNL     1       2.012   7.328  18.917  0.00  0.00    +0.000 A 
ATOM     10  N   UNL     1       1.378   7.757  19.997  0.00  0.00    +0.000 NA
ATOM     11  C   UNL     1       1.076   9.109  19.905  0.00  0.00    +0.000 A 
ATOM     12  C   UNL     1       1.514   9.720  18.751  0.00  0.00    +0.000 A 
ATOM     13  S   UNL     1       2.273   8.582  17.736  0.00  0.00    +0.000 S 
BRANCH  11  14
ATOM     14  C   UNL     1       0.326   9.792  20.950  0.00  0.00    +0.000 A 
ATOM     15  C   UNL     1      -0.124  11.102  20.739  0.00  0.00    +0.000 A 
ATOM     16  C   UNL     1      -0.792  11.794  21.751  0.00  0.00    +0.000 A 
ATOM     17  C   UNL     1      -1.015  11.184  22.984  0.00  0.00    +0.000 A 
ATOM     18  C   UNL     1      -0.581   9.878  23.203  0.00  0.00    +0.000 A 
ATOM     19  C   UNL     1       0.084   9.183  22.191  0.00  0.00    +0.000 A 
ENDBRANCH  11  14
ENDBRANCH   6   9
BRANCH   1  20
ATOM     20  C   UNL     1       5.431   3.771  18.752  0.00  0.00    +0.000 C 
BRANCH  20  22
ATOM     21  N   UNL     1       6.913   5.723  18.903  0.00  0.00    +0.000 N 
ATOM     22  C   UNL     1       6.504   4.664  18.107  0.00  0.00    +0.000 C 
ATOM     23  O   UNL     1       7.027   4.402  17.027  0.00  0.00    +0.000 OA
ATOM     24  H   UNL     1       6.344   6.003  19.693  0.00  0.00    +0.000 HD
BRANCH  21  25
ATOM     25  C   UNL     1       8.024   6.584  18.533  0.00  0.00    +0.000 C 
BRANCH  25  27
ATOM     26  C   UNL     1       8.241   9.030  18.002  0.00  0.00    +0.000 C 
ATOM     27  C   UNL     1       7.604   7.709  17.595  0.00  0.00    +0.000 C 
ENDBRANCH  25  27
ENDBRANCH  21  25
ENDBRANCH  20  22
ENDBRANCH   1  20
TORSDOF 6
ENDMDL
MODEL 8
REMARK VINA RESULT:      -7.0      2.513      7.964
REMARK  Name = 
REMARK  8 active torsions:
REMARK  status: ('A' for Active; 'I' for Inactive)
REMARK    1  A    between atoms: C_1  and  C_2
REMARK    2  A    between atoms: C_2  and  C_3
REMARK    3  A    between atoms: C_3  and  N_4
REMARK    4  A    between atoms: C_5  and  C_7
REMARK    5  A    between atoms: C_7  and  N_8
REMARK    6  A    between atoms: C_9  and  C_10
REMARK    7  A    between atoms: C_13  and  C_14
REMARK    8  A    between atoms: C_16  and  C_17
REMARK                            x       y       z     vdW  Elec       q    Type
REMARK                         _______ _______ _______ _____ _____    ______ ____
ROOT
ATOM      1  N   UNL     1       2.641   6.103  19.945  0.00  0.00    +0.000 N 
ATOM      2  C   UNL     1       2.117   7.305  19.522  0.00  0.00    +0.000 A 
ATOM      3  C   UNL     1       0.969   7.947  20.267  0.00  0.00    +0.000 C 
ATOM      4  N   UNL     1       2.585   7.969  18.510  0.00  0.00    +0.000 NA
ATOM      5  C   UNL     1       3.618   7.416  17.799  0.00  0.00    +0.000 A 
ATOM      6  C   UNL     1       4.276   6.299  18.144  0.00  0.00    +0.000 A 
ATOM      7  C   UNL     1       3.863   5.698  19.433  0.00  0.00    +0.000 A 
ATOM      8  O   UNL     1       4.612   4.927  20.039  0.00  0.00    +0.000 OA
ENDROOT
BRANCH   6   9
ATOM      9  C   UNL     1       5.304   5.757  17.322  0.00  0.00    +0.000 A 
ATOM     10  N   UNL     1       5.234   5.519  16.021  0.00  0.00    +0.000 NA
ATOM     11  C   UNL     1       6.382   4.891  15.558  0.00  0.00    +0.000 A 
ATOM     12  C   UNL     1       7.349   4.677  16.516  0.00  0.00    +0.000 A 
ATOM     13  S   UNL     1       6.801   5.221  18.034  0.00  0.00    +0.000 S 
BRANCH  11  14
ATOM     14  C   UNL     1       6.510   4.474  14.168  0.00  0.00    +0.000 A 
ATOM     15  C   UNL     1       7.508   5.040  13.363  0.00  0.00    +0.000 A 
ATOM     16  C   UNL     1       7.608   4.698  12.013  0.00  0.00    +0.000 A 
ATOM     17  C   UNL     1       6.711   3.790  11.454  0.00  0.00    +0.000 A 
ATOM     18  C   UNL     1       5.720   3.214  12.247  0.00  0.00    +0.000 A 
ATOM     19  C   UNL     1       5.621   3.552  13.598  0.00  0.00    +0.000 A 
ENDBRANCH  11  14
ENDBRANCH   6   9
BRANCH   1  20
ATOM     20  C   UNL     1       2.128   5.318  21.076  0.00  0.00    +0.000 C 
BRANCH  20  22
ATOM     21  N   UNL     1       1.181   3.788  19.405  0.00  0.00    +0.000 N 
ATOM     22  C   UNL     1       1.713   3.891  20.681  0.00  0.00    +0.000 C 
ATOM     23  O   UNL     1       1.930   2.913  21.392  0.00  0.00    +0.000 OA
ATOM     24  H   UNL     1       0.859   4.623  18.929  0.00  0.00    +0.000 HD
BRANCH  21  25
ATOM     25  C   UNL     1       0.873   2.505  18.796  0.00  0.00    +0.000 C 
BRANCH  25  27
ATOM     26  C   UNL     1       2.742   2.983  17.187  0.00  0.00    +0.000 C 
ATOM     27  C   UNL     1       2.057   1.921  18.034  0.00  0.00    +0.000 C 
ENDBRANCH  25  27
ENDBRANCH  21  25
ENDBRANCH  20  22
ENDBRANCH   1  20
TORSDOF 6
ENDMDL
MODEL 9
REMARK VINA RESULT:      -7.0      3.953      9.031
REMARK  Name = 
REMARK  8 active torsions:
REMARK  status: ('A' for Active; 'I' for Inactive)
REMARK    1  A    between atoms: C_1  and  C_2
REMARK    2  A    between atoms: C_2  and  C_3
REMARK    3  A    between atoms: C_3  and  N_4
REMARK    4  A    between atoms: C_5  and  C_7
REMARK    5  A    between atoms: C_7  and  N_8
REMARK    6  A    between atoms: C_9  and  C_10
REMARK    7  A    between atoms: C_13  and  C_14
REMARK    8  A    between atoms: C_16  and  C_17
REMARK                            x       y       z     vdW  Elec       q    Type
REMARK                         _______ _______ _______ _____ _____    ______ ____
ROOT
ATOM      1  N   UNL     1      -0.616  11.575  20.779  0.00  0.00    +0.000 N 
ATOM      2  C   UNL     1      -0.531  11.564  22.154  0.00  0.00    +0.000 A 
ATOM      3  C   UNL     1      -1.169  12.665  22.971  0.00  0.00    +0.000 C 
ATOM      4  N   UNL     1       0.048  10.617  22.825  0.00  0.00    +0.000 NA
ATOM      5  C   UNL     1       0.649   9.605  22.123  0.00  0.00    +0.000 A 
ATOM      6  C   UNL     1       0.575   9.445  20.793  0.00  0.00    +0.000 A 
ATOM      7  C   UNL     1      -0.290  10.419  20.089  0.00  0.00    +0.000 A 
ATOM      8  O   UNL     1      -0.743  10.167  18.968  0.00  0.00    +0.000 OA
ENDROOT
BRANCH   6   9
ATOM      9  C   UNL     1       1.275   8.398  20.129  0.00  0.00    +0.000 A 
ATOM     10  N   UNL     1       1.510   7.182  20.598  0.00  0.00    +0.000 NA
ATOM     11  C   UNL     1       2.309   6.450  19.732  0.00  0.00    +0.000 A 
ATOM     12  C   UNL     1       2.660   7.109  18.574  0.00  0.00    +0.000 A 
ATOM     13  S   UNL     1       2.026   8.690  18.585  0.00  0.00    +0.000 S 
BRANCH  11  14
ATOM     14  C   UNL     1       2.752   5.102  20.064  0.00  0.00    +0.000 A 
ATOM     15  C   UNL     1       3.837   4.539  19.379  0.00  0.00    +0.000 A 
ATOM     16  C   UNL     1       4.237   3.228  19.641  0.00  0.00    +0.000 A 
ATOM     17  C   UNL     1       3.556   2.465  20.588  0.00  0.00    +0.000 A 
ATOM     18  C   UNL     1       2.482   3.018  21.283  0.00  0.00    +0.000 A 
ATOM     19  C   UNL     1       2.082   4.330  21.025  0.00  0.00    +0.000 A 
ENDBRANCH  11  14
ENDBRANCH   6   9
BRANCH   1  20
ATOM     20  C   UNL     1      -1.249  12.637  19.987  0.00  0.00    +0.000 C 
BRANCH  20  22
ATOM     21  N   UNL     1      -3.145  12.001  18.562  0.00  0.00    +0.000 N 
ATOM     22  C   UNL     1      -2.766  12.444  19.820  0.00  0.00    +0.000 C 
ATOM     23  O   UNL     1      -3.560  12.570  20.748  0.00  0.00    +0.000 OA
ATOM     24  H   UNL     1      -2.496  12.080  17.788  0.00  0.00    +0.000 HD
BRANCH  21  25
ATOM     25  C   UNL     1      -4.513  11.615  18.258  0.00  0.00    +0.000 C 
BRANCH  25  27
ATOM     26  C   UNL     1      -3.760  10.972  15.948  0.00  0.00    +0.000 C 
ATOM     27  C   UNL     1      -4.823  11.690  16.768  0.00  0.00    +0.000 C 
ENDBRANCH  25  27
ENDBRANCH  21  25
ENDBRANCH  20  22
ENDBRANCH   1  20
TORSDOF 6
ENDMDL
