MODEL 1
REMARK VINA RESULT:      -7.0      0.000      0.000
REMARK  Name = 
REMARK  3 active torsions:
REMARK  status: ('A' for Active; 'I' for Inactive)
REMARK    1  A    between atoms: C_1  and  O_2
REMARK    2  A    between atoms: O_2  and  C_3
REMARK    3  A    between atoms: C_6  and  C_7
REMARK                            x       y       z     vdW  Elec       q    Type
REMARK                         _______ _______ _______ _____ _____    ______ ____
ROOT
ATOM      1  C   UNL     1       3.950   5.819  18.879  0.00  0.00    +0.000 C 
ATOM      2  C   UNL     1       3.009   4.948  19.295  0.00  0.00    +0.000 C 
ATOM      3  C   UNL     1       2.670   3.588  18.799  0.00  0.00    +0.000 C 
ATOM      4  S   UNL     1       3.084   2.402  20.088  0.00  0.00    +0.000 S 
ATOM      5  C   UNL     1       2.085   3.061  21.356  0.00  0.00    +0.000 C 
ATOM      6  O   UNL     1       1.580   2.334  22.205  0.00  0.00    +0.000 OA
ATOM      7  N   UNL     1       1.870   4.418  21.362  0.00  0.00    +0.000 N 
ATOM      8  C   UNL     1       2.169   5.385  20.435  0.00  0.00    +0.000 C 
ATOM      9  O   UNL     1       1.727   6.527  20.531  0.00  0.00    +0.000 OA
ATOM     10  H   UNL     1       1.285   4.735  22.121  0.00  0.00    +0.000 HD
ENDROOT
BRANCH   1  14
ATOM     11  C   UNL     1       6.896   5.307  15.800  0.00  0.00    +0.000 A 
ATOM     12  C   UNL     1       5.658   5.888  15.522  0.00  0.00    +0.000 A 
ATOM     13  C   UNL     1       4.699   6.045  16.530  0.00  0.00    +0.000 A 
ATOM     14  C   UNL     1       4.962   5.608  17.833  0.00  0.00    +0.000 A 
ATOM     15  C   UNL     1       6.223   5.069  18.111  0.00  0.00    +0.000 A 
ATOM     16  C   UNL     1       7.171   4.891  17.099  0.00  0.00    +0.000 A 
BRANCH  11  18
ATOM     17  C   UNL     1       7.155   4.777  13.508  0.00  0.00    +0.000 C 
ATOM     18  O   UNL     1       7.745   5.194  14.734  0.00  0.00    +0.000 OA
ENDBRANCH  11  18
ENDBRANCH   1  14
TORSDOF 2
ENDMDL
MODEL 2
REMARK VINA RESULT:      -6.9      1.998      2.470
REMARK  Name = 
REMARK  3 active torsions:
REMARK  status: ('A' for Active; 'I' for Inactive)
REMARK    1  A    between atoms: C_1  and  O_2
REMARK    2  A    between atoms: O_2  and  C_3
REMARK    3  A    between atoms: C_6  and  C_7
REMARK                            x       y       z     vdW  Elec       q    Type
REMARK                         _______ _______ _______ _____ _____    ______ ____
ROOT
ATOM      1  C   UNL     1       2.586   4.029  17.726  0.00  0.00    +0.000 C 
ATOM      2  C   UNL     1       2.407   3.163  18.743  0.00  0.00    +0.000 C 
ATOM      3  C   UNL     1       3.392   2.567  19.684  0.00  0.00    +0.000 C 
ATOM      4  S   UNL     1       3.052   3.209  21.331  0.00  0.00    +0.000 S 
ATOM      5  C   UNL     1       1.397   2.675  21.464  0.00  0.00    +0.000 C 
ATOM      6  O   UNL     1       0.921   2.360  22.549  0.00  0.00    +0.000 OA
ATOM      7  N   UNL     1       0.653   2.603  20.312  0.00  0.00    +0.000 N 
ATOM      8  C   UNL     1       1.014   2.724  18.993  0.00  0.00    +0.000 C 
ATOM      9  O   UNL     1       0.238   2.439  18.085  0.00  0.00    +0.000 OA
ATOM     10  H   UNL     1      -0.295   2.289  20.458  0.00  0.00    +0.000 HD
ENDROOT
BRANCH   1  14
ATOM     11  C   UNL     1       6.266   5.951  16.637  0.00  0.00    +0.000 A 
ATOM     12  C   UNL     1       5.348   6.580  17.480  0.00  0.00    +0.000 A 
ATOM     13  C   UNL     1       4.147   5.949  17.824  0.00  0.00    +0.000 A 
ATOM     14  C   UNL     1       3.840   4.682  17.318  0.00  0.00    +0.000 A 
ATOM     15  C   UNL     1       4.787   4.042  16.511  0.00  0.00    +0.000 A 
ATOM     16  C   UNL     1       5.976   4.681  16.147  0.00  0.00    +0.000 A 
BRANCH  11  18
ATOM     17  C   UNL     1       7.753   7.664  17.312  0.00  0.00    +0.000 C 
ATOM     18  O   UNL     1       7.396   6.669  16.359  0.00  0.00    +0.000 OA
ENDBRANCH  11  18
ENDBRANCH   1  14
TORSDOF 2
ENDMDL
MODEL 3
REMARK VINA RESULT:      -6.9      2.577      3.369
REMARK  Name = 
REMARK  3 active torsions:
REMARK  status: ('A' for Active; 'I' for Inactive)
REMARK    1  A    between atoms: C_1  and  O_2
REMARK    2  A    between atoms: O_2  and  C_3
REMARK    3  A    between atoms: C_6  and  C_7
REMARK                            x       y       z     vdW  Elec       q    Type
REMARK                         _______ _______ _______ _____ _____    ______ ____
ROOT
ATOM      1  C   UNL     1       5.208   4.023  19.236  0.00  0.00    +0.000 C 
ATOM      2  C   UNL     1       3.886   3.888  19.461  0.00  0.00    +0.000 C 
ATOM      3  C   UNL     1       2.774   4.858  19.276  0.00  0.00    +0.000 C 
ATOM      4  S   UNL     1       1.719   4.254  17.949  0.00  0.00    +0.000 S 
ATOM      5  C   UNL     1       1.319   2.704  18.643  0.00  0.00    +0.000 C 
ATOM      6  O   UNL     1       0.231   2.179  18.430  0.00  0.00    +0.000 OA
ATOM      7  N   UNL     1       2.256   2.101  19.446  0.00  0.00    +0.000 N 
ATOM      8  C   UNL     1       3.438   2.568  19.964  0.00  0.00    +0.000 C 
ATOM      9  O   UNL     1       4.055   1.944  20.822  0.00  0.00    +0.000 OA
ATOM     10  H   UNL     1       1.963   1.207  19.814  0.00  0.00    +0.000 HD
ENDROOT
BRANCH   1  14
ATOM     11  C   UNL     1       7.323   7.360  17.559  0.00  0.00    +0.000 A 
ATOM     12  C   UNL     1       7.852   6.638  18.629  0.00  0.00    +0.000 A 
ATOM     13  C   UNL     1       7.153   5.555  19.175  0.00  0.00    +0.000 A 
ATOM     14  C   UNL     1       5.903   5.187  18.665  0.00  0.00    +0.000 A 
ATOM     15  C   UNL     1       5.403   5.890  17.563  0.00  0.00    +0.000 A 
ATOM     16  C   UNL     1       6.090   6.986  17.032  0.00  0.00    +0.000 A 
BRANCH  11  18
ATOM     17  C   UNL     1       8.369   9.419  18.076  0.00  0.00    +0.000 C 
ATOM     18  O   UNL     1       8.088   8.404  17.119  0.00  0.00    +0.000 OA
ENDBRANCH  11  18
ENDBRANCH   1  14
TORSDOF 2
ENDMDL
MODEL 4
REMARK VINA RESULT:      -6.8      1.077      1.080
REMARK  Name = 
REMARK  3 active torsions:
REMARK  status: ('A' for Active; 'I' for Inactive)
REMARK    1  A    between atoms: C_1  and  O_2
REMARK    2  A    between atoms: O_2  and  C_3
REMARK    3  A    between atoms: C_6  and  C_7
REMARK                            x       y       z     vdW  Elec       q    Type
REMARK                         _______ _______ _______ _____ _____    ______ ____
ROOT
ATOM      1  C   UNL     1       3.745   5.640  18.361  0.00  0.00    +0.000 C 
ATOM      2  C   UNL     1       2.740   4.949  18.935  0.00  0.00    +0.000 C 
ATOM      3  C   UNL     1       2.074   3.690  18.510  0.00  0.00    +0.000 C 
ATOM      4  S   UNL     1       2.468   2.413  19.717  0.00  0.00    +0.000 S 
ATOM      5  C   UNL     1       1.836   3.213  21.132  0.00  0.00    +0.000 C 
ATOM      6  O   UNL     1       1.353   2.570  22.057  0.00  0.00    +0.000 OA
ATOM      7  N   UNL     1       1.883   4.585  21.167  0.00  0.00    +0.000 N 
ATOM      8  C   UNL     1       2.200   5.504  20.198  0.00  0.00    +0.000 C 
ATOM      9  O   UNL     1       2.002   6.705  20.361  0.00  0.00    +0.000 OA
ATOM     10  H   UNL     1       1.504   4.985  22.013  0.00  0.00    +0.000 HD
ENDROOT
BRANCH   1  14
ATOM     11  C   UNL     1       6.046   4.649  14.876  0.00  0.00    +0.000 A 
ATOM     12  C   UNL     1       5.596   5.951  15.094  0.00  0.00    +0.000 A 
ATOM     13  C   UNL     1       4.839   6.265  16.229  0.00  0.00    +0.000 A 
ATOM     14  C   UNL     1       4.511   5.273  17.159  0.00  0.00    +0.000 A 
ATOM     15  C   UNL     1       5.006   3.981  16.955  0.00  0.00    +0.000 A 
ATOM     16  C   UNL     1       5.741   3.662  15.809  0.00  0.00    +0.000 A 
BRANCH  11  18
ATOM     17  C   UNL     1       6.179   3.590  12.764  0.00  0.00    +0.000 C 
ATOM     18  O   UNL     1       6.763   4.459  13.728  0.00  0.00    +0.000 OA
ENDBRANCH  11  18
ENDBRANCH   1  14
TORSDOF 2
ENDMDL
MODEL 5
REMARK VINA RESULT:      -6.8      3.542      6.199
REMARK  Name = 
REMARK  3 active torsions:
REMARK  status: ('A' for Active; 'I' for Inactive)
REMARK    1  A    between atoms: C_1  and  O_2
REMARK    2  A    between atoms: O_2  and  C_3
REMARK    3  A    between atoms: C_6  and  C_7
REMARK                            x       y       z     vdW  Elec       q    Type
REMARK                         _______ _______ _______ _____ _____    ______ ____
ROOT
ATOM      1  C   UNL     1       3.360   5.848  19.386  0.00  0.00    +0.000 C 
ATOM      2  C   UNL     1       4.172   5.271  18.478  0.00  0.00    +0.000 C 
ATOM      3  C   UNL     1       4.448   5.638  17.064  0.00  0.00    +0.000 C 
ATOM      4  S   UNL     1       6.161   6.179  16.951  0.00  0.00    +0.000 S 
ATOM      5  C   UNL     1       6.916   4.730  17.562  0.00  0.00    +0.000 C 
ATOM      6  O   UNL     1       8.021   4.379  17.164  0.00  0.00    +0.000 OA
ATOM      7  N   UNL     1       6.224   3.990  18.490  0.00  0.00    +0.000 N 
ATOM      8  C   UNL     1       4.930   4.083  18.937  0.00  0.00    +0.000 C 
ATOM      9  O   UNL     1       4.427   3.208  19.637  0.00  0.00    +0.000 OA
ATOM     10  H   UNL     1       6.716   3.166  18.803  0.00  0.00    +0.000 HD
ENDROOT
BRANCH   1  14
ATOM     11  C   UNL     1       1.090   9.468  18.992  0.00  0.00    +0.000 A 
ATOM     12  C   UNL     1       1.160   8.794  20.211  0.00  0.00    +0.000 A 
ATOM     13  C   UNL     1       1.897   7.609  20.330  0.00  0.00    +0.000 A 
ATOM     14  C   UNL     1       2.565   7.075  19.223  0.00  0.00    +0.000 A 
ATOM     15  C   UNL     1       2.525   7.784  18.017  0.00  0.00    +0.000 A 
ATOM     16  C   UNL     1       1.770   8.954  17.892  0.00  0.00    +0.000 A 
BRANCH  11  18
ATOM     17  C   UNL     1      -0.896  10.538  18.273  0.00  0.00    +0.000 C 
ATOM     18  O   UNL     1       0.330  10.605  18.993  0.00  0.00    +0.000 OA
ENDBRANCH  11  18
ENDBRANCH   1  14
TORSDOF 2
ENDMDL
MODEL 6
REMARK VINA RESULT:      -6.7      1.037      1.386
REMARK  Name = 
REMARK  3 active torsions:
REMARK  status: ('A' for Active; 'I' for Inactive)
REMARK    1  A    between atoms: C_1  and  O_2
REMARK    2  A    between atoms: O_2  and  C_3
REMARK    3  A    between atoms: C_6  and  C_7
REMARK                            x       y       z     vdW  Elec       q    Type
REMARK                         _______ _______ _______ _____ _____    ______ ____
ROOT
ATOM      1  C   UNL     1       3.711   5.747  18.455  0.00  0.00    +0.000 C 
ATOM      2  C   UNL     1       2.740   4.992  19.006  0.00  0.00    +0.000 C 
ATOM      3  C   UNL     1       2.156   3.700  18.558  0.00  0.00    +0.000 C 
ATOM      4  S   UNL     1       2.605   2.437  19.759  0.00  0.00    +0.000 S 
ATOM      5  C   UNL     1       1.905   3.183  21.171  0.00  0.00    +0.000 C 
ATOM      6  O   UNL     1       1.446   2.503  22.083  0.00  0.00    +0.000 OA
ATOM      7  N   UNL     1       1.871   4.555  21.220  0.00  0.00    +0.000 N 
ATOM      8  C   UNL     1       2.148   5.501  20.265  0.00  0.00    +0.000 C 
ATOM      9  O   UNL     1       1.877   6.686  20.436  0.00  0.00    +0.000 OA
ATOM     10  H   UNL     1       1.454   4.923  22.063  0.00  0.00    +0.000 HD
ENDROOT
BRANCH   1  14
ATOM     11  C   UNL     1       5.994   4.767  14.955  0.00  0.00    +0.000 A 
ATOM     12  C   UNL     1       5.668   3.791  15.897  0.00  0.00    +0.000 A 
ATOM     13  C   UNL     1       4.929   4.120  17.040  0.00  0.00    +0.000 A 
ATOM     14  C   UNL     1       4.516   5.438  17.263  0.00  0.00    +0.000 A 
ATOM     15  C   UNL     1       4.809   6.400  16.290  0.00  0.00    +0.000 A 
ATOM     16  C   UNL     1       5.567   6.076  15.160  0.00  0.00    +0.000 A 
BRANCH  11  18
ATOM     17  C   UNL     1       6.018   3.600  12.896  0.00  0.00    +0.000 C 
ATOM     18  O   UNL     1       6.730   4.332  13.888  0.00  0.00    +0.000 OA
ENDBRANCH  11  18
ENDBRANCH   1  14
TORSDOF 2
ENDMDL
MODEL 7
REMARK VINA RESULT:      -6.7      3.565      6.138
REMARK  Name = 
REMARK  3 active torsions:
REMARK  status: ('A' for Active; 'I' for Inactive)
REMARK    1  A    between atoms: C_1  and  O_2
REMARK    2  A    between atoms: O_2  and  C_3
REMARK    3  A    between atoms: C_6  and  C_7
REMARK                            x       y       z     vdW  Elec       q    Type
REMARK                         _______ _______ _______ _____ _____    ______ ____
ROOT
ATOM      1  C   UNL     1       3.297   5.827  19.330  0.00  0.00    +0.000 C 
ATOM      2  C   UNL     1       4.145   5.308  18.421  0.00  0.00    +0.000 C 
ATOM      3  C   UNL     1       4.533   5.803  17.074  0.00  0.00    +0.000 C 
ATOM      4  S   UNL     1       6.269   6.273  17.129  0.00  0.00    +0.000 S 
ATOM      5  C   UNL     1       6.922   4.736  17.632  0.00  0.00    +0.000 C 
ATOM      6  O   UNL     1       8.037   4.376  17.272  0.00  0.00    +0.000 OA
ATOM      7  N   UNL     1       6.140   3.939  18.431  0.00  0.00    +0.000 N 
ATOM      8  C   UNL     1       4.822   4.046  18.802  0.00  0.00    +0.000 C 
ATOM      9  O   UNL     1       4.238   3.129  19.373  0.00  0.00    +0.000 OA
ATOM     10  H   UNL     1       6.576   3.066  18.688  0.00  0.00    +0.000 HD
ENDROOT
BRANCH   1  14
ATOM     11  C   UNL     1       1.104   9.501  18.997  0.00  0.00    +0.000 A 
ATOM     12  C   UNL     1       1.758   8.952  17.894  0.00  0.00    +0.000 A 
ATOM     13  C   UNL     1       2.477   7.757  18.012  0.00  0.00    +0.000 A 
ATOM     14  C   UNL     1       2.563   7.100  19.244  0.00  0.00    +0.000 A 
ATOM     15  C   UNL     1       1.866   7.635  20.333  0.00  0.00    +0.000 A 
ATOM     16  C   UNL     1       1.168   8.841  20.220  0.00  0.00    +0.000 A 
BRANCH  11  18
ATOM     17  C   UNL     1      -0.898  10.561  18.310  0.00  0.00    +0.000 C 
ATOM     18  O   UNL     1       0.446  10.677  18.764  0.00  0.00    +0.000 OA
ENDBRANCH  11  18
ENDBRANCH   1  14
TORSDOF 2
ENDMDL
MODEL 8
REMARK VINA RESULT:      -6.7      3.514      6.405
REMARK  Name = 
REMARK  3 active torsions:
REMARK  status: ('A' for Active; 'I' for Inactive)
REMARK    1  A    between atoms: C_1  and  O_2
REMARK    2  A    between atoms: O_2  and  C_3
REMARK    3  A    between atoms: C_6  and  C_7
REMARK                            x       y       z     vdW  Elec       q    Type
REMARK                         _______ _______ _______ _____ _____    ______ ____
ROOT
ATOM      1  C   UNL     1       3.629   5.873  17.448  0.00  0.00    +0.000 C 
ATOM      2  C   UNL     1       4.947   5.807  17.175  0.00  0.00    +0.000 C 
ATOM      3  C   UNL     1       6.043   6.762  17.486  0.00  0.00    +0.000 C 
ATOM      4  S   UNL     1       7.145   5.982  18.676  0.00  0.00    +0.000 S 
ATOM      5  C   UNL     1       7.559   4.572  17.737  0.00  0.00    +0.000 C 
ATOM      6  O   UNL     1       8.662   4.047  17.839  0.00  0.00    +0.000 OA
ATOM      7  N   UNL     1       6.614   4.080  16.869  0.00  0.00    +0.000 N 
ATOM      8  C   UNL     1       5.409   4.595  16.459  0.00  0.00    +0.000 C 
ATOM      9  O   UNL     1       4.782   4.099  15.526  0.00  0.00    +0.000 OA
ATOM     10  H   UNL     1       6.915   3.264  16.358  0.00  0.00    +0.000 HD
ENDROOT
BRANCH   1  14
ATOM     11  C   UNL     1       1.504   8.918  19.600  0.00  0.00    +0.000 A 
ATOM     12  C   UNL     1       1.875   9.105  18.268  0.00  0.00    +0.000 A 
ATOM     13  C   UNL     1       2.575   8.110  17.575  0.00  0.00    +0.000 A 
ATOM     14  C   UNL     1       2.926   6.915  18.212  0.00  0.00    +0.000 A 
ATOM     15  C   UNL     1       2.509   6.720  19.534  0.00  0.00    +0.000 A 
ATOM     16  C   UNL     1       1.831   7.723  20.233  0.00  0.00    +0.000 A 
BRANCH  11  18
ATOM     17  C   UNL     1      -0.296   9.622  20.966  0.00  0.00    +0.000 C 
ATOM     18  O   UNL     1       0.838   9.964  20.177  0.00  0.00    +0.000 OA
ENDBRANCH  11  18
ENDBRANCH   1  14
TORSDOF 2
ENDMDL
MODEL 9
REMARK VINA RESULT:      -6.7      3.604      6.363
REMARK  Name = 
REMARK  3 active torsions:
REMARK  status: ('A' for Active; 'I' for Inactive)
REMARK    1  A    between atoms: C_1  and  O_2
REMARK    2  A    between atoms: O_2  and  C_3
REMARK    3  A    between atoms: C_6  and  C_7
REMARK                            x       y       z     vdW  Elec       q    Type
REMARK                         _______ _______ _______ _____ _____    ______ ____
ROOT
ATOM      1  C   UNL     1       3.042   5.676  18.267  0.00  0.00    +0.000 C 
ATOM      2  C   UNL     1       4.130   5.468  17.499  0.00  0.00    +0.000 C 
ATOM      3  C   UNL     1       5.009   6.437  16.793  0.00  0.00    +0.000 C 
ATOM      4  S   UNL     1       6.632   6.388  17.570  0.00  0.00    +0.000 S 
ATOM      5  C   UNL     1       6.964   4.692  17.336  0.00  0.00    +0.000 C 
ATOM      6  O   UNL     1       8.110   4.291  17.165  0.00  0.00    +0.000 OA
ATOM      7  N   UNL     1       5.898   3.826  17.333  0.00  0.00    +0.000 N 
ATOM      8  C   UNL     1       4.545   4.056  17.320  0.00  0.00    +0.000 C 
ATOM      9  O   UNL     1       3.740   3.150  17.126  0.00  0.00    +0.000 OA
ATOM     10  H   UNL     1       6.158   2.860  17.194  0.00  0.00    +0.000 HD
ENDROOT
BRANCH   1  14
ATOM     11  C   UNL     1       1.294   9.436  19.375  0.00  0.00    +0.000 A 
ATOM     12  C   UNL     1       1.635   9.164  18.049  0.00  0.00    +0.000 A 
ATOM     13  C   UNL     1       2.212   7.938  17.697  0.00  0.00    +0.000 A 
ATOM     14  C   UNL     1       2.468   6.969  18.672  0.00  0.00    +0.000 A 
ATOM     15  C   UNL     1       2.081   7.234  19.991  0.00  0.00    +0.000 A 
ATOM     16  C   UNL     1       1.527   8.467  20.346  0.00  0.00    +0.000 A 
BRANCH  11  18
ATOM     17  C   UNL     1      -0.230  10.742  20.628  0.00  0.00    +0.000 C 
ATOM     18  O   UNL     1       0.751  10.671  19.600  0.00  0.00    +0.000 OA
ENDBRANCH  11  18
ENDBRANCH   1  14
TORSDOF 2
ENDMDL
