MODEL 1
REMARK VINA RESULT:      -8.4      0.000      0.000
REMARK  Name = 
REMARK  6 active torsions:
REMARK  status: ('A' for Active; 'I' for Inactive)
REMARK    1  A    between atoms: C_1  and  C_2
REMARK    2  A    between atoms: C_5  and  N_6
REMARK    3  A    between atoms: C_10  and  C_11
REMARK    4  A    between atoms: C_11  and  N_12
REMARK    5  A    between atoms: C_13  and  C_15
REMARK    6  A    between atoms: C_25  and  C_26
REMARK                            x       y       z     vdW  Elec       q    Type
REMARK                         _______ _______ _______ _____ _____    ______ ____
ROOT
ATOM      1  C   UNL     1       4.808   6.642  16.805  0.00  0.00    +0.000 C 
ENDROOT
BRANCH   1   6
ATOM      2  N   UNL     1       5.642   4.862  18.419  0.00  0.00    +0.000 N 
ATOM      3  N   UNL     1       6.725   4.736  19.218  0.00  0.00    +0.000 NA
ATOM      4  N   UNL     1       7.630   5.572  18.736  0.00  0.00    +0.000 NA
ATOM      5  N   UNL     1       7.119   6.312  17.703  0.00  0.00    +0.000 NA
ATOM      6  C   UNL     1       5.870   5.914  17.545  0.00  0.00    +0.000 A 
BRANCH   2  11
ATOM      7  C   UNL     1       0.681   2.090  18.892  0.00  0.00    +0.000 C 
ATOM      8  C   UNL     1       2.028   2.756  18.834  0.00  0.00    +0.000 A 
ATOM      9  C   UNL     1       2.825   2.573  17.696  0.00  0.00    +0.000 A 
ATOM     10  C   UNL     1       4.044   3.234  17.569  0.00  0.00    +0.000 A 
ATOM     11  C   UNL     1       4.487   4.072  18.594  0.00  0.00    +0.000 A 
ATOM     12  C   UNL     1       3.754   4.182  19.781  0.00  0.00    +0.000 A 
ATOM     13  C   UNL     1       2.502   3.557  19.894  0.00  0.00    +0.000 A 
ATOM     14  C   UNL     1       1.659   3.814  21.115  0.00  0.00    +0.000 C 
ENDBRANCH   2  11
ENDBRANCH   1   6
BRANCH   1  15
ATOM     15  N   UNL     1       4.046   7.508  17.681  0.00  0.00    +0.000 N 
ATOM     16  C   UNL     1       2.754   7.156  18.032  0.00  0.00    +0.000 C 
ATOM     17  O   UNL     1       2.170   6.204  17.535  0.00  0.00    +0.000 OA
ATOM     18  H   UNL     1       4.526   8.263  18.151  0.00  0.00    +0.000 HD
BRANCH  16  19
ATOM     19  C   UNL     1       2.054   8.010  19.032  0.00  0.00    +0.000 A 
ATOM     20  C   UNL     1       1.859   7.605  20.370  0.00  0.00    +0.000 A 
ATOM     21  C   UNL     1       1.140   8.415  21.260  0.00  0.00    +0.000 A 
ATOM     22  C   UNL     1       0.632   9.605  20.785  0.00  0.00    +0.000 A 
ATOM     23  C   UNL     1       0.826  10.007  19.485  0.00  0.00    +0.000 A 
ATOM     24  C   UNL     1       1.530   9.235  18.585  0.00  0.00    +0.000 A 
ATOM     25  O   UNL     1       0.240  11.206  19.222  0.00  0.00    +0.000 OA
ATOM     26  C   UNL     1      -0.377  11.496  20.494  0.00  0.00    +0.000 C 
ATOM     27  O   UNL     1      -0.110  10.494  21.499  0.00  0.00    +0.000 OA
ENDBRANCH  16  19
ENDBRANCH   1  15
TORSDOF 4
ENDMDL
MODEL 2
REMARK VINA RESULT:      -8.3      0.643      1.359
REMARK  Name = 
REMARK  6 active torsions:
REMARK  status: ('A' for Active; 'I' for Inactive)
REMARK    1  A    between atoms: C_1  and  C_2
REMARK    2  A    between atoms: C_5  and  N_6
REMARK    3  A    between atoms: C_10  and  C_11
REMARK    4  A    between atoms: C_11  and  N_12
REMARK    5  A    between atoms: C_13  and  C_15
REMARK    6  A    between atoms: C_25  and  C_26
REMARK                            x       y       z     vdW  Elec       q    Type
REMARK                         _______ _______ _______ _____ _____    ______ ____
ROOT
ATOM      1  C   UNL     1       4.913   6.602  16.857  0.00  0.00    +0.000 C 
ENDROOT
BRANCH   1   6
ATOM      2  N   UNL     1       5.613   4.991  18.697  0.00  0.00    +0.000 N 
ATOM      3  N   UNL     1       6.593   4.980  19.628  0.00  0.00    +0.000 NA
ATOM      4  N   UNL     1       7.517   5.822  19.191  0.00  0.00    +0.000 NA
ATOM      5  N   UNL     1       7.108   6.455  18.049  0.00  0.00    +0.000 NA
ATOM      6  C   UNL     1       5.904   5.986  17.775  0.00  0.00    +0.000 A 
BRANCH   2  11
ATOM      7  C   UNL     1       0.741   2.031  18.817  0.00  0.00    +0.000 C 
ATOM      8  C   UNL     1       2.061   2.751  18.858  0.00  0.00    +0.000 A 
ATOM      9  C   UNL     1       2.973   2.555  17.812  0.00  0.00    +0.000 A 
ATOM     10  C   UNL     1       4.171   3.262  17.773  0.00  0.00    +0.000 A 
ATOM     11  C   UNL     1       4.479   4.160  18.796  0.00  0.00    +0.000 A 
ATOM     12  C   UNL     1       3.628   4.289  19.901  0.00  0.00    +0.000 A 
ATOM     13  C   UNL     1       2.396   3.616  19.921  0.00  0.00    +0.000 A 
ATOM     14  C   UNL     1       1.428   3.888  21.041  0.00  0.00    +0.000 C 
ENDBRANCH   2  11
ENDBRANCH   1   6
BRANCH   1  15
ATOM     15  N   UNL     1       4.089   7.578  17.541  0.00  0.00    +0.000 N 
ATOM     16  C   UNL     1       2.793   7.245  17.897  0.00  0.00    +0.000 C 
ATOM     17  O   UNL     1       2.259   6.201  17.550  0.00  0.00    +0.000 OA
ATOM     18  H   UNL     1       4.526   8.419  17.891  0.00  0.00    +0.000 HD
BRANCH  16  19
ATOM     19  C   UNL     1       2.025   8.232  18.707  0.00  0.00    +0.000 A 
ATOM     20  C   UNL     1       1.608   9.476  18.187  0.00  0.00    +0.000 A 
ATOM     21  C   UNL     1       0.941  10.400  19.004  0.00  0.00    +0.000 A 
ATOM     22  C   UNL     1       0.716  10.055  20.319  0.00  0.00    +0.000 A 
ATOM     23  C   UNL     1       1.116   8.843  20.828  0.00  0.00    +0.000 A 
ATOM     24  C   UNL     1       1.771   7.911  20.051  0.00  0.00    +0.000 A 
ATOM     25  O   UNL     1       0.802   8.706  22.145  0.00  0.00    +0.000 OA
ATOM     26  C   UNL     1       0.194   9.986  22.417  0.00  0.00    +0.000 C 
ATOM     27  O   UNL     1       0.114  10.838  21.255  0.00  0.00    +0.000 OA
ENDBRANCH  16  19
ENDBRANCH   1  15
TORSDOF 4
ENDMDL
MODEL 3
REMARK VINA RESULT:      -8.1      2.396      4.095
REMARK  Name = 
REMARK  6 active torsions:
REMARK  status: ('A' for Active; 'I' for Inactive)
REMARK    1  A    between atoms: C_1  and  C_2
REMARK    2  A    between atoms: C_5  and  N_6
REMARK    3  A    between atoms: C_10  and  C_11
REMARK    4  A    between atoms: C_11  and  N_12
REMARK    5  A    between atoms: C_13  and  C_15
REMARK    6  A    between atoms: C_25  and  C_26
REMARK                            x       y       z     vdW  Elec       q    Type
REMARK                         _______ _______ _______ _____ _____    ______ ____
ROOT
ATOM      1  C   UNL     1       4.410   4.575  18.611  0.00  0.00    +0.000 C 
ENDROOT
BRANCH   1   6
ATOM      2  N   UNL     1       6.744   4.790  17.624  0.00  0.00    +0.000 N 
ATOM      3  N   UNL     1       7.996   4.789  18.136  0.00  0.00    +0.000 NA
ATOM      4  N   UNL     1       7.862   5.084  19.419  0.00  0.00    +0.000 NA
ATOM      5  N   UNL     1       6.543   5.174  19.771  0.00  0.00    +0.000 NA
ATOM      6  C   UNL     1       5.849   4.934  18.674  0.00  0.00    +0.000 A 
BRANCH   2  11
ATOM      7  C   UNL     1       6.112   3.486  12.109  0.00  0.00    +0.000 C 
ATOM      8  C   UNL     1       6.236   3.920  13.544  0.00  0.00    +0.000 A 
ATOM      9  C   UNL     1       5.386   3.347  14.500  0.00  0.00    +0.000 A 
ATOM     10  C   UNL     1       5.520   3.661  15.850  0.00  0.00    +0.000 A 
ATOM     11  C   UNL     1       6.496   4.573  16.254  0.00  0.00    +0.000 A 
ATOM     12  C   UNL     1       7.282   5.234  15.301  0.00  0.00    +0.000 A 
ATOM     13  C   UNL     1       7.185   4.883  13.945  0.00  0.00    +0.000 A 
ATOM     14  C   UNL     1       8.145   5.491  12.958  0.00  0.00    +0.000 C 
ENDBRANCH   2  11
ENDBRANCH   1   6
BRANCH   1  15
ATOM     15  N   UNL     1       3.568   5.669  19.049  0.00  0.00    +0.000 N 
ATOM     16  C   UNL     1       3.348   6.741  18.201  0.00  0.00    +0.000 C 
ATOM     17  O   UNL     1       3.935   6.874  17.137  0.00  0.00    +0.000 OA
ATOM     18  H   UNL     1       3.026   5.554  19.894  0.00  0.00    +0.000 HD
BRANCH  16  19
ATOM     19  C   UNL     1       2.378   7.783  18.643  0.00  0.00    +0.000 A 
ATOM     20  C   UNL     1       1.883   8.775  17.770  0.00  0.00    +0.000 A 
ATOM     21  C   UNL     1       1.019   9.772  18.245  0.00  0.00    +0.000 A 
ATOM     22  C   UNL     1       0.681   9.752  19.581  0.00  0.00    +0.000 A 
ATOM     23  C   UNL     1       1.156   8.784  20.433  0.00  0.00    +0.000 A 
ATOM     24  C   UNL     1       2.005   7.788  19.998  0.00  0.00    +0.000 A 
ATOM     25  O   UNL     1       0.706   8.949  21.706  0.00  0.00    +0.000 OA
ATOM     26  C   UNL     1      -0.076  10.154  21.567  0.00  0.00    +0.000 C 
ATOM     27  O   UNL     1      -0.117  10.655  20.213  0.00  0.00    +0.000 OA
ENDBRANCH  16  19
ENDBRANCH   1  15
TORSDOF 4
ENDMDL
MODEL 4
REMARK VINA RESULT:      -7.9      2.191      3.723
REMARK  Name = 
REMARK  6 active torsions:
REMARK  status: ('A' for Active; 'I' for Inactive)
REMARK    1  A    between atoms: C_1  and  C_2
REMARK    2  A    between atoms: C_5  and  N_6
REMARK    3  A    between atoms: C_10  and  C_11
REMARK    4  A    between atoms: C_11  and  N_12
REMARK    5  A    between atoms: C_13  and  C_15
REMARK    6  A    between atoms: C_25  and  C_26
REMARK                            x       y       z     vdW  Elec       q    Type
REMARK                         _______ _______ _______ _____ _____    ______ ____
ROOT
ATOM      1  C   UNL     1       4.620   4.927  19.059  0.00  0.00    +0.000 C 
ENDROOT
BRANCH   1   6
ATOM      2  N   UNL     1       6.868   4.881  17.868  0.00  0.00    +0.000 N 
ATOM      3  N   UNL     1       8.154   4.770  18.270  0.00  0.00    +0.000 NA
ATOM      4  N   UNL     1       8.164   5.114  19.549  0.00  0.00    +0.000 NA
ATOM      5  N   UNL     1       6.896   5.345  20.009  0.00  0.00    +0.000 NA
ATOM      6  C   UNL     1       6.088   5.143  18.985  0.00  0.00    +0.000 A 
BRANCH   2  11
ATOM      7  C   UNL     1       5.631   3.492  12.478  0.00  0.00    +0.000 C 
ATOM      8  C   UNL     1       5.920   3.951  13.881  0.00  0.00    +0.000 A 
ATOM      9  C   UNL     1       5.116   3.477  14.927  0.00  0.00    +0.000 A 
ATOM     10  C   UNL     1       5.398   3.814  16.248  0.00  0.00    +0.000 A 
ATOM     11  C   UNL     1       6.479   4.650  16.533  0.00  0.00    +0.000 A 
ATOM     12  C   UNL     1       7.226   5.216  15.493  0.00  0.00    +0.000 A 
ATOM     13  C   UNL     1       6.977   4.840  14.163  0.00  0.00    +0.000 A 
ATOM     14  C   UNL     1       7.890   5.339  13.075  0.00  0.00    +0.000 C 
ENDBRANCH   2  11
ENDBRANCH   1   6
BRANCH   1  15
ATOM     15  N   UNL     1       3.931   6.110  19.533  0.00  0.00    +0.000 N 
ATOM     16  C   UNL     1       2.725   6.471  18.957  0.00  0.00    +0.000 C 
ATOM     17  O   UNL     1       2.266   5.910  17.973  0.00  0.00    +0.000 OA
ATOM     18  H   UNL     1       4.257   6.552  20.380  0.00  0.00    +0.000 HD
BRANCH  16  19
ATOM     19  C   UNL     1       1.991   7.621  19.558  0.00  0.00    +0.000 A 
ATOM     20  C   UNL     1       1.523   7.608  20.889  0.00  0.00    +0.000 A 
ATOM     21  C   UNL     1       0.784   8.687  21.393  0.00  0.00    +0.000 A 
ATOM     22  C   UNL     1       0.530   9.747  20.549  0.00  0.00    +0.000 A 
ATOM     23  C   UNL     1       0.989   9.767  19.254  0.00  0.00    +0.000 A 
ATOM     24  C   UNL     1       1.721   8.723  18.728  0.00  0.00    +0.000 A 
ATOM     25  O   UNL     1       0.625  10.898  18.593  0.00  0.00    +0.000 OA
ATOM     26  C   UNL     1      -0.150  11.572  19.608  0.00  0.00    +0.000 C 
ATOM     27  O   UNL     1      -0.192  10.857  20.862  0.00  0.00    +0.000 OA
ENDBRANCH  16  19
ENDBRANCH   1  15
TORSDOF 4
ENDMDL
MODEL 5
REMARK VINA RESULT:      -7.8      1.113      1.322
REMARK  Name = 
REMARK  6 active torsions:
REMARK  status: ('A' for Active; 'I' for Inactive)
REMARK    1  A    between atoms: C_1  and  C_2
REMARK    2  A    between atoms: C_5  and  N_6
REMARK    3  A    between atoms: C_10  and  C_11
REMARK    4  A    between atoms: C_11  and  N_12
REMARK    5  A    between atoms: C_13  and  C_15
REMARK    6  A    between atoms: C_25  and  C_26
REMARK                            x       y       z     vdW  Elec       q    Type
REMARK                         _______ _______ _______ _____ _____    ______ ____
ROOT
ATOM      1  C   UNL     1       3.903   7.496  16.916  0.00  0.00    +0.000 C 
ENDROOT
BRANCH   1   6
ATOM      2  N   UNL     1       5.204   5.465  17.724  0.00  0.00    +0.000 N 
ATOM      3  N   UNL     1       6.486   5.241  18.088  0.00  0.00    +0.000 NA
ATOM      4  N   UNL     1       7.192   6.225  17.551  0.00  0.00    +0.000 NA
ATOM      5  N   UNL     1       6.378   7.137  16.934  0.00  0.00    +0.000 NA
ATOM      6  C   UNL     1       5.143   6.698  17.092  0.00  0.00    +0.000 A 
BRANCH   2  11
ATOM      7  C   UNL     1       0.636   2.270  18.926  0.00  0.00    +0.000 C 
ATOM      8  C   UNL     1       1.895   3.052  18.669  0.00  0.00    +0.000 A 
ATOM      9  C   UNL     1       2.530   2.925  17.426  0.00  0.00    +0.000 A 
ATOM     10  C   UNL     1       3.652   3.691  17.120  0.00  0.00    +0.000 A 
ATOM     11  C   UNL     1       4.163   4.578  18.068  0.00  0.00    +0.000 A 
ATOM     12  C   UNL     1       3.606   4.639  19.350  0.00  0.00    +0.000 A 
ATOM     13  C   UNL     1       2.445   3.906  19.648  0.00  0.00    +0.000 A 
ATOM     14  C   UNL     1       1.771   4.104  20.979  0.00  0.00    +0.000 C 
ENDBRANCH   2  11
ENDBRANCH   1   6
BRANCH   1  15
ATOM     15  N   UNL     1       3.316   7.857  18.190  0.00  0.00    +0.000 N 
ATOM     16  C   UNL     1       2.189   8.661  18.218  0.00  0.00    +0.000 C 
ATOM     17  O   UNL     1       1.730   9.192  17.217  0.00  0.00    +0.000 OA
ATOM     18  H   UNL     1       3.638   7.383  19.022  0.00  0.00    +0.000 HD
BRANCH  16  19
ATOM     19  C   UNL     1       1.548   8.904  19.541  0.00  0.00    +0.000 A 
ATOM     20  C   UNL     1       1.563   7.945  20.577  0.00  0.00    +0.000 A 
ATOM     21  C   UNL     1       0.894   8.193  21.784  0.00  0.00    +0.000 A 
ATOM     22  C   UNL     1       0.224   9.390  21.918  0.00  0.00    +0.000 A 
ATOM     23  C   UNL     1       0.212  10.329  20.914  0.00  0.00    +0.000 A 
ATOM     24  C   UNL     1       0.862  10.118  19.716  0.00  0.00    +0.000 A 
ATOM     25  O   UNL     1      -0.509  11.433  21.247  0.00  0.00    +0.000 OA
ATOM     26  C   UNL     1      -0.982  11.067  22.560  0.00  0.00    +0.000 C 
ATOM     27  O   UNL     1      -0.499   9.780  23.002  0.00  0.00    +0.000 OA
ENDBRANCH  16  19
ENDBRANCH   1  15
TORSDOF 4
ENDMDL
MODEL 6
REMARK VINA RESULT:      -7.6      2.047      3.677
REMARK  Name = 
REMARK  6 active torsions:
REMARK  status: ('A' for Active; 'I' for Inactive)
REMARK    1  A    between atoms: C_1  and  C_2
REMARK    2  A    between atoms: C_5  and  N_6
REMARK    3  A    between atoms: C_10  and  C_11
REMARK    4  A    between atoms: C_11  and  N_12
REMARK    5  A    between atoms: C_13  and  C_15
REMARK    6  A    between atoms: C_25  and  C_26
REMARK                            x       y       z     vdW  Elec       q    Type
REMARK                         _______ _______ _______ _____ _____    ______ ____
ROOT
ATOM      1  C   UNL     1       1.777   4.115  19.848  0.00  0.00    +0.000 C 
ENDROOT
BRANCH   1   6
ATOM      2  N   UNL     1       4.153   3.211  19.797  0.00  0.00    +0.000 N 
ATOM      3  N   UNL     1       4.797   2.196  20.416  0.00  0.00    +0.000 NA
ATOM      4  N   UNL     1       4.073   1.907  21.487  0.00  0.00    +0.000 NA
ATOM      5  N   UNL     1       2.920   2.644  21.517  0.00  0.00    +0.000 NA
ATOM      6  C   UNL     1       2.941   3.409  20.441  0.00  0.00    +0.000 A 
BRANCH   2  11
ATOM      7  C   UNL     1       6.634   5.301  15.108  0.00  0.00    +0.000 C 
ATOM      8  C   UNL     1       5.933   4.839  16.355  0.00  0.00    +0.000 A 
ATOM      9  C   UNL     1       4.877   3.924  16.239  0.00  0.00    +0.000 A 
ATOM     10  C   UNL     1       4.254   3.411  17.374  0.00  0.00    +0.000 A 
ATOM     11  C   UNL     1       4.669   3.828  18.640  0.00  0.00    +0.000 A 
ATOM     12  C   UNL     1       5.649   4.819  18.769  0.00  0.00    +0.000 A 
ATOM     13  C   UNL     1       6.315   5.303  17.631  0.00  0.00    +0.000 A 
ATOM     14  C   UNL     1       7.471   6.251  17.804  0.00  0.00    +0.000 C 
ENDBRANCH   2  11
ENDBRANCH   1   6
BRANCH   1  15
ATOM     15  N   UNL     1       1.618   5.442  20.409  0.00  0.00    +0.000 N 
ATOM     16  C   UNL     1       1.929   6.549  19.638  0.00  0.00    +0.000 C 
ATOM     17  O   UNL     1       2.456   6.463  18.538  0.00  0.00    +0.000 OA
ATOM     18  H   UNL     1       1.128   5.540  21.287  0.00  0.00    +0.000 HD
BRANCH  16  19
ATOM     19  C   UNL     1       1.632   7.893  20.210  0.00  0.00    +0.000 A 
ATOM     20  C   UNL     1       1.471   8.107  21.596  0.00  0.00    +0.000 A 
ATOM     21  C   UNL     1       1.133   9.377  22.084  0.00  0.00    +0.000 A 
ATOM     22  C   UNL     1       0.959  10.395  21.171  0.00  0.00    +0.000 A 
ATOM     23  C   UNL     1       1.122  10.193  19.821  0.00  0.00    +0.000 A 
ATOM     24  C   UNL     1       1.457   8.957  19.308  0.00  0.00    +0.000 A 
ATOM     25  O   UNL     1       0.901  11.323  19.098  0.00  0.00    +0.000 OA
ATOM     26  C   UNL     1       0.542  12.252  20.143  0.00  0.00    +0.000 C 
ATOM     27  O   UNL     1       0.603  11.675  21.465  0.00  0.00    +0.000 OA
ENDBRANCH  16  19
ENDBRANCH   1  15
TORSDOF 4
ENDMDL
MODEL 7
REMARK VINA RESULT:      -7.6      2.428      4.174
REMARK  Name = 
REMARK  6 active torsions:
REMARK  status: ('A' for Active; 'I' for Inactive)
REMARK    1  A    between atoms: C_1  and  C_2
REMARK    2  A    between atoms: C_5  and  N_6
REMARK    3  A    between atoms: C_10  and  C_11
REMARK    4  A    between atoms: C_11  and  N_12
REMARK    5  A    between atoms: C_13  and  C_15
REMARK    6  A    between atoms: C_25  and  C_26
REMARK                            x       y       z     vdW  Elec       q    Type
REMARK                         _______ _______ _______ _____ _____    ______ ____
ROOT
ATOM      1  C   UNL     1       2.388   7.124  19.411  0.00  0.00    +0.000 C 
ENDROOT
BRANCH   1   6
ATOM      2  N   UNL     1       3.368   4.783  19.241  0.00  0.00    +0.000 N 
ATOM      3  N   UNL     1       3.054   3.580  19.772  0.00  0.00    +0.000 NA
ATOM      4  N   UNL     1       2.310   3.838  20.837  0.00  0.00    +0.000 NA
ATOM      5  N   UNL     1       2.051   5.178  20.946  0.00  0.00    +0.000 NA
ATOM      6  C   UNL     1       2.656   5.756  19.925  0.00  0.00    +0.000 A 
BRANCH   2  11
ATOM      7  C   UNL     1       7.095   4.880  14.926  0.00  0.00    +0.000 C 
ATOM      8  C   UNL     1       6.078   4.944  16.031  0.00  0.00    +0.000 A 
ATOM      9  C   UNL     1       4.951   4.112  15.964  0.00  0.00    +0.000 A 
ATOM     10  C   UNL     1       4.026   4.084  17.004  0.00  0.00    +0.000 A 
ATOM     11  C   UNL     1       4.210   4.906  18.117  0.00  0.00    +0.000 A 
ATOM     12  C   UNL     1       5.272   5.818  18.151  0.00  0.00    +0.000 A 
ATOM     13  C   UNL     1       6.234   5.816  17.129  0.00  0.00    +0.000 A 
ATOM     14  C   UNL     1       7.450   6.694  17.261  0.00  0.00    +0.000 C 
ENDBRANCH   2  11
ENDBRANCH   1   6
BRANCH   1  15
ATOM     15  N   UNL     1       1.694   7.934  20.391  0.00  0.00    +0.000 N 
ATOM     16  C   UNL     1       1.060   9.097  19.987  0.00  0.00    +0.000 C 
ATOM     17  O   UNL     1       1.162   9.548  18.855  0.00  0.00    +0.000 OA
ATOM     18  H   UNL     1       1.544   7.553  21.314  0.00  0.00    +0.000 HD
BRANCH  16  19
ATOM     19  C   UNL     1       0.255   9.832  21.003  0.00  0.00    +0.000 A 
ATOM     20  C   UNL     1       0.103   9.368  22.327  0.00  0.00    +0.000 A 
ATOM     21  C   UNL     1      -0.714  10.061  23.233  0.00  0.00    +0.000 A 
ATOM     22  C   UNL     1      -1.359  11.194  22.785  0.00  0.00    +0.000 A 
ATOM     23  C   UNL     1      -1.208  11.652  21.498  0.00  0.00    +0.000 A 
ATOM     24  C   UNL     1      -0.410  10.997  20.584  0.00  0.00    +0.000 A 
ATOM     25  O   UNL     1      -1.933  12.778  21.262  0.00  0.00    +0.000 OA
ATOM     26  C   UNL     1      -2.589  12.956  22.535  0.00  0.00    +0.000 C 
ATOM     27  O   UNL     1      -2.208  11.966  23.516  0.00  0.00    +0.000 OA
ENDBRANCH  16  19
ENDBRANCH   1  15
TORSDOF 4
ENDMDL
MODEL 8
REMARK VINA RESULT:      -7.6      1.652      2.270
REMARK  Name = 
REMARK  6 active torsions:
REMARK  status: ('A' for Active; 'I' for Inactive)
REMARK    1  A    between atoms: C_1  and  C_2
REMARK    2  A    between atoms: C_5  and  N_6
REMARK    3  A    between atoms: C_10  and  C_11
REMARK    4  A    between atoms: C_11  and  N_12
REMARK    5  A    between atoms: C_13  and  C_15
REMARK    6  A    between atoms: C_25  and  C_26
REMARK                            x       y       z     vdW  Elec       q    Type
REMARK                         _______ _______ _______ _____ _____    ______ ____
ROOT
ATOM      1  C   UNL     1       5.273   6.579  17.462  0.00  0.00    +0.000 C 
ENDROOT
BRANCH   1   6
ATOM      2  N   UNL     1       4.613   4.414  16.302  0.00  0.00    +0.000 N 
ATOM      3  N   UNL     1       5.063   3.739  15.221  0.00  0.00    +0.000 NA
ATOM      4  N   UNL     1       5.732   4.623  14.496  0.00  0.00    +0.000 NA
ATOM      5  N   UNL     1       5.810   5.830  15.137  0.00  0.00    +0.000 NA
ATOM      6  C   UNL     1       5.169   5.684  16.281  0.00  0.00    +0.000 A 
BRANCH   2  11
ATOM      7  C   UNL     1       1.338   2.437  20.531  0.00  0.00    +0.000 C 
ATOM      8  C   UNL     1       2.218   2.862  19.388  0.00  0.00    +0.000 A 
ATOM      9  C   UNL     1       1.625   3.434  18.254  0.00  0.00    +0.000 A 
ATOM     10  C   UNL     1       2.410   3.913  17.208  0.00  0.00    +0.000 A 
ATOM     11  C   UNL     1       3.800   3.803  17.279  0.00  0.00    +0.000 A 
ATOM     12  C   UNL     1       4.400   3.139  18.355  0.00  0.00    +0.000 A 
ATOM     13  C   UNL     1       3.618   2.699  19.434  0.00  0.00    +0.000 A 
ATOM     14  C   UNL     1       4.298   2.129  20.650  0.00  0.00    +0.000 C 
ENDBRANCH   2  11
ENDBRANCH   1   6
BRANCH   1  15
ATOM     15  N   UNL     1       4.096   7.411  17.605  0.00  0.00    +0.000 N 
ATOM     16  C   UNL     1       3.257   7.223  18.691  0.00  0.00    +0.000 C 
ATOM     17  O   UNL     1       3.391   6.298  19.478  0.00  0.00    +0.000 OA
ATOM     18  H   UNL     1       3.998   8.218  17.005  0.00  0.00    +0.000 HD
BRANCH  16  19
ATOM     19  C   UNL     1       2.129   8.181  18.864  0.00  0.00    +0.000 A 
ATOM     20  C   UNL     1       1.560   8.884  17.781  0.00  0.00    +0.000 A 
ATOM     21  C   UNL     1       0.540   9.821  17.999  0.00  0.00    +0.000 A 
ATOM     22  C   UNL     1       0.123  10.032  19.296  0.00  0.00    +0.000 A 
ATOM     23  C   UNL     1       0.670   9.345  20.353  0.00  0.00    +0.000 A 
ATOM     24  C   UNL     1       1.672   8.415  20.173  0.00  0.00    +0.000 A 
ATOM     25  O   UNL     1       0.122   9.706  21.544  0.00  0.00    +0.000 OA
ATOM     26  C   UNL     1      -0.807  10.727  21.121  0.00  0.00    +0.000 C 
ATOM     27  O   UNL     1      -0.829  10.921  19.690  0.00  0.00    +0.000 OA
ENDBRANCH  16  19
ENDBRANCH   1  15
TORSDOF 4
ENDMDL
MODEL 9
REMARK VINA RESULT:      -7.5      2.394      3.930
REMARK  Name = 
REMARK  6 active torsions:
REMARK  status: ('A' for Active; 'I' for Inactive)
REMARK    1  A    between atoms: C_1  and  C_2
REMARK    2  A    between atoms: C_5  and  N_6
REMARK    3  A    between atoms: C_10  and  C_11
REMARK    4  A    between atoms: C_11  and  N_12
REMARK    5  A    between atoms: C_13  and  C_15
REMARK    6  A    between atoms: C_25  and  C_26
REMARK                            x       y       z     vdW  Elec       q    Type
REMARK                         _______ _______ _______ _____ _____    ______ ____
ROOT
ATOM      1  C   UNL     1       1.578   5.263  19.819  0.00  0.00    +0.000 C 
ENDROOT
BRANCH   1   6
ATOM      2  N   UNL     1       3.546   3.674  20.084  0.00  0.00    +0.000 N 
ATOM      3  N   UNL     1       3.771   2.551  20.802  0.00  0.00    +0.000 NA
ATOM      4  N   UNL     1       2.880   2.564  21.782  0.00  0.00    +0.000 NA
ATOM      5  N   UNL     1       2.017   3.618  21.651  0.00  0.00    +0.000 NA
ATOM      6  C   UNL     1       2.392   4.272  20.567  0.00  0.00    +0.000 A 
BRANCH   2  11
ATOM      7  C   UNL     1       7.113   4.659  15.745  0.00  0.00    +0.000 C 
ATOM      8  C   UNL     1       6.142   4.495  16.882  0.00  0.00    +0.000 A 
ATOM      9  C   UNL     1       4.967   3.761  16.668  0.00  0.00    +0.000 A 
ATOM     10  C   UNL     1       4.081   3.519  17.715  0.00  0.00    +0.000 A 
ATOM     11  C   UNL     1       4.352   4.032  18.984  0.00  0.00    +0.000 A 
ATOM     12  C   UNL     1       5.466   4.856  19.189  0.00  0.00    +0.000 A 
ATOM     13  C   UNL     1       6.388   5.061  18.150  0.00  0.00    +0.000 A 
ATOM     14  C   UNL     1       7.657   5.820  18.433  0.00  0.00    +0.000 C 
ENDBRANCH   2  11
ENDBRANCH   1   6
BRANCH   1  15
ATOM     15  N   UNL     1       1.158   6.358  20.669  0.00  0.00    +0.000 N 
ATOM     16  C   UNL     1       1.463   7.659  20.305  0.00  0.00    +0.000 C 
ATOM     17  O   UNL     1       2.186   7.929  19.357  0.00  0.00    +0.000 OA
ATOM     18  H   UNL     1       0.510   6.166  21.420  0.00  0.00    +0.000 HD
BRANCH  16  19
ATOM     19  C   UNL     1       0.904   8.758  21.142  0.00  0.00    +0.000 A 
ATOM     20  C   UNL     1       0.373   8.533  22.430  0.00  0.00    +0.000 A 
ATOM     21  C   UNL     1      -0.197   9.588  23.157  0.00  0.00    +0.000 A 
ATOM     22  C   UNL     1      -0.225  10.836  22.573  0.00  0.00    +0.000 A 
ATOM     23  C   UNL     1       0.297  11.060  21.321  0.00  0.00    +0.000 A 
ATOM     24  C   UNL     1       0.868  10.046  20.581  0.00  0.00    +0.000 A 
ATOM     25  O   UNL     1       0.164  12.356  20.930  0.00  0.00    +0.000 OA
ATOM     26  C   UNL     1      -0.537  12.914  22.062  0.00  0.00    +0.000 C 
ATOM     27  O   UNL     1      -0.764  11.958  23.120  0.00  0.00    +0.000 OA
ENDBRANCH  16  19
ENDBRANCH   1  15
TORSDOF 4
ENDMDL
