MODEL 1
REMARK VINA RESULT:      -8.6      0.000      0.000
REMARK  Name = 
REMARK  7 active torsions:
REMARK  status: ('A' for Active; 'I' for Inactive)
REMARK    1  A    between atoms: C_2  and  O_3
REMARK    2  A    between atoms: C_2  and  C_4
REMARK    3  A    between atoms: C_4  and  N_5
REMARK    4  A    between atoms: C_9  and  C_10
REMARK    5  A    between atoms: C_15  and  O_16
REMARK    6  A    between atoms: O_16  and  C_17
REMARK    7  A    between atoms: C_17  and  C_18
REMARK                            x       y       z     vdW  Elec       q    Type
REMARK                         _______ _______ _______ _____ _____    ______ ____
ROOT
ATOM      1  C   UNL     1       1.528   7.551  20.788  0.00  0.00    +0.000 A 
ATOM      2  C   UNL     1       1.252   6.201  21.015  0.00  0.00    +0.000 A 
ATOM      3  C   UNL     1       1.781   5.234  20.166  0.00  0.00    +0.000 A 
ATOM      4  C   UNL     1       2.589   5.602  19.085  0.00  0.00    +0.000 A 
ATOM      5  C   UNL     1       3.121   4.624  18.240  0.00  0.00    +0.000 A 
ATOM      6  C   UNL     1       3.973   4.969  17.189  0.00  0.00    +0.000 A 
ATOM      7  C   UNL     1       4.232   6.312  16.929  0.00  0.00    +0.000 A 
ATOM      8  C   UNL     1       3.693   7.306  17.753  0.00  0.00    +0.000 A 
ATOM      9  C   UNL     1       2.879   6.964  18.846  0.00  0.00    +0.000 A 
ATOM     10  C   UNL     1       2.339   7.931  19.711  0.00  0.00    +0.000 A 
ENDROOT
BRANCH   1  15
ATOM     11  N   UNL     1      -1.005  11.603  21.441  0.00  0.00    +0.000 N 
ATOM     12  C   UNL     1      -0.376  10.594  22.151  0.00  0.00    +0.000 C 
ATOM     13  O   UNL     1      -0.253  10.524  23.366  0.00  0.00    +0.000 OA
ATOM     14  C   UNL     1       0.212   9.598  21.220  0.00  0.00    +0.000 C 
ATOM     15  C   UNL     1       0.930   8.559  21.661  0.00  0.00    +0.000 C 
ATOM     16  S   UNL     1      -0.148  10.016  19.597  0.00  0.00    +0.000 S 
ATOM     17  C   UNL     1      -0.988  11.487  20.061  0.00  0.00    +0.000 C 
ATOM     18  S   UNL     1      -1.620  12.536  18.932  0.00  0.00    +0.000 S 
BRANCH  11  19
ATOM     19  C   UNL     1      -1.730  12.676  22.140  0.00  0.00    +0.000 C 
BRANCH  19  21
ATOM     20  O   UNL     1      -3.363  11.830  23.726  0.00  0.00    +0.000 OA
ATOM     21  C   UNL     1      -3.131  12.281  22.612  0.00  0.00    +0.000 C 
BRANCH  21  22
ATOM     22  O   UNL     1      -4.126  12.608  21.757  0.00  0.00    +0.000 OA
ATOM     23  H   UNL     1      -4.330  13.561  21.723  0.00  0.00    +0.000 HD
ENDBRANCH  21  22
ENDBRANCH  19  21
ENDBRANCH  11  19
ENDBRANCH   1  15
BRANCH   6  24
ATOM     24  O   UNL     1       4.603   4.062  16.377  0.00  0.00    +0.000 OA
BRANCH  24  25
ATOM     25  C   UNL     1       5.993   4.326  16.165  0.00  0.00    +0.000 C 
BRANCH  25  26
ATOM     26  C   UNL     1       6.338   4.308  14.698  0.00  0.00    +0.000 A 
ATOM     27  C   UNL     1       7.374   5.132  14.227  0.00  0.00    +0.000 A 
ATOM     28  C   UNL     1       7.726   5.132  12.878  0.00  0.00    +0.000 A 
ATOM     29  C   UNL     1       7.055   4.296  11.987  0.00  0.00    +0.000 A 
ATOM     30  C   UNL     1       6.041   3.459  12.452  0.00  0.00    +0.000 A 
ATOM     31 CL   UNL     1       5.221   2.424  11.349  0.00  0.00    +0.000 Cl
ATOM     32  C   UNL     1       5.687   3.453  13.799  0.00  0.00    +0.000 A 
ENDBRANCH  25  26
ENDBRANCH  24  25
ENDBRANCH   6  24
TORSDOF 7
ENDMDL
MODEL 2
REMARK VINA RESULT:      -8.5      5.560     11.680
REMARK  Name = 
REMARK  7 active torsions:
REMARK  status: ('A' for Active; 'I' for Inactive)
REMARK    1  A    between atoms: C_2  and  O_3
REMARK    2  A    between atoms: C_2  and  C_4
REMARK    3  A    between atoms: C_4  and  N_5
REMARK    4  A    between atoms: C_9  and  C_10
REMARK    5  A    between atoms: C_15  and  O_16
REMARK    6  A    between atoms: O_16  and  C_17
REMARK    7  A    between atoms: C_17  and  C_18
REMARK                            x       y       z     vdW  Elec       q    Type
REMARK                         _______ _______ _______ _____ _____    ______ ____
ROOT
ATOM      1  C   UNL     1       1.857   8.357  19.184  0.00  0.00    +0.000 A 
ATOM      2  C   UNL     1       1.340   9.140  18.150  0.00  0.00    +0.000 A 
ATOM      3  C   UNL     1       0.423  10.147  18.435  0.00  0.00    +0.000 A 
ATOM      4  C   UNL     1       0.012  10.382  19.752  0.00  0.00    +0.000 A 
ATOM      5  C   UNL     1      -0.906  11.398  20.031  0.00  0.00    +0.000 A 
ATOM      6  C   UNL     1      -1.287  11.681  21.345  0.00  0.00    +0.000 A 
ATOM      7  C   UNL     1      -0.807  10.888  22.384  0.00  0.00    +0.000 A 
ATOM      8  C   UNL     1       0.098   9.854  22.121  0.00  0.00    +0.000 A 
ATOM      9  C   UNL     1       0.529   9.597  20.808  0.00  0.00    +0.000 A 
ATOM     10  C   UNL     1       1.455   8.585  20.506  0.00  0.00    +0.000 A 
ENDROOT
BRANCH   1  15
ATOM     11  N   UNL     1       3.434   3.836  19.770  0.00  0.00    +0.000 N 
ATOM     12  C   UNL     1       3.682   4.983  19.033  0.00  0.00    +0.000 C 
ATOM     13  O   UNL     1       4.591   5.152  18.232  0.00  0.00    +0.000 OA
ATOM     14  C   UNL     1       2.714   6.047  19.393  0.00  0.00    +0.000 C 
ATOM     15  C   UNL     1       2.785   7.275  18.865  0.00  0.00    +0.000 C 
ATOM     16  S   UNL     1       1.590   5.463  20.549  0.00  0.00    +0.000 S 
ATOM     17  C   UNL     1       2.363   3.890  20.646  0.00  0.00    +0.000 C 
ATOM     18  S   UNL     1       1.826   2.705  21.687  0.00  0.00    +0.000 S 
BRANCH  11  19
ATOM     19  C   UNL     1       4.216   2.611  19.542  0.00  0.00    +0.000 C 
BRANCH  19  21
ATOM     20  O   UNL     1       2.635   1.949  17.823  0.00  0.00    +0.000 OA
ATOM     21  C   UNL     1       3.612   1.665  18.503  0.00  0.00    +0.000 C 
BRANCH  21  22
ATOM     22  O   UNL     1       4.330   0.541  18.279  0.00  0.00    +0.000 OA
ATOM     23  H   UNL     1       4.671   0.115  19.087  0.00  0.00    +0.000 HD
ENDBRANCH  21  22
ENDBRANCH  19  21
ENDBRANCH  11  19
ENDBRANCH   1  15
BRANCH   6  24
ATOM     24  O   UNL     1      -2.109  12.717  21.703  0.00  0.00    +0.000 OA
BRANCH  24  25
ATOM     25  C   UNL     1      -2.920  12.456  22.852  0.00  0.00    +0.000 C 
BRANCH  25  26
ATOM     26  C   UNL     1      -4.379  12.702  22.561  0.00  0.00    +0.000 A 
ATOM     27  C   UNL     1      -4.849  12.560  21.244  0.00  0.00    +0.000 A 
ATOM     28  C   UNL     1      -6.193  12.770  20.942  0.00  0.00    +0.000 A 
ATOM     29  C   UNL     1      -7.086  13.109  21.956  0.00  0.00    +0.000 A 
ATOM     30  C   UNL     1      -6.632  13.229  23.269  0.00  0.00    +0.000 A 
ATOM     31 CL   UNL     1      -7.740  13.641  24.519  0.00  0.00    +0.000 Cl
ATOM     32  C   UNL     1      -5.289  13.018  23.578  0.00  0.00    +0.000 A 
ENDBRANCH  25  26
ENDBRANCH  24  25
ENDBRANCH   6  24
TORSDOF 7
ENDMDL
MODEL 3
REMARK VINA RESULT:      -8.5      4.544     11.524
REMARK  Name = 
REMARK  7 active torsions:
REMARK  status: ('A' for Active; 'I' for Inactive)
REMARK    1  A    between atoms: C_2  and  O_3
REMARK    2  A    between atoms: C_2  and  C_4
REMARK    3  A    between atoms: C_4  and  N_5
REMARK    4  A    between atoms: C_9  and  C_10
REMARK    5  A    between atoms: C_15  and  O_16
REMARK    6  A    between atoms: O_16  and  C_17
REMARK    7  A    between atoms: C_17  and  C_18
REMARK                            x       y       z     vdW  Elec       q    Type
REMARK                         _______ _______ _______ _____ _____    ______ ____
ROOT
ATOM      1  C   UNL     1       1.923   8.705  18.602  0.00  0.00    +0.000 A 
ATOM      2  C   UNL     1       0.932   9.505  18.029  0.00  0.00    +0.000 A 
ATOM      3  C   UNL     1      -0.018  10.118  18.840  0.00  0.00    +0.000 A 
ATOM      4  C   UNL     1       0.010   9.940  20.228  0.00  0.00    +0.000 A 
ATOM      5  C   UNL     1      -0.944  10.564  21.036  0.00  0.00    +0.000 A 
ATOM      6  C   UNL     1      -0.899  10.441  22.426  0.00  0.00    +0.000 A 
ATOM      7  C   UNL     1       0.062   9.621  23.011  0.00  0.00    +0.000 A 
ATOM      8  C   UNL     1       1.014   8.974  22.216  0.00  0.00    +0.000 A 
ATOM      9  C   UNL     1       1.009   9.136  20.820  0.00  0.00    +0.000 A 
ATOM     10  C   UNL     1       1.963   8.523  19.991  0.00  0.00    +0.000 A 
ENDROOT
BRANCH   1  15
ATOM     11  N   UNL     1       4.664   4.893  17.497  0.00  0.00    +0.000 N 
ATOM     12  C   UNL     1       4.313   6.148  17.025  0.00  0.00    +0.000 C 
ATOM     13  O   UNL     1       4.762   6.707  16.034  0.00  0.00    +0.000 OA
ATOM     14  C   UNL     1       3.333   6.786  17.938  0.00  0.00    +0.000 C 
ATOM     15  C   UNL     1       2.887   8.032  17.735  0.00  0.00    +0.000 C 
ATOM     16  S   UNL     1       2.936   5.722  19.222  0.00  0.00    +0.000 S 
ATOM     17  C   UNL     1       4.046   4.482  18.666  0.00  0.00    +0.000 C 
ATOM     18  S   UNL     1       4.271   3.058  19.501  0.00  0.00    +0.000 S 
BRANCH  11  19
ATOM     19  C   UNL     1       5.571   4.027  16.727  0.00  0.00    +0.000 C 
BRANCH  19  21
ATOM     20  O   UNL     1       7.709   4.872  15.947  0.00  0.00    +0.000 OA
ATOM     21  C   UNL     1       7.050   4.393  16.860  0.00  0.00    +0.000 C 
BRANCH  21  22
ATOM     22  O   UNL     1       7.547   4.286  18.113  0.00  0.00    +0.000 OA
ATOM     23  H   UNL     1       7.401   5.072  18.671  0.00  0.00    +0.000 HD
ENDBRANCH  21  22
ENDBRANCH  19  21
ENDBRANCH  11  19
ENDBRANCH   1  15
BRANCH   6  24
ATOM     24  O   UNL     1      -1.743  11.094  23.285  0.00  0.00    +0.000 OA
BRANCH  24  25
ATOM     25  C   UNL     1      -1.794  12.512  23.099  0.00  0.00    +0.000 C 
BRANCH  25  26
ATOM     26  C   UNL     1      -3.213  12.994  22.936  0.00  0.00    +0.000 A 
ATOM     27  C   UNL     1      -3.726  13.932  23.849  0.00  0.00    +0.000 A 
ATOM     28  C   UNL     1      -5.030  14.406  23.722  0.00  0.00    +0.000 A 
ATOM     29  C   UNL     1      -5.831  13.961  22.673  0.00  0.00    +0.000 A 
ATOM     30  C   UNL     1      -5.321  13.048  21.750  0.00  0.00    +0.000 A 
ATOM     31 CL   UNL     1      -6.311  12.507  20.452  0.00  0.00    +0.000 Cl
ATOM     32  C   UNL     1      -4.017  12.572  21.870  0.00  0.00    +0.000 A 
ENDBRANCH  25  26
ENDBRANCH  24  25
ENDBRANCH   6  24
TORSDOF 7
ENDMDL
MODEL 4
REMARK VINA RESULT:      -8.4      1.796      2.673
REMARK  Name = 
REMARK  7 active torsions:
REMARK  status: ('A' for Active; 'I' for Inactive)
REMARK    1  A    between atoms: C_2  and  O_3
REMARK    2  A    between atoms: C_2  and  C_4
REMARK    3  A    between atoms: C_4  and  N_5
REMARK    4  A    between atoms: C_9  and  C_10
REMARK    5  A    between atoms: C_15  and  O_16
REMARK    6  A    between atoms: O_16  and  C_17
REMARK    7  A    between atoms: C_17  and  C_18
REMARK                            x       y       z     vdW  Elec       q    Type
REMARK                         _______ _______ _______ _____ _____    ______ ____
ROOT
ATOM      1  C   UNL     1       0.861   9.589  19.567  0.00  0.00    +0.000 A 
ATOM      2  C   UNL     1       1.474   9.798  18.331  0.00  0.00    +0.000 A 
ATOM      3  C   UNL     1       2.338   8.837  17.814  0.00  0.00    +0.000 A 
ATOM      4  C   UNL     1       2.597   7.659  18.525  0.00  0.00    +0.000 A 
ATOM      5  C   UNL     1       3.462   6.696  17.997  0.00  0.00    +0.000 A 
ATOM      6  C   UNL     1       3.691   5.493  18.668  0.00  0.00    +0.000 A 
ATOM      7  C   UNL     1       3.113   5.283  19.917  0.00  0.00    +0.000 A 
ATOM      8  C   UNL     1       2.260   6.244  20.469  0.00  0.00    +0.000 A 
ATOM      9  C   UNL     1       1.981   7.435  19.776  0.00  0.00    +0.000 A 
ATOM     10  C   UNL     1       1.111   8.413  20.286  0.00  0.00    +0.000 A 
ENDROOT
BRANCH   1  15
ATOM     11  N   UNL     1      -3.202  12.188  19.461  0.00  0.00    +0.000 N 
ATOM     12  C   UNL     1      -2.052  12.006  20.212  0.00  0.00    +0.000 C 
ATOM     13  O   UNL     1      -1.717  12.646  21.200  0.00  0.00    +0.000 OA
ATOM     14  C   UNL     1      -1.207  10.944  19.613  0.00  0.00    +0.000 C 
ATOM     15  C   UNL     1      -0.009  10.626  20.118  0.00  0.00    +0.000 C 
ATOM     16  S   UNL     1      -1.981  10.273  18.238  0.00  0.00    +0.000 S 
ATOM     17  C   UNL     1      -3.350  11.365  18.357  0.00  0.00    +0.000 C 
ATOM     18  S   UNL     1      -4.590  11.351  17.244  0.00  0.00    +0.000 S 
BRANCH  11  19
ATOM     19  C   UNL     1      -4.239  13.139  19.891  0.00  0.00    +0.000 C 
BRANCH  19  21
ATOM     20  O   UNL     1      -6.316  12.089  20.584  0.00  0.00    +0.000 OA
ATOM     21  C   UNL     1      -5.235  12.566  20.902  0.00  0.00    +0.000 C 
BRANCH  21  22
ATOM     22  O   UNL     1      -4.769  12.486  22.169  0.00  0.00    +0.000 OA
ATOM     23  H   UNL     1      -4.698  11.577  22.514  0.00  0.00    +0.000 HD
ENDBRANCH  21  22
ENDBRANCH  19  21
ENDBRANCH  11  19
ENDBRANCH   1  15
BRANCH   6  24
ATOM     24  O   UNL     1       4.451   4.467  18.171  0.00  0.00    +0.000 OA
BRANCH  24  25
ATOM     25  C   UNL     1       4.060   4.019  16.869  0.00  0.00    +0.000 C 
BRANCH  25  26
ATOM     26  C   UNL     1       5.155   4.248  15.858  0.00  0.00    +0.000 A 
ATOM     27  C   UNL     1       6.307   4.953  16.244  0.00  0.00    +0.000 A 
ATOM     28  C   UNL     1       7.343   5.174  15.338  0.00  0.00    +0.000 A 
ATOM     29  C   UNL     1       7.245   4.679  14.039  0.00  0.00    +0.000 A 
ATOM     30  C   UNL     1       6.114   3.959  13.656  0.00  0.00    +0.000 A 
ATOM     31 CL   UNL     1       6.000   3.344  12.053  0.00  0.00    +0.000 Cl
ATOM     32  C   UNL     1       5.076   3.733  14.558  0.00  0.00    +0.000 A 
ENDBRANCH  25  26
ENDBRANCH  24  25
ENDBRANCH   6  24
TORSDOF 7
ENDMDL
MODEL 5
REMARK VINA RESULT:      -8.3      0.946      1.141
REMARK  Name = 
REMARK  7 active torsions:
REMARK  status: ('A' for Active; 'I' for Inactive)
REMARK    1  A    between atoms: C_2  and  O_3
REMARK    2  A    between atoms: C_2  and  C_4
REMARK    3  A    between atoms: C_4  and  N_5
REMARK    4  A    between atoms: C_9  and  C_10
REMARK    5  A    between atoms: C_15  and  O_16
REMARK    6  A    between atoms: O_16  and  C_17
REMARK    7  A    between atoms: C_17  and  C_18
REMARK                            x       y       z     vdW  Elec       q    Type
REMARK                         _______ _______ _______ _____ _____    ______ ____
ROOT
ATOM      1  C   UNL     1       1.594   7.423  20.736  0.00  0.00    +0.000 A 
ATOM      2  C   UNL     1       1.389   6.064  20.981  0.00  0.00    +0.000 A 
ATOM      3  C   UNL     1       1.956   5.114  20.136  0.00  0.00    +0.000 A 
ATOM      4  C   UNL     1       2.731   5.510  19.040  0.00  0.00    +0.000 A 
ATOM      5  C   UNL     1       3.301   4.551  18.199  0.00  0.00    +0.000 A 
ATOM      6  C   UNL     1       4.120   4.927  17.133  0.00  0.00    +0.000 A 
ATOM      7  C   UNL     1       4.307   6.278  16.854  0.00  0.00    +0.000 A 
ATOM      8  C   UNL     1       3.729   7.253  17.674  0.00  0.00    +0.000 A 
ATOM      9  C   UNL     1       2.947   6.882  18.782  0.00  0.00    +0.000 A 
ATOM     10  C   UNL     1       2.371   7.831  19.644  0.00  0.00    +0.000 A 
ENDROOT
BRANCH   1  15
ATOM     11  N   UNL     1      -0.903  11.501  21.374  0.00  0.00    +0.000 N 
ATOM     12  C   UNL     1      -0.343  10.452  22.085  0.00  0.00    +0.000 C 
ATOM     13  O   UNL     1      -0.304  10.333  23.302  0.00  0.00    +0.000 OA
ATOM     14  C   UNL     1       0.289   9.480  21.158  0.00  0.00    +0.000 C 
ATOM     15  C   UNL     1       0.956   8.409  21.605  0.00  0.00    +0.000 C 
ATOM     16  S   UNL     1       0.049   9.967  19.532  0.00  0.00    +0.000 S 
ATOM     17  C   UNL     1      -0.794  11.436  19.995  0.00  0.00    +0.000 C 
ATOM     18  S   UNL     1      -1.328  12.541  18.868  0.00  0.00    +0.000 S 
BRANCH  11  19
ATOM     19  C   UNL     1      -1.654  12.561  22.065  0.00  0.00    +0.000 C 
BRANCH  19  21
ATOM     20  O   UNL     1       0.360  13.828  22.550  0.00  0.00    +0.000 OA
ATOM     21  C   UNL     1      -0.844  13.832  22.329  0.00  0.00    +0.000 C 
BRANCH  21  22
ATOM     22  O   UNL     1      -1.529  14.984  22.152  0.00  0.00    +0.000 OA
ATOM     23  H   UNL     1      -2.464  14.861  21.903  0.00  0.00    +0.000 HD
ENDBRANCH  21  22
ENDBRANCH  19  21
ENDBRANCH  11  19
ENDBRANCH   1  15
BRANCH   6  24
ATOM     24  O   UNL     1       4.785   4.043  16.323  0.00  0.00    +0.000 OA
BRANCH  24  25
ATOM     25  C   UNL     1       6.140   4.407  16.040  0.00  0.00    +0.000 C 
BRANCH  25  26
ATOM     26  C   UNL     1       6.431   4.331  14.563  0.00  0.00    +0.000 A 
ATOM     27  C   UNL     1       7.468   5.114  14.028  0.00  0.00    +0.000 A 
ATOM     28  C   UNL     1       7.771   5.061  12.669  0.00  0.00    +0.000 A 
ATOM     29  C   UNL     1       7.050   4.212  11.831  0.00  0.00    +0.000 A 
ATOM     30  C   UNL     1       6.035   3.415  12.359  0.00  0.00    +0.000 A 
ATOM     31 CL   UNL     1       5.153   2.364  11.322  0.00  0.00    +0.000 Cl
ATOM     32  C   UNL     1       5.729   3.463  13.718  0.00  0.00    +0.000 A 
ENDBRANCH  25  26
ENDBRANCH  24  25
ENDBRANCH   6  24
TORSDOF 7
ENDMDL
MODEL 6
REMARK VINA RESULT:      -8.3      5.073     11.803
REMARK  Name = 
REMARK  7 active torsions:
REMARK  status: ('A' for Active; 'I' for Inactive)
REMARK    1  A    between atoms: C_2  and  O_3
REMARK    2  A    between atoms: C_2  and  C_4
REMARK    3  A    between atoms: C_4  and  N_5
REMARK    4  A    between atoms: C_9  and  C_10
REMARK    5  A    between atoms: C_15  and  O_16
REMARK    6  A    between atoms: O_16  and  C_17
REMARK    7  A    between atoms: C_17  and  C_18
REMARK                            x       y       z     vdW  Elec       q    Type
REMARK                         _______ _______ _______ _____ _____    ______ ____
ROOT
ATOM      1  C   UNL     1       1.908   8.813  18.671  0.00  0.00    +0.000 A 
ATOM      2  C   UNL     1       0.953   9.646  18.086  0.00  0.00    +0.000 A 
ATOM      3  C   UNL     1      -0.004  10.269  18.881  0.00  0.00    +0.000 A 
ATOM      4  C   UNL     1      -0.017  10.068  20.266  0.00  0.00    +0.000 A 
ATOM      5  C   UNL     1      -0.978  10.701  21.059  0.00  0.00    +0.000 A 
ATOM      6  C   UNL     1      -0.973  10.554  22.448  0.00  0.00    +0.000 A 
ATOM      7  C   UNL     1      -0.048   9.701  23.044  0.00  0.00    +0.000 A 
ATOM      8  C   UNL     1       0.909   9.045  22.264  0.00  0.00    +0.000 A 
ATOM      9  C   UNL     1       0.946   9.230  20.871  0.00  0.00    +0.000 A 
ATOM     10  C   UNL     1       1.907   8.608  20.057  0.00  0.00    +0.000 A 
ENDROOT
BRANCH   1  15
ATOM     11  N   UNL     1       4.635   4.979  17.610  0.00  0.00    +0.000 N 
ATOM     12  C   UNL     1       4.300   6.235  17.131  0.00  0.00    +0.000 C 
ATOM     13  O   UNL     1       4.768   6.789  16.146  0.00  0.00    +0.000 OA
ATOM     14  C   UNL     1       3.313   6.883  18.030  0.00  0.00    +0.000 C 
ATOM     15  C   UNL     1       2.879   8.131  17.819  0.00  0.00    +0.000 C 
ATOM     16  S   UNL     1       2.889   5.824  19.310  0.00  0.00    +0.000 S 
ATOM     17  C   UNL     1       3.997   4.573  18.771  0.00  0.00    +0.000 C 
ATOM     18  S   UNL     1       4.199   3.150  19.611  0.00  0.00    +0.000 S 
BRANCH  11  19
ATOM     19  C   UNL     1       5.545   4.104  16.854  0.00  0.00    +0.000 C 
BRANCH  19  21
ATOM     20  O   UNL     1       7.736   4.317  17.880  0.00  0.00    +0.000 OA
ATOM     21  C   UNL     1       7.014   4.527  16.914  0.00  0.00    +0.000 C 
BRANCH  21  22
ATOM     22  O   UNL     1       7.506   5.021  15.755  0.00  0.00    +0.000 OA
ATOM     23  H   UNL     1       7.625   4.355  15.053  0.00  0.00    +0.000 HD
ENDBRANCH  21  22
ENDBRANCH  19  21
ENDBRANCH  11  19
ENDBRANCH   1  15
BRANCH   6  24
ATOM     24  O   UNL     1      -1.825  11.213  23.296  0.00  0.00    +0.000 OA
BRANCH  24  25
ATOM     25  C   UNL     1      -2.646  12.198  22.659  0.00  0.00    +0.000 C 
BRANCH  25  26
ATOM     26  C   UNL     1      -2.579  13.519  23.382  0.00  0.00    +0.000 A 
ATOM     27  C   UNL     1      -1.325  14.032  23.756  0.00  0.00    +0.000 A 
ATOM     28  C   UNL     1      -1.226  15.256  24.416  0.00  0.00    +0.000 A 
ATOM     29  C   UNL     1      -2.378  15.988  24.695  0.00  0.00    +0.000 A 
ATOM     30  C   UNL     1      -3.623  15.496  24.305  0.00  0.00    +0.000 A 
ATOM     31 CL   UNL     1      -5.042  16.407  24.646  0.00  0.00    +0.000 Cl
ATOM     32  C   UNL     1      -3.729  14.274  23.644  0.00  0.00    +0.000 A 
ENDBRANCH  25  26
ENDBRANCH  24  25
ENDBRANCH   6  24
TORSDOF 7
ENDMDL
MODEL 7
REMARK VINA RESULT:      -8.3      2.855      3.951
REMARK  Name = 
REMARK  7 active torsions:
REMARK  status: ('A' for Active; 'I' for Inactive)
REMARK    1  A    between atoms: C_2  and  O_3
REMARK    2  A    between atoms: C_2  and  C_4
REMARK    3  A    between atoms: C_4  and  N_5
REMARK    4  A    between atoms: C_9  and  C_10
REMARK    5  A    between atoms: C_15  and  O_16
REMARK    6  A    between atoms: O_16  and  C_17
REMARK    7  A    between atoms: C_17  and  C_18
REMARK                            x       y       z     vdW  Elec       q    Type
REMARK                         _______ _______ _______ _____ _____    ______ ____
ROOT
ATOM      1  C   UNL     1       0.861   9.952  19.731  0.00  0.00    +0.000 A 
ATOM      2  C   UNL     1       1.322  10.334  18.470  0.00  0.00    +0.000 A 
ATOM      3  C   UNL     1       2.093   9.454  17.717  0.00  0.00    +0.000 A 
ATOM      4  C   UNL     1       2.413   8.185  18.215  0.00  0.00    +0.000 A 
ATOM      5  C   UNL     1       3.184   7.305  17.451  0.00  0.00    +0.000 A 
ATOM      6  C   UNL     1       3.467   6.016  17.910  0.00  0.00    +0.000 A 
ATOM      7  C   UNL     1       3.044   5.631  19.179  0.00  0.00    +0.000 A 
ATOM      8  C   UNL     1       2.287   6.506  19.965  0.00  0.00    +0.000 A 
ATOM      9  C   UNL     1       1.951   7.786  19.489  0.00  0.00    +0.000 A 
ATOM     10  C   UNL     1       1.172   8.683  20.237  0.00  0.00    +0.000 A 
ENDROOT
BRANCH   1  15
ATOM     11  N   UNL     1      -3.113  12.577  20.492  0.00  0.00    +0.000 N 
ATOM     12  C   UNL     1      -1.890  12.273  21.067  0.00  0.00    +0.000 C 
ATOM     13  O   UNL     1      -1.427  12.752  22.092  0.00  0.00    +0.000 OA
ATOM     14  C   UNL     1      -1.149  11.305  20.221  0.00  0.00    +0.000 C 
ATOM     15  C   UNL     1       0.090  10.903  20.528  0.00  0.00    +0.000 C 
ATOM     16  S   UNL     1      -2.094  10.857  18.862  0.00  0.00    +0.000 S 
ATOM     17  C   UNL     1      -3.410  11.932  19.302  0.00  0.00    +0.000 C 
ATOM     18  S   UNL     1      -4.769  12.099  18.354  0.00  0.00    +0.000 S 
BRANCH  11  19
ATOM     19  C   UNL     1      -4.068  13.463  21.177  0.00  0.00    +0.000 C 
BRANCH  19  21
ATOM     20  O   UNL     1      -6.062  12.333  21.978  0.00  0.00    +0.000 OA
ATOM     21  C   UNL     1      -4.940  12.758  22.218  0.00  0.00    +0.000 C 
BRANCH  21  22
ATOM     22  O   UNL     1      -4.320  12.502  23.392  0.00  0.00    +0.000 OA
ATOM     23  H   UNL     1      -4.897  12.107  24.073  0.00  0.00    +0.000 HD
ENDBRANCH  21  22
ENDBRANCH  19  21
ENDBRANCH  11  19
ENDBRANCH   1  15
BRANCH   6  24
ATOM     24  O   UNL     1       4.138   5.069  17.180  0.00  0.00    +0.000 OA
BRANCH  24  25
ATOM     25  C   UNL     1       5.242   5.578  16.426  0.00  0.00    +0.000 C 
BRANCH  25  26
ATOM     26  C   UNL     1       6.339   6.082  17.330  0.00  0.00    +0.000 A 
ATOM     27  C   UNL     1       6.910   5.205  18.267  0.00  0.00    +0.000 A 
ATOM     28  C   UNL     1       7.933   5.635  19.111  0.00  0.00    +0.000 A 
ATOM     29  C   UNL     1       8.406   6.942  19.017  0.00  0.00    +0.000 A 
ATOM     30  C   UNL     1       7.859   7.810  18.073  0.00  0.00    +0.000 A 
ATOM     31 CL   UNL     1       8.452   9.421  17.956  0.00  0.00    +0.000 Cl
ATOM     32  C   UNL     1       6.838   7.386  17.225  0.00  0.00    +0.000 A 
ENDBRANCH  25  26
ENDBRANCH  24  25
ENDBRANCH   6  24
TORSDOF 7
ENDMDL
MODEL 8
REMARK VINA RESULT:      -8.3      2.392      3.367
REMARK  Name = 
REMARK  7 active torsions:
REMARK  status: ('A' for Active; 'I' for Inactive)
REMARK    1  A    between atoms: C_2  and  O_3
REMARK    2  A    between atoms: C_2  and  C_4
REMARK    3  A    between atoms: C_4  and  N_5
REMARK    4  A    between atoms: C_9  and  C_10
REMARK    5  A    between atoms: C_15  and  O_16
REMARK    6  A    between atoms: O_16  and  C_17
REMARK    7  A    between atoms: C_17  and  C_18
REMARK                            x       y       z     vdW  Elec       q    Type
REMARK                         _______ _______ _______ _____ _____    ______ ____
ROOT
ATOM      1  C   UNL     1       1.321   8.262  20.487  0.00  0.00    +0.000 A 
ATOM      2  C   UNL     1       1.567   8.941  19.292  0.00  0.00    +0.000 A 
ATOM      3  C   UNL     1       2.271   8.313  18.270  0.00  0.00    +0.000 A 
ATOM      4  C   UNL     1       2.738   7.003  18.430  0.00  0.00    +0.000 A 
ATOM      5  C   UNL     1       3.440   6.377  17.396  0.00  0.00    +0.000 A 
ATOM      6  C   UNL     1       3.866   5.052  17.518  0.00  0.00    +0.000 A 
ATOM      7  C   UNL     1       3.659   4.372  18.715  0.00  0.00    +0.000 A 
ATOM      8  C   UNL     1       2.974   4.990  19.767  0.00  0.00    +0.000 A 
ATOM      9  C   UNL     1       2.494   6.304  19.633  0.00  0.00    +0.000 A 
ATOM     10  C   UNL     1       1.780   6.950  20.656  0.00  0.00    +0.000 A 
ENDROOT
BRANCH   1  15
ATOM     11  N   UNL     1      -1.243  11.992  22.155  0.00  0.00    +0.000 N 
ATOM     12  C   UNL     1      -0.725  10.770  22.553  0.00  0.00    +0.000 C 
ATOM     13  O   UNL     1      -0.767  10.291  23.677  0.00  0.00    +0.000 OA
ATOM     14  C   UNL     1      -0.025  10.114  21.421  0.00  0.00    +0.000 C 
ATOM     15  C   UNL     1       0.619   8.950  21.568  0.00  0.00    +0.000 C 
ATOM     16  S   UNL     1      -0.158  11.071  20.004  0.00  0.00    +0.000 S 
ATOM     17  C   UNL     1      -1.041  12.344  20.831  0.00  0.00    +0.000 C 
ATOM     18  S   UNL     1      -1.505  13.743  20.056  0.00  0.00    +0.000 S 
BRANCH  11  19
ATOM     19  C   UNL     1      -2.047  12.805  23.081  0.00  0.00    +0.000 C 
BRANCH  19  21
ATOM     20  O   UNL     1      -4.260  12.406  22.164  0.00  0.00    +0.000 OA
ATOM     21  C   UNL     1      -3.524  12.410  23.142  0.00  0.00    +0.000 C 
BRANCH  21  22
ATOM     22  O   UNL     1      -3.927  11.918  24.336  0.00  0.00    +0.000 OA
ATOM     23  H   UNL     1      -3.247  11.952  25.034  0.00  0.00    +0.000 HD
ENDBRANCH  21  22
ENDBRANCH  19  21
ENDBRANCH  11  19
ENDBRANCH   1  15
BRANCH   6  24
ATOM     24  O   UNL     1       4.478   4.345  16.517  0.00  0.00    +0.000 OA
BRANCH  24  25
ATOM     25  C   UNL     1       5.579   5.024  15.903  0.00  0.00    +0.000 C 
BRANCH  25  26
ATOM     26  C   UNL     1       6.498   5.625  16.935  0.00  0.00    +0.000 A 
ATOM     27  C   UNL     1       7.077   4.790  17.907  0.00  0.00    +0.000 A 
ATOM     28  C   UNL     1       7.939   5.312  18.869  0.00  0.00    +0.000 A 
ATOM     29  C   UNL     1       8.245   6.671  18.863  0.00  0.00    +0.000 A 
ATOM     30  C   UNL     1       7.692   7.501  17.888  0.00  0.00    +0.000 A 
ATOM     31 CL   UNL     1       8.078   9.178  17.880  0.00  0.00    +0.000 Cl
ATOM     32  C   UNL     1       6.831   6.985  16.921  0.00  0.00    +0.000 A 
ENDBRANCH  25  26
ENDBRANCH  24  25
ENDBRANCH   6  24
TORSDOF 7
ENDMDL
MODEL 9
REMARK VINA RESULT:      -8.2      3.237      4.193
REMARK  Name = 
REMARK  7 active torsions:
REMARK  status: ('A' for Active; 'I' for Inactive)
REMARK    1  A    between atoms: C_2  and  O_3
REMARK    2  A    between atoms: C_2  and  C_4
REMARK    3  A    between atoms: C_4  and  N_5
REMARK    4  A    between atoms: C_9  and  C_10
REMARK    5  A    between atoms: C_15  and  O_16
REMARK    6  A    between atoms: O_16  and  C_17
REMARK    7  A    between atoms: C_17  and  C_18
REMARK                            x       y       z     vdW  Elec       q    Type
REMARK                         _______ _______ _______ _____ _____    ______ ____
ROOT
ATOM      1  C   UNL     1       1.041  10.082  19.403  0.00  0.00    +0.000 A 
ATOM      2  C   UNL     1       1.524   9.911  18.104  0.00  0.00    +0.000 A 
ATOM      3  C   UNL     1       2.055   8.684  17.719  0.00  0.00    +0.000 A 
ATOM      4  C   UNL     1       2.110   7.617  18.623  0.00  0.00    +0.000 A 
ATOM      5  C   UNL     1       2.641   6.386  18.227  0.00  0.00    +0.000 A 
ATOM      6  C   UNL     1       2.655   5.296  19.100  0.00  0.00    +0.000 A 
ATOM      7  C   UNL     1       2.208   5.459  20.409  0.00  0.00    +0.000 A 
ATOM      8  C   UNL     1       1.691   6.690  20.828  0.00  0.00    +0.000 A 
ATOM      9  C   UNL     1       1.623   7.777  19.940  0.00  0.00    +0.000 A 
ATOM     10  C   UNL     1       1.088   9.020  20.316  0.00  0.00    +0.000 A 
ENDROOT
BRANCH   1  15
ATOM     11  N   UNL     1       1.222  14.901  19.317  0.00  0.00    +0.000 N 
ATOM     12  C   UNL     1       0.473  13.855  19.830  0.00  0.00    +0.000 C 
ATOM     13  O   UNL     1      -0.485  13.945  20.585  0.00  0.00    +0.000 OA
ATOM     14  C   UNL     1       1.035  12.554  19.390  0.00  0.00    +0.000 C 
ATOM     15  C   UNL     1       0.527  11.388  19.807  0.00  0.00    +0.000 C 
ATOM     16  S   UNL     1       2.375  12.806  18.351  0.00  0.00    +0.000 S 
ATOM     17  C   UNL     1       2.290  14.553  18.507  0.00  0.00    +0.000 C 
ATOM     18  S   UNL     1       3.392  15.560  17.768  0.00  0.00    +0.000 S 
BRANCH  11  19
ATOM     19  C   UNL     1       0.823  16.298  19.552  0.00  0.00    +0.000 C 
BRANCH  19  21
ATOM     20  O   UNL     1      -0.200  17.278  17.579  0.00  0.00    +0.000 OA
ATOM     21  C   UNL     1      -0.345  16.771  18.684  0.00  0.00    +0.000 C 
BRANCH  21  22
ATOM     22  O   UNL     1      -1.568  16.451  19.163  0.00  0.00    +0.000 OA
ATOM     23  H   UNL     1      -1.717  15.494  19.277  0.00  0.00    +0.000 HD
ENDBRANCH  21  22
ENDBRANCH  19  21
ENDBRANCH  11  19
ENDBRANCH   1  15
BRANCH   6  24
ATOM     24  O   UNL     1       3.074   4.038  18.755  0.00  0.00    +0.000 OA
BRANCH  24  25
ATOM     25  C   UNL     1       4.449   3.773  19.048  0.00  0.00    +0.000 C 
BRANCH  25  26
ATOM     26  C   UNL     1       5.354   4.306  17.966  0.00  0.00    +0.000 A 
ATOM     27  C   UNL     1       6.417   5.155  18.318  0.00  0.00    +0.000 A 
ATOM     28  C   UNL     1       7.278   5.657  17.344  0.00  0.00    +0.000 A 
ATOM     29  C   UNL     1       7.096   5.303  16.009  0.00  0.00    +0.000 A 
ATOM     30  C   UNL     1       6.058   4.442  15.655  0.00  0.00    +0.000 A 
ATOM     31 CL   UNL     1       5.842   4.002  14.006  0.00  0.00    +0.000 Cl
ATOM     32  C   UNL     1       5.194   3.935  16.625  0.00  0.00    +0.000 A 
ENDBRANCH  25  26
ENDBRANCH  24  25
ENDBRANCH   6  24
TORSDOF 7
ENDMDL
