MODEL 1
REMARK VINA RESULT:      -9.2      0.000      0.000
REMARK  Name = 
REMARK  1 active torsions:
REMARK  status: ('A' for Active; 'I' for Inactive)
REMARK    1  A    between atoms: N_1  and  C_2
REMARK                            x       y       z     vdW  Elec       q    Type
REMARK                         _______ _______ _______ _____ _____    ______ ____
ROOT
ATOM      1  C   UNL     1       5.169   4.117  18.964  0.00  0.00    +0.000 A 
ATOM      2  N   UNL     1       6.237   4.030  18.176  0.00  0.00    +0.000 NA
ATOM      3  C   UNL     1       6.255   4.796  17.095  0.00  0.00    +0.000 A 
ATOM      4  C   UNL     1       7.285   4.548  16.229  0.00  0.00    +0.000 A 
ATOM      5  C   UNL     1       7.031   4.526  14.882  0.00  0.00    +0.000 A 
ATOM      6  C   UNL     1       5.986   5.299  14.437  0.00  0.00    +0.000 A 
ATOM      7  C   UNL     1       5.177   6.005  15.353  0.00  0.00    +0.000 A 
ATOM      8  C   UNL     1       5.238   5.680  16.742  0.00  0.00    +0.000 A 
ATOM      9  C   UNL     1       4.303   6.047  17.784  0.00  0.00    +0.000 A 
ATOM     10  C   UNL     1       3.403   7.185  17.796  0.00  0.00    +0.000 A 
ATOM     11  C   UNL     1       2.549   7.451  18.905  0.00  0.00    +0.000 A 
ATOM     12  C   UNL     1       2.531   6.491  19.916  0.00  0.00    +0.000 A 
ATOM     13  C   UNL     1       3.332   5.355  19.917  0.00  0.00    +0.000 A 
ATOM     14  C   UNL     1       4.265   5.180  18.898  0.00  0.00    +0.000 A 
ATOM     15  N   UNL     1       1.657   6.892  20.888  0.00  0.00    +0.000 N 
ATOM     16  C   UNL     1       1.128   8.115  20.584  0.00  0.00    +0.000 A 
ATOM     17  C   UNL     1       0.241   8.880  21.360  0.00  0.00    +0.000 A 
ATOM     18  C   UNL     1      -0.175  10.131  20.828  0.00  0.00    +0.000 A 
ATOM     19  C   UNL     1       0.335  10.563  19.604  0.00  0.00    +0.000 A 
ATOM     20  C   UNL     1       1.209   9.753  18.848  0.00  0.00    +0.000 A 
ATOM     21  C   UNL     1       1.634   8.493  19.345  0.00  0.00    +0.000 A 
ATOM     22  H   UNL     1       1.471   6.378  21.737  0.00  0.00    +0.000 HD
ENDROOT
BRANCH   1  23
ATOM     23  N   UNL     1       5.019   3.035  19.830  0.00  0.00    +0.000 N 
ATOM     24  H   UNL     1       5.755   3.131  20.523  0.00  0.00    +0.000 HD
ATOM     25  H   UNL     1       4.104   3.017  20.253  0.00  0.00    +0.000 HD
ENDBRANCH   1  23
TORSDOF 1
ENDMDL
MODEL 2
REMARK VINA RESULT:      -7.9      3.750      7.229
REMARK  Name = 
REMARK  1 active torsions:
REMARK  status: ('A' for Active; 'I' for Inactive)
REMARK    1  A    between atoms: N_1  and  C_2
REMARK                            x       y       z     vdW  Elec       q    Type
REMARK                         _______ _______ _______ _____ _____    ______ ____
ROOT
ATOM      1  C   UNL     1       5.865   4.624  19.349  0.00  0.00    +0.000 A 
ATOM      2  N   UNL     1       5.100   3.971  20.218  0.00  0.00    +0.000 NA
ATOM      3  C   UNL     1       3.952   3.485  19.767  0.00  0.00    +0.000 A 
ATOM      4  C   UNL     1       3.124   2.976  20.729  0.00  0.00    +0.000 A 
ATOM      5  C   UNL     1       1.781   3.251  20.665  0.00  0.00    +0.000 A 
ATOM      6  C   UNL     1       1.257   3.480  19.416  0.00  0.00    +0.000 A 
ATOM      7  C   UNL     1       2.095   3.508  18.281  0.00  0.00    +0.000 A 
ATOM      8  C   UNL     1       3.509   3.612  18.453  0.00  0.00    +0.000 A 
ATOM      9  C   UNL     1       4.503   3.960  17.460  0.00  0.00    +0.000 A 
ATOM     10  C   UNL     1       4.400   3.803  16.021  0.00  0.00    +0.000 A 
ATOM     11  C   UNL     1       5.470   4.161  15.152  0.00  0.00    +0.000 A 
ATOM     12  C   UNL     1       6.566   4.786  15.745  0.00  0.00    +0.000 A 
ATOM     13  C   UNL     1       6.680   5.011  17.113  0.00  0.00    +0.000 A 
ATOM     14  C   UNL     1       5.692   4.528  17.966  0.00  0.00    +0.000 A 
ATOM     15  N   UNL     1       7.487   5.071  14.777  0.00  0.00    +0.000 N 
ATOM     16  C   UNL     1       7.066   4.610  13.561  0.00  0.00    +0.000 A 
ATOM     17  C   UNL     1       7.758   4.661  12.340  0.00  0.00    +0.000 A 
ATOM     18  C   UNL     1       7.108   4.113  11.201  0.00  0.00    +0.000 A 
ATOM     19  C   UNL     1       5.854   3.519  11.342  0.00  0.00    +0.000 A 
ATOM     20  C   UNL     1       5.186   3.507  12.585  0.00  0.00    +0.000 A 
ATOM     21  C   UNL     1       5.802   4.058  13.740  0.00  0.00    +0.000 A 
ATOM     22  H   UNL     1       8.379   5.514  14.948  0.00  0.00    +0.000 HD
ENDROOT
BRANCH   1  23
ATOM     23  N   UNL     1       6.826   5.438  19.946  0.00  0.00    +0.000 N 
ATOM     24  H   UNL     1       7.720   5.129  19.576  0.00  0.00    +0.000 HD
ATOM     25  H   UNL     1       6.660   6.415  19.759  0.00  0.00    +0.000 HD
ENDBRANCH   1  23
TORSDOF 1
ENDMDL
MODEL 3
REMARK VINA RESULT:      -7.9      2.805      4.411
REMARK  Name = 
REMARK  1 active torsions:
REMARK  status: ('A' for Active; 'I' for Inactive)
REMARK    1  A    between atoms: N_1  and  C_2
REMARK                            x       y       z     vdW  Elec       q    Type
REMARK                         _______ _______ _______ _____ _____    ______ ____
ROOT
ATOM      1  C   UNL     1       2.930   6.236  18.068  0.00  0.00    +0.000 A 
ATOM      2  N   UNL     1       2.830   4.913  17.982  0.00  0.00    +0.000 NA
ATOM      3  C   UNL     1       2.421   4.267  19.065  0.00  0.00    +0.000 A 
ATOM      4  C   UNL     1       2.499   2.903  18.985  0.00  0.00    +0.000 A 
ATOM      5  C   UNL     1       2.963   2.199  20.067  0.00  0.00    +0.000 A 
ATOM      6  C   UNL     1       2.764   2.764  21.303  0.00  0.00    +0.000 A 
ATOM      7  C   UNL     1       2.183   4.044  21.421  0.00  0.00    +0.000 A 
ATOM      8  C   UNL     1       2.088   4.883  20.268  0.00  0.00    +0.000 A 
ATOM      9  C   UNL     1       1.823   6.305  20.221  0.00  0.00    +0.000 A 
ATOM     10  C   UNL     1       1.125   7.101  21.213  0.00  0.00    +0.000 A 
ATOM     11  C   UNL     1       0.904   8.496  21.029  0.00  0.00    +0.000 A 
ATOM     12  C   UNL     1       1.504   9.077  19.913  0.00  0.00    +0.000 A 
ATOM     13  C   UNL     1       2.233   8.362  18.969  0.00  0.00    +0.000 A 
ATOM     14  C   UNL     1       2.321   6.977  19.083  0.00  0.00    +0.000 A 
ATOM     15  N   UNL     1       1.205  10.410  19.895  0.00  0.00    +0.000 N 
ATOM     16  C   UNL     1       0.381  10.732  20.936  0.00  0.00    +0.000 A 
ATOM     17  C   UNL     1      -0.188  11.985  21.222  0.00  0.00    +0.000 A 
ATOM     18  C   UNL     1      -1.019  12.074  22.372  0.00  0.00    +0.000 A 
ATOM     19  C   UNL     1      -1.269  10.933  23.133  0.00  0.00    +0.000 A 
ATOM     20  C   UNL     1      -0.660   9.698  22.821  0.00  0.00    +0.000 A 
ATOM     21  C   UNL     1       0.185   9.577  21.686  0.00  0.00    +0.000 A 
ATOM     22  H   UNL     1       1.510  11.055  19.180  0.00  0.00    +0.000 HD
ENDROOT
BRANCH   1  23
ATOM     23  N   UNL     1       3.726   6.806  17.075  0.00  0.00    +0.000 N 
ATOM     24  H   UNL     1       3.114   7.426  16.552  0.00  0.00    +0.000 HD
ATOM     25  H   UNL     1       4.516   7.297  17.464  0.00  0.00    +0.000 HD
ENDBRANCH   1  23
TORSDOF 1
ENDMDL
MODEL 4
REMARK VINA RESULT:      -7.8      1.106      1.466
REMARK  Name = 
REMARK  1 active torsions:
REMARK  status: ('A' for Active; 'I' for Inactive)
REMARK    1  A    between atoms: N_1  and  C_2
REMARK                            x       y       z     vdW  Elec       q    Type
REMARK                         _______ _______ _______ _____ _____    ______ ____
ROOT
ATOM      1  C   UNL     1       3.704   4.690  19.555  0.00  0.00    +0.000 A 
ATOM      2  N   UNL     1       4.846   4.303  18.996  0.00  0.00    +0.000 NA
ATOM      3  C   UNL     1       5.255   4.975  17.929  0.00  0.00    +0.000 A 
ATOM      4  C   UNL     1       6.337   4.436  17.288  0.00  0.00    +0.000 A 
ATOM      5  C   UNL     1       6.344   4.392  15.917  0.00  0.00    +0.000 A 
ATOM      6  C   UNL     1       5.624   5.362  15.264  0.00  0.00    +0.000 A 
ATOM      7  C   UNL     1       4.856   6.296  15.992  0.00  0.00    +0.000 A 
ATOM      8  C   UNL     1       4.572   6.051  17.370  0.00  0.00    +0.000 A 
ATOM      9  C   UNL     1       3.577   6.694  18.201  0.00  0.00    +0.000 A 
ATOM     10  C   UNL     1       2.998   8.012  18.019  0.00  0.00    +0.000 A 
ATOM     11  C   UNL     1       2.043   8.542  18.933  0.00  0.00    +0.000 A 
ATOM     12  C   UNL     1       1.599   7.679  19.934  0.00  0.00    +0.000 A 
ATOM     13  C   UNL     1       2.082   6.386  20.109  0.00  0.00    +0.000 A 
ATOM     14  C   UNL     1       3.118   5.931  19.298  0.00  0.00    +0.000 A 
ATOM     15  N   UNL     1       0.684   8.335  20.708  0.00  0.00    +0.000 N 
ATOM     16  C   UNL     1       0.537   9.627  20.288  0.00  0.00    +0.000 A 
ATOM     17  C   UNL     1      -0.264  10.628  20.862  0.00  0.00    +0.000 A 
ATOM     18  C   UNL     1      -0.252  11.907  20.242  0.00  0.00    +0.000 A 
ATOM     19  C   UNL     1       0.569  12.129  19.137  0.00  0.00    +0.000 A 
ATOM     20  C   UNL     1       1.344  11.089  18.580  0.00  0.00    +0.000 A 
ATOM     21  C   UNL     1       1.345   9.796  19.168  0.00  0.00    +0.000 A 
ATOM     22  H   UNL     1       0.220   7.933  21.510  0.00  0.00    +0.000 HD
ENDROOT
BRANCH   1  23
ATOM     23  N   UNL     1       3.132   3.731  20.389  0.00  0.00    +0.000 N 
ATOM     24  H   UNL     1       3.839   3.011  20.508  0.00  0.00    +0.000 HD
ATOM     25  H   UNL     1       2.844   4.124  21.272  0.00  0.00    +0.000 HD
ENDBRANCH   1  23
TORSDOF 1
ENDMDL
MODEL 5
REMARK VINA RESULT:      -7.8      2.632      8.196
REMARK  Name = 
REMARK  1 active torsions:
REMARK  status: ('A' for Active; 'I' for Inactive)
REMARK    1  A    between atoms: N_1  and  C_2
REMARK                            x       y       z     vdW  Elec       q    Type
REMARK                         _______ _______ _______ _____ _____    ______ ____
ROOT
ATOM      1  C   UNL     1       0.725  12.062  19.179  0.00  0.00    +0.000 A 
ATOM      2  N   UNL     1       0.430  12.851  20.207  0.00  0.00    +0.000 NA
ATOM      3  C   UNL     1       0.085  12.261  21.342  0.00  0.00    +0.000 A 
ATOM      4  C   UNL     1      -0.375  13.106  22.315  0.00  0.00    +0.000 A 
ATOM      5  C   UNL     1      -1.470  12.736  23.055  0.00  0.00    +0.000 A 
ATOM      6  C   UNL     1      -1.677  11.389  23.219  0.00  0.00    +0.000 A 
ATOM      7  C   UNL     1      -0.839  10.451  22.579  0.00  0.00    +0.000 A 
ATOM      8  C   UNL     1       0.019  10.881  21.521  0.00  0.00    +0.000 A 
ATOM      9  C   UNL     1       0.711  10.064  20.548  0.00  0.00    +0.000 A 
ATOM     10  C   UNL     1       1.103   8.674  20.687  0.00  0.00    +0.000 A 
ATOM     11  C   UNL     1       1.810   7.991  19.657  0.00  0.00    +0.000 A 
ATOM     12  C   UNL     1       1.990   8.686  18.462  0.00  0.00    +0.000 A 
ATOM     13  C   UNL     1       1.576   9.999  18.264  0.00  0.00    +0.000 A 
ATOM     14  C   UNL     1       1.015  10.704  19.325  0.00  0.00    +0.000 A 
ATOM     15  N   UNL     1       2.668   7.888  17.585  0.00  0.00    +0.000 N 
ATOM     16  C   UNL     1       2.994   6.697  18.171  0.00  0.00    +0.000 A 
ATOM     17  C   UNL     1       3.738   5.644  17.614  0.00  0.00    +0.000 A 
ATOM     18  C   UNL     1       3.948   4.496  18.425  0.00  0.00    +0.000 A 
ATOM     19  C   UNL     1       3.456   4.474  19.730  0.00  0.00    +0.000 A 
ATOM     20  C   UNL     1       2.697   5.547  20.243  0.00  0.00    +0.000 A 
ATOM     21  C   UNL     1       2.459   6.704  19.455  0.00  0.00    +0.000 A 
ATOM     22  H   UNL     1       2.936   8.163  16.651  0.00  0.00    +0.000 HD
ENDROOT
BRANCH   1  23
ATOM     23  N   UNL     1       0.682  12.707  17.944  0.00  0.00    +0.000 N 
ATOM     24  H   UNL     1      -0.209  12.452  17.529  0.00  0.00    +0.000 HD
ATOM     25  H   UNL     1       0.781  13.706  18.038  0.00  0.00    +0.000 HD
ENDBRANCH   1  23
TORSDOF 1
ENDMDL
MODEL 6
REMARK VINA RESULT:      -7.8      2.904      7.683
REMARK  Name = 
REMARK  1 active torsions:
REMARK  status: ('A' for Active; 'I' for Inactive)
REMARK    1  A    between atoms: N_1  and  C_2
REMARK                            x       y       z     vdW  Elec       q    Type
REMARK                         _______ _______ _______ _____ _____    ______ ____
ROOT
ATOM      1  C   UNL     1       1.365  10.437  19.145  0.00  0.00    +0.000 A 
ATOM      2  N   UNL     1       1.111  11.420  20.003  0.00  0.00    +0.000 NA
ATOM      3  C   UNL     1       0.608  11.079  21.181  0.00  0.00    +0.000 A 
ATOM      4  C   UNL     1       0.203  12.128  21.960  0.00  0.00    +0.000 A 
ATOM      5  C   UNL     1      -0.981  12.032  22.645  0.00  0.00    +0.000 A 
ATOM      6  C   UNL     1      -1.387  10.769  23.001  0.00  0.00    +0.000 A 
ATOM      7  C   UNL     1      -0.646   9.638  22.598  0.00  0.00    +0.000 A 
ATOM      8  C   UNL     1       0.337   9.770  21.570  0.00  0.00    +0.000 A 
ATOM      9  C   UNL     1       0.974   8.719  20.806  0.00  0.00    +0.000 A 
ATOM     10  C   UNL     1       1.156   7.334  21.200  0.00  0.00    +0.000 A 
ATOM     11  C   UNL     1       1.831   6.401  20.361  0.00  0.00    +0.000 A 
ATOM     12  C   UNL     1       2.190   6.856  19.093  0.00  0.00    +0.000 A 
ATOM     13  C   UNL     1       1.980   8.158  18.652  0.00  0.00    +0.000 A 
ATOM     14  C   UNL     1       1.449   9.098  19.531  0.00  0.00    +0.000 A 
ATOM     15  N   UNL     1       2.810   5.841  18.420  0.00  0.00    +0.000 N 
ATOM     16  C   UNL     1       2.924   4.736  19.216  0.00  0.00    +0.000 A 
ATOM     17  C   UNL     1       3.550   3.517  18.903  0.00  0.00    +0.000 A 
ATOM     18  C   UNL     1       3.538   2.506  19.902  0.00  0.00    +0.000 A 
ATOM     19  C   UNL     1       2.958   2.769  21.143  0.00  0.00    +0.000 A 
ATOM     20  C   UNL     1       2.323   4.001  21.407  0.00  0.00    +0.000 A 
ATOM     21  C   UNL     1       2.305   5.028  20.427  0.00  0.00    +0.000 A 
ATOM     22  H   UNL     1       3.179   5.918  17.483  0.00  0.00    +0.000 HD
ENDROOT
BRANCH   1  23
ATOM     23  N   UNL     1       1.500  10.864  17.825  0.00  0.00    +0.000 N 
ATOM     24  H   UNL     1       2.454  10.641  17.558  0.00  0.00    +0.000 HD
ATOM     25  H   UNL     1       0.827  10.422  17.217  0.00  0.00    +0.000 HD
ENDBRANCH   1  23
TORSDOF 1
ENDMDL
MODEL 7
REMARK VINA RESULT:      -7.8      2.400      4.196
REMARK  Name = 
REMARK  1 active torsions:
REMARK  status: ('A' for Active; 'I' for Inactive)
REMARK    1  A    between atoms: N_1  and  C_2
REMARK                            x       y       z     vdW  Elec       q    Type
REMARK                         _______ _______ _______ _____ _____    ______ ____
ROOT
ATOM      1  C   UNL     1       3.604   5.828  17.570  0.00  0.00    +0.000 A 
ATOM      2  N   UNL     1       3.392   4.535  17.796  0.00  0.00    +0.000 NA
ATOM      3  C   UNL     1       2.756   4.213  18.913  0.00  0.00    +0.000 A 
ATOM      4  C   UNL     1       2.715   2.873  19.187  0.00  0.00    +0.000 A 
ATOM      5  C   UNL     1       2.931   2.449  20.473  0.00  0.00    +0.000 A 
ATOM      6  C   UNL     1       2.594   3.324  21.477  0.00  0.00    +0.000 A 
ATOM      7  C   UNL     1       2.128   4.620  21.171  0.00  0.00    +0.000 A 
ATOM      8  C   UNL     1       2.298   5.136  19.850  0.00  0.00    +0.000 A 
ATOM      9  C   UNL     1       2.182   6.509  19.408  0.00  0.00    +0.000 A 
ATOM     10  C   UNL     1       1.415   7.570  20.033  0.00  0.00    +0.000 A 
ATOM     11  C   UNL     1       1.362   8.880  19.476  0.00  0.00    +0.000 A 
ATOM     12  C   UNL     1       2.184   9.120  18.377  0.00  0.00    +0.000 A 
ATOM     13  C   UNL     1       2.982   8.148  17.783  0.00  0.00    +0.000 A 
ATOM     14  C   UNL     1       2.916   6.837  18.248  0.00  0.00    +0.000 A 
ATOM     15  N   UNL     1       2.022  10.417  17.979  0.00  0.00    +0.000 N 
ATOM     16  C   UNL     1       1.078  11.041  18.746  0.00  0.00    +0.000 A 
ATOM     17  C   UNL     1       0.594  12.353  18.609  0.00  0.00    +0.000 A 
ATOM     18  C   UNL     1      -0.396  12.780  19.535  0.00  0.00    +0.000 A 
ATOM     19  C   UNL     1      -0.872  11.889  20.496  0.00  0.00    +0.000 A 
ATOM     20  C   UNL     1      -0.343  10.585  20.611  0.00  0.00    +0.000 A 
ATOM     21  C   UNL     1       0.655  10.131  19.710  0.00  0.00    +0.000 A 
ATOM     22  H   UNL     1       2.497  10.839  17.194  0.00  0.00    +0.000 HD
ENDROOT
BRANCH   1  23
ATOM     23  N   UNL     1       4.599   6.079  16.626  0.00  0.00    +0.000 N 
ATOM     24  H   UNL     1       4.682   7.090  16.574  0.00  0.00    +0.000 HD
ATOM     25  H   UNL     1       5.473   5.642  16.876  0.00  0.00    +0.000 HD
ENDBRANCH   1  23
TORSDOF 1
ENDMDL
MODEL 8
REMARK VINA RESULT:      -7.7      2.170      7.258
REMARK  Name = 
REMARK  1 active torsions:
REMARK  status: ('A' for Active; 'I' for Inactive)
REMARK    1  A    between atoms: N_1  and  C_2
REMARK                            x       y       z     vdW  Elec       q    Type
REMARK                         _______ _______ _______ _____ _____    ______ ____
ROOT
ATOM      1  C   UNL     1      -0.247   9.733  21.705  0.00  0.00    +0.000 A 
ATOM      2  N   UNL     1      -0.911  10.788  21.240  0.00  0.00    +0.000 NA
ATOM      3  C   UNL     1      -0.465  11.336  20.119  0.00  0.00    +0.000 A 
ATOM      4  C   UNL     1      -1.069  12.515  19.775  0.00  0.00    +0.000 A 
ATOM      5  C   UNL     1      -0.296  13.546  19.305  0.00  0.00    +0.000 A 
ATOM      6  C   UNL     1       0.867  13.202  18.659  0.00  0.00    +0.000 A 
ATOM      7  C   UNL     1       1.263  11.851  18.568  0.00  0.00    +0.000 A 
ATOM      8  C   UNL     1       0.638  10.876  19.405  0.00  0.00    +0.000 A 
ATOM      9  C   UNL     1       1.087   9.532  19.694  0.00  0.00    +0.000 A 
ATOM     10  C   UNL     1       1.946   8.697  18.875  0.00  0.00    +0.000 A 
ATOM     11  C   UNL     1       2.291   7.371  19.264  0.00  0.00    +0.000 A 
ATOM     12  C   UNL     1       1.868   6.967  20.530  0.00  0.00    +0.000 A 
ATOM     13  C   UNL     1       1.094   7.757  21.373  0.00  0.00    +0.000 A 
ATOM     14  C   UNL     1       0.644   8.995  20.923  0.00  0.00    +0.000 A 
ATOM     15  N   UNL     1       2.291   5.686  20.748  0.00  0.00    +0.000 N 
ATOM     16  C   UNL     1       2.940   5.200  19.648  0.00  0.00    +0.000 A 
ATOM     17  C   UNL     1       3.467   3.911  19.466  0.00  0.00    +0.000 A 
ATOM     18  C   UNL     1       4.105   3.639  18.225  0.00  0.00    +0.000 A 
ATOM     19  C   UNL     1       4.147   4.625  17.240  0.00  0.00    +0.000 A 
ATOM     20  C   UNL     1       3.622   5.914  17.473  0.00  0.00    +0.000 A 
ATOM     21  C   UNL     1       2.989   6.223  18.706  0.00  0.00    +0.000 A 
ATOM     22  H   UNL     1       2.102   5.157  21.587  0.00  0.00    +0.000 HD
ENDROOT
BRANCH   1  23
ATOM     23  N   UNL     1      -0.496   9.459  23.049  0.00  0.00    +0.000 N 
ATOM     24  H   UNL     1      -1.506   9.489  23.155  0.00  0.00    +0.000 HD
ATOM     25  H   UNL     1      -0.115   8.568  23.327  0.00  0.00    +0.000 HD
ENDBRANCH   1  23
TORSDOF 1
ENDMDL
MODEL 9
REMARK VINA RESULT:      -7.6      2.052      3.619
REMARK  Name = 
REMARK  1 active torsions:
REMARK  status: ('A' for Active; 'I' for Inactive)
REMARK    1  A    between atoms: N_1  and  C_2
REMARK                            x       y       z     vdW  Elec       q    Type
REMARK                         _______ _______ _______ _____ _____    ______ ____
ROOT
ATOM      1  C   UNL     1       4.238   5.585  16.938  0.00  0.00    +0.000 A 
ATOM      2  N   UNL     1       4.151   4.260  17.011  0.00  0.00    +0.000 NA
ATOM      3  C   UNL     1       3.584   3.751  18.096  0.00  0.00    +0.000 A 
ATOM      4  C   UNL     1       3.672   2.390  18.208  0.00  0.00    +0.000 A 
ATOM      5  C   UNL     1       3.969   1.841  19.429  0.00  0.00    +0.000 A 
ATOM      6  C   UNL     1       3.587   2.557  20.538  0.00  0.00    +0.000 A 
ATOM      7  C   UNL     1       2.996   3.830  20.399  0.00  0.00    +0.000 A 
ATOM      8  C   UNL     1       3.075   4.511  19.146  0.00  0.00    +0.000 A 
ATOM      9  C   UNL     1       2.821   5.909  18.875  0.00  0.00    +0.000 A 
ATOM     10  C   UNL     1       1.983   6.814  19.639  0.00  0.00    +0.000 A 
ATOM     11  C   UNL     1       1.792   8.169  19.244  0.00  0.00    +0.000 A 
ATOM     12  C   UNL     1       2.554   8.612  18.163  0.00  0.00    +0.000 A 
ATOM     13  C   UNL     1       3.415   7.795  17.440  0.00  0.00    +0.000 A 
ATOM     14  C   UNL     1       3.484   6.439  17.746  0.00  0.00    +0.000 A 
ATOM     15  N   UNL     1       2.261   9.926  17.928  0.00  0.00    +0.000 N 
ATOM     16  C   UNL     1       1.291  10.364  18.784  0.00  0.00    +0.000 A 
ATOM     17  C   UNL     1       0.686  11.632  18.816  0.00  0.00    +0.000 A 
ATOM     18  C   UNL     1      -0.308  11.853  19.808  0.00  0.00    +0.000 A 
ATOM     19  C   UNL     1      -0.669  10.815  20.666  0.00  0.00    +0.000 A 
ATOM     20  C   UNL     1      -0.021   9.562  20.612  0.00  0.00    +0.000 A 
ATOM     21  C   UNL     1       0.984   9.312  19.641  0.00  0.00    +0.000 A 
ATOM     22  H   UNL     1       2.671  10.479  17.188  0.00  0.00    +0.000 HD
ENDROOT
BRANCH   1  23
ATOM     23  N   UNL     1       5.174   6.036  16.009  0.00  0.00    +0.000 N 
ATOM     24  H   UNL     1       4.699   6.027  15.111  0.00  0.00    +0.000 HD
ATOM     25  H   UNL     1       5.521   6.954  16.241  0.00  0.00    +0.000 HD
ENDBRANCH   1  23
TORSDOF 1
ENDMDL
