MODEL 1
REMARK VINA RESULT:      -7.6      0.000      0.000
REMARK  Name = 
REMARK  6 active torsions:
REMARK  status: ('A' for Active; 'I' for Inactive)
REMARK    1  A    between atoms: C_2  and  C_4
REMARK    2  A    between atoms: C_8  and  N_9
REMARK    3  A    between atoms: C_10  and  C_12
REMARK    4  A    between atoms: C_12  and  O_13
REMARK    5  A    between atoms: O_13  and  C_14
REMARK    6  A    between atoms: C_14  and  C_16
REMARK                            x       y       z     vdW  Elec       q    Type
REMARK                         _______ _______ _______ _____ _____    ______ ____
ROOT
ATOM      1  N   UNL     1       4.607   5.188  19.331  0.00  0.00    +0.000 N 
ATOM      2  C   UNL     1       4.729   5.667  18.027  0.00  0.00    +0.000 C 
ATOM      3  O   UNL     1       3.832   5.623  17.181  0.00  0.00    +0.000 OA
ATOM      4  H   UNL     1       5.158   5.624  20.056  0.00  0.00    +0.000 HD
ENDROOT
BRANCH   1   9
ATOM      5  C   UNL     1       3.034   3.236  19.586  0.00  0.00    +0.000 A 
ATOM      6  C   UNL     1       1.656   3.085  19.989  0.00  0.00    +0.000 A 
ATOM      7  C   UNL     1       1.096   4.264  20.423  0.00  0.00    +0.000 A 
ATOM      8  S   UNL     1       2.187   5.562  20.324  0.00  0.00    +0.000 S 
ATOM      9  C   UNL     1       3.427   4.557  19.710  0.00  0.00    +0.000 A 
BRANCH   5  11
ATOM     10  N   UNL     1       4.936   1.862  20.040  0.00  0.00    +0.000 N 
ATOM     11  C   UNL     1       3.881   2.111  19.201  0.00  0.00    +0.000 C 
ATOM     12  O   UNL     1       3.639   1.365  18.261  0.00  0.00    +0.000 OA
ATOM     13  H   UNL     1       5.338   0.938  19.942  0.00  0.00    +0.000 HD
ATOM     14  H   UNL     1       4.895   2.237  20.978  0.00  0.00    +0.000 HD
ENDBRANCH   5  11
ENDBRANCH   1   9
BRANCH   2  15
ATOM     15  C   UNL     1       6.047   6.380  17.737  0.00  0.00    +0.000 C 
BRANCH  15  16
ATOM     16  O   UNL     1       6.392   6.295  16.352  0.00  0.00    +0.000 OA
BRANCH  16  17
ATOM     17  C   UNL     1       7.160   5.222  16.048  0.00  0.00    +0.000 C 
ATOM     18  O   UNL     1       7.929   4.663  16.816  0.00  0.00    +0.000 OA
BRANCH  17  19
ATOM     19  C   UNL     1       6.910   4.746  14.673  0.00  0.00    +0.000 A 
ATOM     20  C   UNL     1       7.767   5.178  13.649  0.00  0.00    +0.000 A 
ATOM     21  C   UNL     1       7.545   4.774  12.330  0.00  0.00    +0.000 A 
ATOM     22  C   UNL     1       6.466   3.945  12.025  0.00  0.00    +0.000 A 
ATOM     23  C   UNL     1       5.608   3.520  13.039  0.00  0.00    +0.000 A 
ATOM     24  C   UNL     1       5.829   3.924  14.356  0.00  0.00    +0.000 A 
ATOM     25  F   UNL     1       4.952   3.531  15.290  0.00  0.00    +0.000 F 
ENDBRANCH  17  19
ENDBRANCH  16  17
ENDBRANCH  15  16
ENDBRANCH   2  15
TORSDOF 6
ENDMDL
MODEL 2
REMARK VINA RESULT:      -7.6      1.306      1.663
REMARK  Name = 
REMARK  6 active torsions:
REMARK  status: ('A' for Active; 'I' for Inactive)
REMARK    1  A    between atoms: C_2  and  C_4
REMARK    2  A    between atoms: C_8  and  N_9
REMARK    3  A    between atoms: C_10  and  C_12
REMARK    4  A    between atoms: C_12  and  O_13
REMARK    5  A    between atoms: O_13  and  C_14
REMARK    6  A    between atoms: C_14  and  C_16
REMARK                            x       y       z     vdW  Elec       q    Type
REMARK                         _______ _______ _______ _____ _____    ______ ____
ROOT
ATOM      1  N   UNL     1       4.060   5.361  18.305  0.00  0.00    +0.000 N 
ATOM      2  C   UNL     1       5.391   5.583  18.657  0.00  0.00    +0.000 C 
ATOM      3  O   UNL     1       5.908   5.202  19.710  0.00  0.00    +0.000 OA
ATOM      4  H   UNL     1       3.828   5.293  17.325  0.00  0.00    +0.000 HD
ENDROOT
BRANCH   1   9
ATOM      5  C   UNL     1       3.055   3.378  19.492  0.00  0.00    +0.000 A 
ATOM      6  C   UNL     1       1.955   3.191  20.408  0.00  0.00    +0.000 A 
ATOM      7  C   UNL     1       1.378   4.377  20.798  0.00  0.00    +0.000 A 
ATOM      8  S   UNL     1       2.112   5.717  20.055  0.00  0.00    +0.000 S 
ATOM      9  C   UNL     1       3.221   4.723  19.213  0.00  0.00    +0.000 A 
BRANCH   5  11
ATOM     10  N   UNL     1       5.063   2.106  19.736  0.00  0.00    +0.000 N 
ATOM     11  C   UNL     1       3.903   2.284  19.029  0.00  0.00    +0.000 C 
ATOM     12  O   UNL     1       3.585   1.504  18.140  0.00  0.00    +0.000 OA
ATOM     13  H   UNL     1       5.495   1.199  19.608  0.00  0.00    +0.000 HD
ATOM     14  H   UNL     1       5.118   2.502  20.665  0.00  0.00    +0.000 HD
ENDBRANCH   5  11
ENDBRANCH   1   9
BRANCH   2  15
ATOM     15  C   UNL     1       6.229   6.249  17.568  0.00  0.00    +0.000 C 
BRANCH  15  16
ATOM     16  O   UNL     1       5.949   5.691  16.280  0.00  0.00    +0.000 OA
BRANCH  16  17
ATOM     17  C   UNL     1       6.949   4.918  15.796  0.00  0.00    +0.000 C 
ATOM     18  O   UNL     1       7.910   4.521  16.436  0.00  0.00    +0.000 OA
BRANCH  17  19
ATOM     19  C   UNL     1       6.708   4.538  14.389  0.00  0.00    +0.000 A 
ATOM     20  C   UNL     1       5.618   3.702  14.099  0.00  0.00    +0.000 A 
ATOM     21  C   UNL     1       5.375   3.294  12.784  0.00  0.00    +0.000 A 
ATOM     22  C   UNL     1       6.219   3.712  11.756  0.00  0.00    +0.000 A 
ATOM     23  C   UNL     1       7.308   4.537  12.042  0.00  0.00    +0.000 A 
ATOM     24  C   UNL     1       7.550   4.943  13.354  0.00  0.00    +0.000 A 
ATOM     25  F   UNL     1       8.634   5.695  13.589  0.00  0.00    +0.000 F 
ENDBRANCH  17  19
ENDBRANCH  16  17
ENDBRANCH  15  16
ENDBRANCH   2  15
TORSDOF 6
ENDMDL
MODEL 3
REMARK VINA RESULT:      -7.5      1.882      2.860
REMARK  Name = 
REMARK  6 active torsions:
REMARK  status: ('A' for Active; 'I' for Inactive)
REMARK    1  A    between atoms: C_2  and  C_4
REMARK    2  A    between atoms: C_8  and  N_9
REMARK    3  A    between atoms: C_10  and  C_12
REMARK    4  A    between atoms: C_12  and  O_13
REMARK    5  A    between atoms: O_13  and  C_14
REMARK    6  A    between atoms: C_14  and  C_16
REMARK                            x       y       z     vdW  Elec       q    Type
REMARK                         _______ _______ _______ _____ _____    ______ ____
ROOT
ATOM      1  N   UNL     1       4.930   5.594  19.067  0.00  0.00    +0.000 N 
ATOM      2  C   UNL     1       5.102   5.910  17.720  0.00  0.00    +0.000 C 
ATOM      3  O   UNL     1       4.237   5.762  16.852  0.00  0.00    +0.000 OA
ATOM      4  H   UNL     1       5.456   6.116  19.753  0.00  0.00    +0.000 HD
ENDROOT
BRANCH   1   9
ATOM      5  C   UNL     1       2.551   5.592  19.899  0.00  0.00    +0.000 A 
ATOM      6  C   UNL     1       1.637   4.577  20.365  0.00  0.00    +0.000 A 
ATOM      7  C   UNL     1       2.145   3.305  20.241  0.00  0.00    +0.000 A 
ATOM      8  S   UNL     1       3.720   3.307  19.605  0.00  0.00    +0.000 S 
ATOM      9  C   UNL     1       3.735   5.012  19.476  0.00  0.00    +0.000 A 
BRANCH   5  11
ATOM     10  N   UNL     1       1.768   7.571  20.987  0.00  0.00    +0.000 N 
ATOM     11  C   UNL     1       2.199   7.006  19.814  0.00  0.00    +0.000 C 
ATOM     12  O   UNL     1       2.360   7.690  18.811  0.00  0.00    +0.000 OA
ATOM     13  H   UNL     1       1.803   8.583  21.000  0.00  0.00    +0.000 HD
ATOM     14  H   UNL     1       2.000   7.102  21.852  0.00  0.00    +0.000 HD
ENDBRANCH   5  11
ENDBRANCH   1   9
BRANCH   2  15
ATOM     15  C   UNL     1       6.432   6.583  17.394  0.00  0.00    +0.000 C 
BRANCH  15  16
ATOM     16  O   UNL     1       6.796   6.385  16.025  0.00  0.00    +0.000 OA
BRANCH  16  17
ATOM     17  C   UNL     1       7.288   5.150  15.768  0.00  0.00    +0.000 C 
ATOM     18  O   UNL     1       7.918   4.461  16.556  0.00  0.00    +0.000 OA
BRANCH  17  19
ATOM     19  C   UNL     1       6.910   4.684  14.418  0.00  0.00    +0.000 A 
ATOM     20  C   UNL     1       5.800   3.834  14.290  0.00  0.00    +0.000 A 
ATOM     21  C   UNL     1       5.429   3.346  13.034  0.00  0.00    +0.000 A 
ATOM     22  C   UNL     1       6.165   3.699  11.903  0.00  0.00    +0.000 A 
ATOM     23  C   UNL     1       7.273   4.538  12.028  0.00  0.00    +0.000 A 
ATOM     24  C   UNL     1       7.643   5.023  13.282  0.00  0.00    +0.000 A 
ATOM     25  F   UNL     1       8.742   5.787  13.361  0.00  0.00    +0.000 F 
ENDBRANCH  17  19
ENDBRANCH  16  17
ENDBRANCH  15  16
ENDBRANCH   2  15
TORSDOF 6
ENDMDL
MODEL 4
REMARK VINA RESULT:      -7.5      1.927      2.569
REMARK  Name = 
REMARK  6 active torsions:
REMARK  status: ('A' for Active; 'I' for Inactive)
REMARK    1  A    between atoms: C_2  and  C_4
REMARK    2  A    between atoms: C_8  and  N_9
REMARK    3  A    between atoms: C_10  and  C_12
REMARK    4  A    between atoms: C_12  and  O_13
REMARK    5  A    between atoms: O_13  and  C_14
REMARK    6  A    between atoms: C_14  and  C_16
REMARK                            x       y       z     vdW  Elec       q    Type
REMARK                         _______ _______ _______ _____ _____    ______ ____
ROOT
ATOM      1  N   UNL     1       4.761   3.403  18.676  0.00  0.00    +0.000 N 
ATOM      2  C   UNL     1       5.499   4.583  18.761  0.00  0.00    +0.000 C 
ATOM      3  O   UNL     1       5.224   5.526  19.507  0.00  0.00    +0.000 OA
ATOM      4  H   UNL     1       5.242   2.554  18.416  0.00  0.00    +0.000 HD
ENDROOT
BRANCH   1   9
ATOM      5  C   UNL     1       2.356   3.876  19.264  0.00  0.00    +0.000 A 
ATOM      6  C   UNL     1       1.501   3.558  20.383  0.00  0.00    +0.000 A 
ATOM      7  C   UNL     1       2.106   2.728  21.298  0.00  0.00    +0.000 A 
ATOM      8  S   UNL     1       3.702   2.349  20.855  0.00  0.00    +0.000 S 
ATOM      9  C   UNL     1       3.596   3.281  19.426  0.00  0.00    +0.000 A 
BRANCH   5  11
ATOM     10  N   UNL     1       2.397   5.915  18.018  0.00  0.00    +0.000 N 
ATOM     11  C   UNL     1       1.905   4.639  18.105  0.00  0.00    +0.000 C 
ATOM     12  O   UNL     1       1.217   4.170  17.206  0.00  0.00    +0.000 OA
ATOM     13  H   UNL     1       2.323   6.330  17.098  0.00  0.00    +0.000 HD
ATOM     14  H   UNL     1       3.230   6.139  18.546  0.00  0.00    +0.000 HD
ENDBRANCH   5  11
ENDBRANCH   1   9
BRANCH   2  15
ATOM     15  C   UNL     1       6.780   4.588  17.931  0.00  0.00    +0.000 C 
BRANCH  15  16
ATOM     16  O   UNL     1       6.525   4.205  16.576  0.00  0.00    +0.000 OA
BRANCH  16  17
ATOM     17  C   UNL     1       6.911   5.132  15.669  0.00  0.00    +0.000 C 
ATOM     18  O   UNL     1       7.417   6.212  15.933  0.00  0.00    +0.000 OA
BRANCH  17  19
ATOM     19  C   UNL     1       6.711   4.655  14.285  0.00  0.00    +0.000 A 
ATOM     20  C   UNL     1       5.617   3.817  14.018  0.00  0.00    +0.000 A 
ATOM     21  C   UNL     1       5.411   3.318  12.729  0.00  0.00    +0.000 A 
ATOM     22  C   UNL     1       6.297   3.648  11.703  0.00  0.00    +0.000 A 
ATOM     23  C   UNL     1       7.389   4.476  11.967  0.00  0.00    +0.000 A 
ATOM     24  C   UNL     1       7.594   4.972  13.254  0.00  0.00    +0.000 A 
ATOM     25  F   UNL     1       8.683   5.723  13.472  0.00  0.00    +0.000 F 
ENDBRANCH  17  19
ENDBRANCH  16  17
ENDBRANCH  15  16
ENDBRANCH   2  15
TORSDOF 6
ENDMDL
MODEL 5
REMARK VINA RESULT:      -7.4      1.920      2.311
REMARK  Name = 
REMARK  6 active torsions:
REMARK  status: ('A' for Active; 'I' for Inactive)
REMARK    1  A    between atoms: C_2  and  C_4
REMARK    2  A    between atoms: C_8  and  N_9
REMARK    3  A    between atoms: C_10  and  C_12
REMARK    4  A    between atoms: C_12  and  O_13
REMARK    5  A    between atoms: O_13  and  C_14
REMARK    6  A    between atoms: C_14  and  C_16
REMARK                            x       y       z     vdW  Elec       q    Type
REMARK                         _______ _______ _______ _____ _____    ______ ____
ROOT
ATOM      1  N   UNL     1       5.067   3.393  18.315  0.00  0.00    +0.000 N 
ATOM      2  C   UNL     1       5.627   4.670  18.322  0.00  0.00    +0.000 C 
ATOM      3  O   UNL     1       4.997   5.708  18.539  0.00  0.00    +0.000 OA
ATOM      4  H   UNL     1       5.654   2.611  18.567  0.00  0.00    +0.000 HD
ENDROOT
BRANCH   1   9
ATOM      5  C   UNL     1       2.979   2.783  19.586  0.00  0.00    +0.000 A 
ATOM      6  C   UNL     1       1.576   2.692  19.256  0.00  0.00    +0.000 A 
ATOM      7  C   UNL     1       1.300   3.127  17.980  0.00  0.00    +0.000 A 
ATOM      8  S   UNL     1       2.703   3.611  17.155  0.00  0.00    +0.000 S 
ATOM      9  C   UNL     1       3.695   3.258  18.502  0.00  0.00    +0.000 A 
BRANCH   5  11
ATOM     10  N   UNL     1       2.613   2.653  21.944  0.00  0.00    +0.000 N 
ATOM     11  C   UNL     1       3.506   2.496  20.917  0.00  0.00    +0.000 C 
ATOM     12  O   UNL     1       4.628   2.052  21.124  0.00  0.00    +0.000 OA
ATOM     13  H   UNL     1       2.879   2.189  22.804  0.00  0.00    +0.000 HD
ATOM     14  H   UNL     1       1.626   2.651  21.720  0.00  0.00    +0.000 HD
ENDBRANCH   5  11
ENDBRANCH   1   9
BRANCH   2  15
ATOM     15  C   UNL     1       7.144   4.695  18.152  0.00  0.00    +0.000 C 
BRANCH  15  16
ATOM     16  O   UNL     1       7.525   4.364  16.813  0.00  0.00    +0.000 OA
BRANCH  16  17
ATOM     17  C   UNL     1       7.259   5.342  15.916  0.00  0.00    +0.000 C 
ATOM     18  O   UNL     1       7.407   6.539  16.110  0.00  0.00    +0.000 OA
BRANCH  17  19
ATOM     19  C   UNL     1       6.824   4.786  14.619  0.00  0.00    +0.000 A 
ATOM     20  C   UNL     1       5.687   3.963  14.592  0.00  0.00    +0.000 A 
ATOM     21  C   UNL     1       5.261   3.392  13.390  0.00  0.00    +0.000 A 
ATOM     22  C   UNL     1       5.968   3.634  12.212  0.00  0.00    +0.000 A 
ATOM     23  C   UNL     1       7.102   4.446  12.237  0.00  0.00    +0.000 A 
ATOM     24  C   UNL     1       7.528   5.015  13.437  0.00  0.00    +0.000 A 
ATOM     25  F   UNL     1       8.649   5.749  13.423  0.00  0.00    +0.000 F 
ENDBRANCH  17  19
ENDBRANCH  16  17
ENDBRANCH  15  16
ENDBRANCH   2  15
TORSDOF 6
ENDMDL
MODEL 6
REMARK VINA RESULT:      -7.3      1.744      2.260
REMARK  Name = 
REMARK  6 active torsions:
REMARK  status: ('A' for Active; 'I' for Inactive)
REMARK    1  A    between atoms: C_2  and  C_4
REMARK    2  A    between atoms: C_8  and  N_9
REMARK    3  A    between atoms: C_10  and  C_12
REMARK    4  A    between atoms: C_12  and  O_13
REMARK    5  A    between atoms: O_13  and  C_14
REMARK    6  A    between atoms: C_14  and  C_16
REMARK                            x       y       z     vdW  Elec       q    Type
REMARK                         _______ _______ _______ _____ _____    ______ ____
ROOT
ATOM      1  N   UNL     1       5.207   4.183  17.687  0.00  0.00    +0.000 N 
ATOM      2  C   UNL     1       6.512   4.569  17.992  0.00  0.00    +0.000 C 
ATOM      3  O   UNL     1       6.901   4.885  19.119  0.00  0.00    +0.000 OA
ATOM      4  H   UNL     1       5.063   3.548  16.915  0.00  0.00    +0.000 HD
ENDROOT
BRANCH   1   9
ATOM      5  C   UNL     1       3.815   3.209  19.548  0.00  0.00    +0.000 A 
ATOM      6  C   UNL     1       2.685   3.668  20.320  0.00  0.00    +0.000 A 
ATOM      7  C   UNL     1       2.345   4.972  20.045  0.00  0.00    +0.000 A 
ATOM      8  S   UNL     1       3.339   5.649  18.845  0.00  0.00    +0.000 S 
ATOM      9  C   UNL     1       4.245   4.207  18.691  0.00  0.00    +0.000 A 
BRANCH   5  11
ATOM     10  N   UNL     1       4.197   0.987  18.756  0.00  0.00    +0.000 N 
ATOM     11  C   UNL     1       4.440   1.905  19.744  0.00  0.00    +0.000 C 
ATOM     12  O   UNL     1       5.210   1.649  20.661  0.00  0.00    +0.000 OA
ATOM     13  H   UNL     1       4.843   0.208  18.742  0.00  0.00    +0.000 HD
ATOM     14  H   UNL     1       3.885   1.329  17.857  0.00  0.00    +0.000 HD
ENDBRANCH   5  11
ENDBRANCH   1   9
BRANCH   2  15
ATOM     15  C   UNL     1       7.491   4.461  16.826  0.00  0.00    +0.000 C 
BRANCH  15  16
ATOM     16  O   UNL     1       7.494   5.652  16.034  0.00  0.00    +0.000 OA
BRANCH  16  17
ATOM     17  C   UNL     1       6.371   5.815  15.296  0.00  0.00    +0.000 C 
ATOM     18  O   UNL     1       5.472   6.605  15.541  0.00  0.00    +0.000 OA
BRANCH  17  19
ATOM     19  C   UNL     1       6.384   4.960  14.092  0.00  0.00    +0.000 A 
ATOM     20  C   UNL     1       5.325   4.058  13.901  0.00  0.00    +0.000 A 
ATOM     21  C   UNL     1       5.316   3.210  12.790  0.00  0.00    +0.000 A 
ATOM     22  C   UNL     1       6.363   3.252  11.870  0.00  0.00    +0.000 A 
ATOM     23  C   UNL     1       7.420   4.142  12.061  0.00  0.00    +0.000 A 
ATOM     24  C   UNL     1       7.430   4.988  13.170  0.00  0.00    +0.000 A 
ATOM     25  F   UNL     1       8.488   5.792  13.339  0.00  0.00    +0.000 F 
ENDBRANCH  17  19
ENDBRANCH  16  17
ENDBRANCH  15  16
ENDBRANCH   2  15
TORSDOF 6
ENDMDL
MODEL 7
REMARK VINA RESULT:      -7.3      2.772      6.391
REMARK  Name = 
REMARK  6 active torsions:
REMARK  status: ('A' for Active; 'I' for Inactive)
REMARK    1  A    between atoms: C_2  and  C_4
REMARK    2  A    between atoms: C_8  and  N_9
REMARK    3  A    between atoms: C_10  and  C_12
REMARK    4  A    between atoms: C_12  and  O_13
REMARK    5  A    between atoms: O_13  and  C_14
REMARK    6  A    between atoms: C_14  and  C_16
REMARK                            x       y       z     vdW  Elec       q    Type
REMARK                         _______ _______ _______ _____ _____    ______ ____
ROOT
ATOM      1  N   UNL     1       4.729   3.460  17.553  0.00  0.00    +0.000 N 
ATOM      2  C   UNL     1       4.439   2.642  18.644  0.00  0.00    +0.000 C 
ATOM      3  O   UNL     1       4.953   2.759  19.760  0.00  0.00    +0.000 OA
ATOM      4  H   UNL     1       4.010   3.606  16.858  0.00  0.00    +0.000 HD
ENDROOT
BRANCH   1   9
ATOM      5  C   UNL     1       6.673   4.873  16.796  0.00  0.00    +0.000 A 
ATOM      6  C   UNL     1       7.558   5.815  17.440  0.00  0.00    +0.000 A 
ATOM      7  C   UNL     1       7.205   6.072  18.744  0.00  0.00    +0.000 A 
ATOM      8  S   UNL     1       5.845   5.175  19.225  0.00  0.00    +0.000 S 
ATOM      9  C   UNL     1       5.705   4.441  17.686  0.00  0.00    +0.000 A 
BRANCH   5  11
ATOM     10  N   UNL     1       7.594   5.331  14.638  0.00  0.00    +0.000 N 
ATOM     11  C   UNL     1       6.765   4.530  15.380  0.00  0.00    +0.000 C 
ATOM     12  O   UNL     1       6.233   3.546  14.881  0.00  0.00    +0.000 OA
ATOM     13  H   UNL     1       7.878   4.931  13.753  0.00  0.00    +0.000 HD
ATOM     14  H   UNL     1       8.289   5.877  15.129  0.00  0.00    +0.000 HD
ENDBRANCH   5  11
ENDBRANCH   1   9
BRANCH   2  15
ATOM     15  C   UNL     1       3.321   1.632  18.397  0.00  0.00    +0.000 C 
BRANCH  15  16
ATOM     16  O   UNL     1       2.251   1.800  19.331  0.00  0.00    +0.000 OA
BRANCH  16  17
ATOM     17  C   UNL     1       1.263   2.612  18.884  0.00  0.00    +0.000 C 
ATOM     18  O   UNL     1       0.212   2.238  18.387  0.00  0.00    +0.000 OA
BRANCH  17  19
ATOM     19  C   UNL     1       1.574   4.034  19.133  0.00  0.00    +0.000 A 
ATOM     20  C   UNL     1       1.844   4.862  18.032  0.00  0.00    +0.000 A 
ATOM     21  C   UNL     1       2.173   6.206  18.228  0.00  0.00    +0.000 A 
ATOM     22  C   UNL     1       2.241   6.728  19.519  0.00  0.00    +0.000 A 
ATOM     23  C   UNL     1       1.980   5.906  20.616  0.00  0.00    +0.000 A 
ATOM     24  C   UNL     1       1.653   4.564  20.420  0.00  0.00    +0.000 A 
ATOM     25  F   UNL     1       1.457   3.800  21.504  0.00  0.00    +0.000 F 
ENDBRANCH  17  19
ENDBRANCH  16  17
ENDBRANCH  15  16
ENDBRANCH   2  15
TORSDOF 6
ENDMDL
MODEL 8
REMARK VINA RESULT:      -7.2      1.162      1.162
REMARK  Name = 
REMARK  6 active torsions:
REMARK  status: ('A' for Active; 'I' for Inactive)
REMARK    1  A    between atoms: C_2  and  C_4
REMARK    2  A    between atoms: C_8  and  N_9
REMARK    3  A    between atoms: C_10  and  C_12
REMARK    4  A    between atoms: C_12  and  O_13
REMARK    5  A    between atoms: O_13  and  C_14
REMARK    6  A    between atoms: C_14  and  C_16
REMARK                            x       y       z     vdW  Elec       q    Type
REMARK                         _______ _______ _______ _____ _____    ______ ____
ROOT
ATOM      1  N   UNL     1       3.859   5.366  18.715  0.00  0.00    +0.000 N 
ATOM      2  C   UNL     1       5.215   5.070  18.847  0.00  0.00    +0.000 C 
ATOM      3  O   UNL     1       5.660   4.072  19.421  0.00  0.00    +0.000 OA
ATOM      4  H   UNL     1       3.561   5.900  17.912  0.00  0.00    +0.000 HD
ENDROOT
BRANCH   1   9
ATOM      5  C   UNL     1       2.402   3.318  18.897  0.00  0.00    +0.000 A 
ATOM      6  C   UNL     1       1.346   2.896  19.786  0.00  0.00    +0.000 A 
ATOM      7  C   UNL     1       1.150   3.768  20.832  0.00  0.00    +0.000 A 
ATOM      8  S   UNL     1       2.191   5.108  20.748  0.00  0.00    +0.000 S 
ATOM      9  C   UNL     1       2.925   4.528  19.316  0.00  0.00    +0.000 A 
BRANCH   5  11
ATOM     10  N   UNL     1       3.975   1.729  18.055  0.00  0.00    +0.000 N 
ATOM     11  C   UNL     1       2.879   2.505  17.783  0.00  0.00    +0.000 C 
ATOM     12  O   UNL     1       2.307   2.425  16.703  0.00  0.00    +0.000 OA
ATOM     13  H   UNL     1       4.125   0.972  17.399  0.00  0.00    +0.000 HD
ATOM     14  H   UNL     1       4.188   1.531  19.024  0.00  0.00    +0.000 HD
ENDBRANCH   5  11
ENDBRANCH   1   9
BRANCH   2  15
ATOM     15  C   UNL     1       6.145   6.030  18.110  0.00  0.00    +0.000 C 
BRANCH  15  16
ATOM     16  O   UNL     1       6.110   5.809  16.697  0.00  0.00    +0.000 OA
BRANCH  16  17
ATOM     17  C   UNL     1       7.099   5.001  16.249  0.00  0.00    +0.000 C 
ATOM     18  O   UNL     1       8.009   4.553  16.930  0.00  0.00    +0.000 OA
BRANCH  17  19
ATOM     19  C   UNL     1       6.916   4.655  14.825  0.00  0.00    +0.000 A 
ATOM     20  C   UNL     1       7.813   5.189  13.886  0.00  0.00    +0.000 A 
ATOM     21  C   UNL     1       7.655   4.911  12.526  0.00  0.00    +0.000 A 
ATOM     22  C   UNL     1       6.600   4.106  12.096  0.00  0.00    +0.000 A 
ATOM     23  C   UNL     1       5.703   3.579  13.026  0.00  0.00    +0.000 A 
ATOM     24  C   UNL     1       5.860   3.858  14.383  0.00  0.00    +0.000 A 
ATOM     25  F   UNL     1       4.948   3.372  15.235  0.00  0.00    +0.000 F 
ENDBRANCH  17  19
ENDBRANCH  16  17
ENDBRANCH  15  16
ENDBRANCH   2  15
TORSDOF 6
ENDMDL
MODEL 9
REMARK VINA RESULT:      -7.2      1.394      1.686
REMARK  Name = 
REMARK  6 active torsions:
REMARK  status: ('A' for Active; 'I' for Inactive)
REMARK    1  A    between atoms: C_2  and  C_4
REMARK    2  A    between atoms: C_8  and  N_9
REMARK    3  A    between atoms: C_10  and  C_12
REMARK    4  A    between atoms: C_12  and  O_13
REMARK    5  A    between atoms: O_13  and  C_14
REMARK    6  A    between atoms: C_14  and  C_16
REMARK                            x       y       z     vdW  Elec       q    Type
REMARK                         _______ _______ _______ _____ _____    ______ ____
ROOT
ATOM      1  N   UNL     1       5.177   4.438  18.106  0.00  0.00    +0.000 N 
ATOM      2  C   UNL     1       6.470   4.811  18.473  0.00  0.00    +0.000 C 
ATOM      3  O   UNL     1       6.815   5.090  19.624  0.00  0.00    +0.000 OA
ATOM      4  H   UNL     1       5.062   3.828  17.309  0.00  0.00    +0.000 HD
ENDROOT
BRANCH   1   9
ATOM      5  C   UNL     1       3.723   3.411  19.890  0.00  0.00    +0.000 A 
ATOM      6  C   UNL     1       2.561   3.844  20.629  0.00  0.00    +0.000 A 
ATOM      7  C   UNL     1       2.221   5.152  20.370  0.00  0.00    +0.000 A 
ATOM      8  S   UNL     1       3.254   5.863  19.224  0.00  0.00    +0.000 S 
ATOM      9  C   UNL     1       4.177   4.432  19.073  0.00  0.00    +0.000 A 
BRANCH   5  11
ATOM     10  N   UNL     1       4.274   1.260  19.007  0.00  0.00    +0.000 N 
ATOM     11  C   UNL     1       4.351   2.108  20.081  0.00  0.00    +0.000 C 
ATOM     12  O   UNL     1       4.993   1.800  21.078  0.00  0.00    +0.000 OA
ATOM     13  H   UNL     1       4.938   0.496  19.030  0.00  0.00    +0.000 HD
ATOM     14  H   UNL     1       4.081   1.661  18.099  0.00  0.00    +0.000 HD
ENDBRANCH   5  11
ENDBRANCH   1   9
BRANCH   2  15
ATOM     15  C   UNL     1       7.493   4.738  17.343  0.00  0.00    +0.000 C 
BRANCH  15  16
ATOM     16  O   UNL     1       7.484   5.931  16.553  0.00  0.00    +0.000 OA
BRANCH  16  17
ATOM     17  C   UNL     1       6.393   6.049  15.760  0.00  0.00    +0.000 C 
ATOM     18  O   UNL     1       5.447   6.795  15.965  0.00  0.00    +0.000 OA
BRANCH  17  19
ATOM     19  C   UNL     1       6.504   5.205  14.553  0.00  0.00    +0.000 A 
ATOM     20  C   UNL     1       7.543   5.469  13.647  0.00  0.00    +0.000 A 
ATOM     21  C   UNL     1       7.664   4.714  12.477  0.00  0.00    +0.000 A 
ATOM     22  C   UNL     1       6.748   3.698  12.203  0.00  0.00    +0.000 A 
ATOM     23  C   UNL     1       5.710   3.438  13.099  0.00  0.00    +0.000 A 
ATOM     24  C   UNL     1       5.589   4.193  14.266  0.00  0.00    +0.000 A 
ATOM     25  F   UNL     1       4.550   3.940  15.073  0.00  0.00    +0.000 F 
ENDBRANCH  17  19
ENDBRANCH  16  17
ENDBRANCH  15  16
ENDBRANCH   2  15
TORSDOF 6
ENDMDL
