MODEL 1
REMARK VINA RESULT:      -7.3      0.000      0.000
REMARK  Name = 
REMARK  10 active torsions:
REMARK  status: ('A' for Active; 'I' for Inactive)
REMARK    1  A    between atoms: C_1  and  C_2
REMARK    2  A    between atoms: C_2  and  C_3
REMARK    3  A    between atoms: C_3  and  C_4
REMARK    4  A    between atoms: C_4  and  N_5
REMARK    5  A    between atoms: C_9  and  C_10
REMARK    6  A    between atoms: N_12  and  C1*_13
REMARK    7  A    between atoms: C4*_15  and  C5*_16
REMARK    8  A    between atoms: C5*_16  and  O5*_17
REMARK    9  A    between atoms: C3*_18  and  O3*_19
REMARK   10  A    between atoms: C2*_20  and  O2*_21
REMARK                            x       y       z     vdW  Elec       q    Type
REMARK                         _______ _______ _______ _____ _____    ______ ____
ROOT
ATOM      1  N   UNL     1       6.018   4.607  14.645  0.00  0.00    +0.000 N 
ATOM      2  C   UNL     1       7.215   5.192  15.048  0.00  0.00    +0.000 A 
ATOM      3  N   UNL     1       7.616   5.413  16.264  0.00  0.00    +0.000 NA
ATOM      4  C   UNL     1       6.689   5.011  17.221  0.00  0.00    +0.000 A 
ATOM      5  C   UNL     1       6.766   5.072  18.619  0.00  0.00    +0.000 A 
ATOM      6  C   UNL     1       7.879   5.574  19.458  0.00  0.00    +0.000 C 
ATOM      7  N   UNL     1       5.644   4.580  19.179  0.00  0.00    +0.000 NA
ATOM      8  N   UNL     1       4.882   4.195  18.112  0.00  0.00    +0.000 N 
ATOM      9  C   UNL     1       5.487   4.450  16.914  0.00  0.00    +0.000 A 
ATOM     10  C   UNL     1       5.061   4.209  15.578  0.00  0.00    +0.000 A 
ATOM     11  O   UNL     1       3.980   3.710  15.279  0.00  0.00    +0.000 OA
ENDROOT
BRANCH   8  12
ATOM     12  C1* UNL     1       3.605   3.528  18.326  0.00  0.00    +0.000 C 
ATOM     13  O4* UNL     1       2.681   4.425  18.990  0.00  0.00    +0.000 OA
ATOM     14  C4* UNL     1       1.962   3.666  19.993  0.00  0.00    +0.000 C 
ATOM     15  C3* UNL     1       2.329   2.198  19.782  0.00  0.00    +0.000 C 
ATOM     16  C2* UNL     1       3.722   2.268  19.178  0.00  0.00    +0.000 C 
BRANCH  15  17
ATOM     17  O3* UNL     1       1.459   1.568  18.819  0.00  0.00    +0.000 OA
ATOM     18  H3* UNL     1       1.812   1.716  17.922  0.00  0.00    +0.000 HD
ENDBRANCH  15  17
BRANCH  16  19
ATOM     19  O2* UNL     1       4.015   1.099  18.410  0.00  0.00    +0.000 OA
ATOM     20  H2* UNL     1       3.688   0.338  18.934  0.00  0.00    +0.000 HD
ENDBRANCH  16  19
BRANCH  14  21
ATOM     21  C5* UNL     1       2.351   4.189  21.376  0.00  0.00    +0.000 C 
BRANCH  21  22
ATOM     22  O5* UNL     1       2.320   3.119  22.320  0.00  0.00    +0.000 OA
ATOM     23  H5* UNL     1       2.492   3.528  23.191  0.00  0.00    +0.000 HD
ENDBRANCH  21  22
ENDBRANCH  14  21
ENDBRANCH   8  12
BRANCH   1  24
ATOM     24  C   UNL     1       5.737   4.429  13.226  0.00  0.00    +0.000 C 
BRANCH  24  25
ATOM     25  C   UNL     1       6.408   3.192  12.621  0.00  0.00    +0.000 C 
BRANCH  25  27
ATOM     26  C   UNL     1       4.227   3.227  11.368  0.00  0.00    +0.000 C 
ATOM     27  C   UNL     1       5.484   2.428  11.672  0.00  0.00    +0.000 C 
ENDBRANCH  25  27
ENDBRANCH  24  25
ENDBRANCH   1  24
TORSDOF 8
ENDMDL
MODEL 2
REMARK VINA RESULT:      -7.1      1.003      1.236
REMARK  Name = 
REMARK  10 active torsions:
REMARK  status: ('A' for Active; 'I' for Inactive)
REMARK    1  A    between atoms: C_1  and  C_2
REMARK    2  A    between atoms: C_2  and  C_3
REMARK    3  A    between atoms: C_3  and  C_4
REMARK    4  A    between atoms: C_4  and  N_5
REMARK    5  A    between atoms: C_9  and  C_10
REMARK    6  A    between atoms: N_12  and  C1*_13
REMARK    7  A    between atoms: C4*_15  and  C5*_16
REMARK    8  A    between atoms: C5*_16  and  O5*_17
REMARK    9  A    between atoms: C3*_18  and  O3*_19
REMARK   10  A    between atoms: C2*_20  and  O2*_21
REMARK                            x       y       z     vdW  Elec       q    Type
REMARK                         _______ _______ _______ _____ _____    ______ ____
ROOT
ATOM      1  N   UNL     1       5.724   4.556  14.863  0.00  0.00    +0.000 N 
ATOM      2  C   UNL     1       6.927   5.233  15.042  0.00  0.00    +0.000 A 
ATOM      3  N   UNL     1       7.480   5.576  16.166  0.00  0.00    +0.000 NA
ATOM      4  C   UNL     1       6.724   5.210  17.276  0.00  0.00    +0.000 A 
ATOM      5  C   UNL     1       6.993   5.392  18.639  0.00  0.00    +0.000 A 
ATOM      6  C   UNL     1       8.180   6.019  19.267  0.00  0.00    +0.000 C 
ATOM      7  N   UNL     1       5.993   4.894  19.392  0.00  0.00    +0.000 NA
ATOM      8  N   UNL     1       5.114   4.382  18.480  0.00  0.00    +0.000 N 
ATOM      9  C   UNL     1       5.528   4.565  17.190  0.00  0.00    +0.000 A 
ATOM     10  C   UNL     1       4.934   4.191  15.953  0.00  0.00    +0.000 A 
ATOM     11  O   UNL     1       3.855   3.614  15.853  0.00  0.00    +0.000 OA
ENDROOT
BRANCH   8  12
ATOM     12  C1* UNL     1       3.924   3.672  18.927  0.00  0.00    +0.000 C 
ATOM     13  O4* UNL     1       2.757   4.516  18.779  0.00  0.00    +0.000 OA
ATOM     14  C4* UNL     1       1.925   4.341  19.952  0.00  0.00    +0.000 C 
ATOM     15  C3* UNL     1       2.524   3.184  20.749  0.00  0.00    +0.000 C 
ATOM     16  C2* UNL     1       3.999   3.236  20.387  0.00  0.00    +0.000 C 
BRANCH  15  17
ATOM     17  O3* UNL     1       2.005   1.912  20.309  0.00  0.00    +0.000 OA
ATOM     18  H3* UNL     1       2.723   1.397  19.897  0.00  0.00    +0.000 HD
ENDBRANCH  15  17
BRANCH  16  19
ATOM     19  O2* UNL     1       4.623   1.961  20.559  0.00  0.00    +0.000 OA
ATOM     20  H2* UNL     1       4.430   1.450  19.745  0.00  0.00    +0.000 HD
ENDBRANCH  16  19
BRANCH  14  21
ATOM     21  C5* UNL     1       1.896   5.656  20.732  0.00  0.00    +0.000 C 
BRANCH  21  22
ATOM     22  O5* UNL     1       2.659   6.643  20.038  0.00  0.00    +0.000 OA
ATOM     23  H5* UNL     1       2.141   6.866  19.239  0.00  0.00    +0.000 HD
ENDBRANCH  21  22
ENDBRANCH  14  21
ENDBRANCH   8  12
BRANCH   1  24
ATOM     24  C   UNL     1       5.258   4.245  13.517  0.00  0.00    +0.000 C 
BRANCH  24  25
ATOM     25  C   UNL     1       6.271   3.449  12.689  0.00  0.00    +0.000 C 
BRANCH  25  27
ATOM     26  C   UNL     1       4.241   3.080  11.250  0.00  0.00    +0.000 C 
ATOM     27  C   UNL     1       5.601   2.539  11.658  0.00  0.00    +0.000 C 
ENDBRANCH  25  27
ENDBRANCH  24  25
ENDBRANCH   1  24
TORSDOF 8
ENDMDL
MODEL 3
REMARK VINA RESULT:      -7.0      4.093      6.294
REMARK  Name = 
REMARK  10 active torsions:
REMARK  status: ('A' for Active; 'I' for Inactive)
REMARK    1  A    between atoms: C_1  and  C_2
REMARK    2  A    between atoms: C_2  and  C_3
REMARK    3  A    between atoms: C_3  and  C_4
REMARK    4  A    between atoms: C_4  and  N_5
REMARK    5  A    between atoms: C_9  and  C_10
REMARK    6  A    between atoms: N_12  and  C1*_13
REMARK    7  A    between atoms: C4*_15  and  C5*_16
REMARK    8  A    between atoms: C5*_16  and  O5*_17
REMARK    9  A    between atoms: C3*_18  and  O3*_19
REMARK   10  A    between atoms: C2*_20  and  O2*_21
REMARK                            x       y       z     vdW  Elec       q    Type
REMARK                         _______ _______ _______ _____ _____    ______ ____
ROOT
ATOM      1  N   UNL     1       1.513   8.865  19.292  0.00  0.00    +0.000 N 
ATOM      2  C   UNL     1       2.055   9.349  18.105  0.00  0.00    +0.000 A 
ATOM      3  N   UNL     1       2.896   8.749  17.318  0.00  0.00    +0.000 NA
ATOM      4  C   UNL     1       3.267   7.490  17.781  0.00  0.00    +0.000 A 
ATOM      5  C   UNL     1       4.132   6.547  17.209  0.00  0.00    +0.000 A 
ATOM      6  C   UNL     1       4.878   6.639  15.932  0.00  0.00    +0.000 C 
ATOM      7  N   UNL     1       4.223   5.452  17.987  0.00  0.00    +0.000 NA
ATOM      8  N   UNL     1       3.388   5.719  19.036  0.00  0.00    +0.000 N 
ATOM      9  C   UNL     1       2.801   6.949  18.941  0.00  0.00    +0.000 A 
ATOM     10  C   UNL     1       1.877   7.616  19.792  0.00  0.00    +0.000 A 
ATOM     11  O   UNL     1       1.448   7.148  20.844  0.00  0.00    +0.000 OA
ENDROOT
BRANCH   8  12
ATOM     12  C1* UNL     1       3.157   4.713  20.062  0.00  0.00    +0.000 C 
ATOM     13  O4* UNL     1       4.244   3.756  20.075  0.00  0.00    +0.000 OA
ATOM     14  C4* UNL     1       3.677   2.435  20.249  0.00  0.00    +0.000 C 
ATOM     15  C3* UNL     1       2.194   2.628  20.556  0.00  0.00    +0.000 C 
ATOM     16  C2* UNL     1       1.859   3.937  19.860  0.00  0.00    +0.000 C 
BRANCH  15  17
ATOM     17  O3* UNL     1       1.964   2.807  21.970  0.00  0.00    +0.000 OA
ATOM     18  H3* UNL     1       2.486   3.568  22.286  0.00  0.00    +0.000 HD
ENDBRANCH  15  17
BRANCH  16  19
ATOM     19  O2* UNL     1       0.728   4.572  20.461  0.00  0.00    +0.000 OA
ATOM     20  H2* UNL     1       0.819   5.529  20.271  0.00  0.00    +0.000 HD
ENDBRANCH  16  19
BRANCH  14  21
ATOM     21  C5* UNL     1       3.925   1.624  18.975  0.00  0.00    +0.000 C 
BRANCH  21  22
ATOM     22  O5* UNL     1       4.493   2.467  17.974  0.00  0.00    +0.000 OA
ATOM     23  H5* UNL     1       5.104   1.899  17.463  0.00  0.00    +0.000 HD
ENDBRANCH  21  22
ENDBRANCH  14  21
ENDBRANCH   8  12
BRANCH   1  24
ATOM     24  C   UNL     1       0.569   9.680  20.047  0.00  0.00    +0.000 C 
BRANCH  24  25
ATOM     25  C   UNL     1       0.136  10.952  19.311  0.00  0.00    +0.000 C 
BRANCH  25  27
ATOM     26  C   UNL     1      -1.562  10.115  17.655  0.00  0.00    +0.000 C 
ATOM     27  C   UNL     1      -1.342  10.928  18.919  0.00  0.00    +0.000 C 
ENDBRANCH  25  27
ENDBRANCH  24  25
ENDBRANCH   1  24
TORSDOF 8
ENDMDL
MODEL 4
REMARK VINA RESULT:      -7.0      2.267      5.026
REMARK  Name = 
REMARK  10 active torsions:
REMARK  status: ('A' for Active; 'I' for Inactive)
REMARK    1  A    between atoms: C_1  and  C_2
REMARK    2  A    between atoms: C_2  and  C_3
REMARK    3  A    between atoms: C_3  and  C_4
REMARK    4  A    between atoms: C_4  and  N_5
REMARK    5  A    between atoms: C_9  and  C_10
REMARK    6  A    between atoms: N_12  and  C1*_13
REMARK    7  A    between atoms: C4*_15  and  C5*_16
REMARK    8  A    between atoms: C5*_16  and  O5*_17
REMARK    9  A    between atoms: C3*_18  and  O3*_19
REMARK   10  A    between atoms: C2*_20  and  O2*_21
REMARK                            x       y       z     vdW  Elec       q    Type
REMARK                         _______ _______ _______ _____ _____    ______ ____
ROOT
ATOM      1  N   UNL     1       7.515   6.657  17.940  0.00  0.00    +0.000 N 
ATOM      2  C   UNL     1       7.706   6.593  16.563  0.00  0.00    +0.000 A 
ATOM      3  N   UNL     1       7.073   5.845  15.711  0.00  0.00    +0.000 NA
ATOM      4  C   UNL     1       6.119   5.029  16.313  0.00  0.00    +0.000 A 
ATOM      5  C   UNL     1       5.238   4.107  15.731  0.00  0.00    +0.000 A 
ATOM      6  C   UNL     1       5.076   3.767  14.298  0.00  0.00    +0.000 C 
ATOM      7  N   UNL     1       4.479   3.515  16.673  0.00  0.00    +0.000 NA
ATOM      8  N   UNL     1       4.885   4.097  17.841  0.00  0.00    +0.000 N 
ATOM      9  C   UNL     1       5.882   5.012  17.654  0.00  0.00    +0.000 A 
ATOM     10  C   UNL     1       6.581   5.840  18.576  0.00  0.00    +0.000 A 
ATOM     11  O   UNL     1       6.387   5.837  19.789  0.00  0.00    +0.000 OA
ENDROOT
BRANCH   8  12
ATOM     12  C1* UNL     1       4.221   3.767  19.094  0.00  0.00    +0.000 C 
ATOM     13  O4* UNL     1       3.716   2.410  19.047  0.00  0.00    +0.000 OA
ATOM     14  C4* UNL     1       2.402   2.399  19.655  0.00  0.00    +0.000 C 
ATOM     15  C3* UNL     1       2.193   3.777  20.279  0.00  0.00    +0.000 C 
ATOM     16  C2* UNL     1       3.048   4.687  19.413  0.00  0.00    +0.000 C 
BRANCH  15  17
ATOM     17  O3* UNL     1       2.710   3.833  21.625  0.00  0.00    +0.000 OA
ATOM     18  H3* UNL     1       1.971   3.763  22.257  0.00  0.00    +0.000 HD
ENDBRANCH  15  17
BRANCH  16  19
ATOM     19  O2* UNL     1       3.437   5.866  20.121  0.00  0.00    +0.000 OA
ATOM     20  H2* UNL     1       4.238   5.625  20.633  0.00  0.00    +0.000 HD
ENDBRANCH  16  19
BRANCH  14  21
ATOM     21  C5* UNL     1       1.367   2.063  18.580  0.00  0.00    +0.000 C 
BRANCH  21  22
ATOM     22  O5* UNL     1       2.028   1.807  17.341  0.00  0.00    +0.000 OA
ATOM     23  H5* UNL     1       2.100   0.834  17.275  0.00  0.00    +0.000 HD
ENDBRANCH  21  22
ENDBRANCH  14  21
ENDBRANCH   8  12
BRANCH   1  24
ATOM     24  C   UNL     1       8.319   7.568  18.745  0.00  0.00    +0.000 C 
BRANCH  24  25
ATOM     25  C   UNL     1       8.375   8.992  18.183  0.00  0.00    +0.000 C 
BRANCH  25  27
ATOM     26  C   UNL     1       9.705  11.124  18.305  0.00  0.00    +0.000 C 
ATOM     27  C   UNL     1       9.142   9.953  19.093  0.00  0.00    +0.000 C 
ENDBRANCH  25  27
ENDBRANCH  24  25
ENDBRANCH   1  24
TORSDOF 8
ENDMDL
MODEL 5
REMARK VINA RESULT:      -6.9      3.828      6.837
REMARK  Name = 
REMARK  10 active torsions:
REMARK  status: ('A' for Active; 'I' for Inactive)
REMARK    1  A    between atoms: C_1  and  C_2
REMARK    2  A    between atoms: C_2  and  C_3
REMARK    3  A    between atoms: C_3  and  C_4
REMARK    4  A    between atoms: C_4  and  N_5
REMARK    5  A    between atoms: C_9  and  C_10
REMARK    6  A    between atoms: N_12  and  C1*_13
REMARK    7  A    between atoms: C4*_15  and  C5*_16
REMARK    8  A    between atoms: C5*_16  and  O5*_17
REMARK    9  A    between atoms: C3*_18  and  O3*_19
REMARK   10  A    between atoms: C2*_20  and  O2*_21
REMARK                            x       y       z     vdW  Elec       q    Type
REMARK                         _______ _______ _______ _____ _____    ______ ____
ROOT
ATOM      1  N   UNL     1       1.354   8.774  19.572  0.00  0.00    +0.000 N 
ATOM      2  C   UNL     1       1.899   9.335  18.421  0.00  0.00    +0.000 A 
ATOM      3  N   UNL     1       2.743   8.788  17.599  0.00  0.00    +0.000 NA
ATOM      4  C   UNL     1       3.113   7.502  17.981  0.00  0.00    +0.000 A 
ATOM      5  C   UNL     1       3.981   6.598  17.352  0.00  0.00    +0.000 A 
ATOM      6  C   UNL     1       4.730   6.773  16.085  0.00  0.00    +0.000 C 
ATOM      7  N   UNL     1       4.071   5.455  18.057  0.00  0.00    +0.000 NA
ATOM      8  N   UNL     1       3.233   5.653  19.118  0.00  0.00    +0.000 N 
ATOM      9  C   UNL     1       2.645   6.886  19.102  0.00  0.00    +0.000 A 
ATOM     10  C   UNL     1       1.718   7.496  19.992  0.00  0.00    +0.000 A 
ATOM     11  O   UNL     1       1.287   6.960  21.010  0.00  0.00    +0.000 OA
ENDROOT
BRANCH   8  12
ATOM     12  C1* UNL     1       2.999   4.582  20.077  0.00  0.00    +0.000 C 
ATOM     13  O4* UNL     1       4.101   3.643  20.052  0.00  0.00    +0.000 OA
ATOM     14  C4* UNL     1       3.552   2.305  20.133  0.00  0.00    +0.000 C 
ATOM     15  C3* UNL     1       2.061   2.457  20.425  0.00  0.00    +0.000 C 
ATOM     16  C2* UNL     1       1.717   3.802  19.805  0.00  0.00    +0.000 C 
BRANCH  15  17
ATOM     17  O3* UNL     1       1.804   2.545  21.842  0.00  0.00    +0.000 OA
ATOM     18  H3* UNL     1       2.583   2.929  22.286  0.00  0.00    +0.000 HD
ENDBRANCH  15  17
BRANCH  16  19
ATOM     19  O2* UNL     1       0.567   4.382  20.422  0.00  0.00    +0.000 OA
ATOM     20  H2* UNL     1      -0.090   4.515  19.707  0.00  0.00    +0.000 HD
ENDBRANCH  16  19
BRANCH  14  21
ATOM     21  C5* UNL     1       3.835   1.578  18.817  0.00  0.00    +0.000 C 
BRANCH  21  22
ATOM     22  O5* UNL     1       4.430   2.483  17.888  0.00  0.00    +0.000 OA
ATOM     23  H5* UNL     1       5.175   1.997  17.482  0.00  0.00    +0.000 HD
ENDBRANCH  21  22
ENDBRANCH  14  21
ENDBRANCH   8  12
BRANCH   1  24
ATOM     24  C   UNL     1       0.407   9.539  20.376  0.00  0.00    +0.000 C 
BRANCH  24  25
ATOM     25  C   UNL     1       0.953   9.933  21.752  0.00  0.00    +0.000 C 
BRANCH  25  27
ATOM     26  C   UNL     1      -1.041  10.717  23.068  0.00  0.00    +0.000 C 
ATOM     27  C   UNL     1      -0.021   9.607  22.885  0.00  0.00    +0.000 C 
ENDBRANCH  25  27
ENDBRANCH  24  25
ENDBRANCH   1  24
TORSDOF 8
ENDMDL
MODEL 6
REMARK VINA RESULT:      -6.8      3.141      6.465
REMARK  Name = 
REMARK  10 active torsions:
REMARK  status: ('A' for Active; 'I' for Inactive)
REMARK    1  A    between atoms: C_1  and  C_2
REMARK    2  A    between atoms: C_2  and  C_3
REMARK    3  A    between atoms: C_3  and  C_4
REMARK    4  A    between atoms: C_4  and  N_5
REMARK    5  A    between atoms: C_9  and  C_10
REMARK    6  A    between atoms: N_12  and  C1*_13
REMARK    7  A    between atoms: C4*_15  and  C5*_16
REMARK    8  A    between atoms: C5*_16  and  O5*_17
REMARK    9  A    between atoms: C3*_18  and  O3*_19
REMARK   10  A    between atoms: C2*_20  and  O2*_21
REMARK                            x       y       z     vdW  Elec       q    Type
REMARK                         _______ _______ _______ _____ _____    ______ ____
ROOT
ATOM      1  N   UNL     1       2.338   4.844  20.830  0.00  0.00    +0.000 N 
ATOM      2  C   UNL     1       1.470   5.927  20.938  0.00  0.00    +0.000 A 
ATOM      3  N   UNL     1       1.439   6.992  20.196  0.00  0.00    +0.000 NA
ATOM      4  C   UNL     1       2.423   6.993  19.210  0.00  0.00    +0.000 A 
ATOM      5  C   UNL     1       2.695   7.949  18.222  0.00  0.00    +0.000 A 
ATOM      6  C   UNL     1       1.985   9.221  17.952  0.00  0.00    +0.000 C 
ATOM      7  N   UNL     1       3.744   7.568  17.468  0.00  0.00    +0.000 NA
ATOM      8  N   UNL     1       4.103   6.356  17.987  0.00  0.00    +0.000 N 
ATOM      9  C   UNL     1       3.325   5.986  19.048  0.00  0.00    +0.000 A 
ATOM     10  C   UNL     1       3.345   4.823  19.866  0.00  0.00    +0.000 A 
ATOM     11  O   UNL     1       4.152   3.906  19.739  0.00  0.00    +0.000 OA
ENDROOT
BRANCH   8  12
ATOM     12  C1* UNL     1       5.168   5.580  17.368  0.00  0.00    +0.000 C 
ATOM     13  O4* UNL     1       5.982   4.950  18.388  0.00  0.00    +0.000 OA
ATOM     14  C4* UNL     1       7.369   5.062  17.988  0.00  0.00    +0.000 C 
ATOM     15  C3* UNL     1       7.375   5.608  16.562  0.00  0.00    +0.000 C 
ATOM     16  C2* UNL     1       6.092   6.421  16.493  0.00  0.00    +0.000 C 
BRANCH  15  17
ATOM     17  O3* UNL     1       7.280   4.548  15.588  0.00  0.00    +0.000 OA
ATOM     18  H3* UNL     1       7.696   4.839  14.755  0.00  0.00    +0.000 HD
ENDBRANCH  15  17
BRANCH  16  19
ATOM     19  O2* UNL     1       5.627   6.546  15.147  0.00  0.00    +0.000 OA
ATOM     20  H2* UNL     1       6.066   5.833  14.638  0.00  0.00    +0.000 HD
ENDBRANCH  16  19
BRANCH  14  21
ATOM     21  C5* UNL     1       8.093   5.972  18.982  0.00  0.00    +0.000 C 
BRANCH  21  22
ATOM     22  O5* UNL     1       7.875   5.500  20.311  0.00  0.00    +0.000 OA
ATOM     23  H5* UNL     1       8.466   6.030  20.882  0.00  0.00    +0.000 HD
ENDBRANCH  21  22
ENDBRANCH  14  21
ENDBRANCH   8  12
BRANCH   1  24
ATOM     24  C   UNL     1       2.220   3.722  21.753  0.00  0.00    +0.000 C 
BRANCH  24  25
ATOM     25  C   UNL     1       1.453   2.531  21.172  0.00  0.00    +0.000 C 
BRANCH  25  27
ATOM     26  C   UNL     1       1.089   2.193  18.706  0.00  0.00    +0.000 C 
ATOM     27  C   UNL     1       0.609   2.913  19.955  0.00  0.00    +0.000 C 
ENDBRANCH  25  27
ENDBRANCH  24  25
ENDBRANCH   1  24
TORSDOF 8
ENDMDL
MODEL 7
REMARK VINA RESULT:      -6.8      2.257      3.192
REMARK  Name = 
REMARK  10 active torsions:
REMARK  status: ('A' for Active; 'I' for Inactive)
REMARK    1  A    between atoms: C_1  and  C_2
REMARK    2  A    between atoms: C_2  and  C_3
REMARK    3  A    between atoms: C_3  and  C_4
REMARK    4  A    between atoms: C_4  and  N_5
REMARK    5  A    between atoms: C_9  and  C_10
REMARK    6  A    between atoms: N_12  and  C1*_13
REMARK    7  A    between atoms: C4*_15  and  C5*_16
REMARK    8  A    between atoms: C5*_16  and  O5*_17
REMARK    9  A    between atoms: C3*_18  and  O3*_19
REMARK   10  A    between atoms: C2*_20  and  O2*_21
REMARK                            x       y       z     vdW  Elec       q    Type
REMARK                         _______ _______ _______ _____ _____    ______ ____
ROOT
ATOM      1  N   UNL     1       5.874   5.308  16.185  0.00  0.00    +0.000 N 
ATOM      2  C   UNL     1       5.543   6.583  15.738  0.00  0.00    +0.000 A 
ATOM      3  N   UNL     1       4.631   7.376  16.215  0.00  0.00    +0.000 NA
ATOM      4  C   UNL     1       3.934   6.817  17.283  0.00  0.00    +0.000 A 
ATOM      5  C   UNL     1       2.901   7.363  18.058  0.00  0.00    +0.000 A 
ATOM      6  C   UNL     1       2.282   8.705  17.952  0.00  0.00    +0.000 C 
ATOM      7  N   UNL     1       2.495   6.485  18.994  0.00  0.00    +0.000 NA
ATOM      8  N   UNL     1       3.302   5.399  18.804  0.00  0.00    +0.000 N 
ATOM      9  C   UNL     1       4.179   5.569  17.770  0.00  0.00    +0.000 A 
ATOM     10  C   UNL     1       5.183   4.713  17.240  0.00  0.00    +0.000 A 
ATOM     11  O   UNL     1       5.417   3.583  17.661  0.00  0.00    +0.000 OA
ENDROOT
BRANCH   8  12
ATOM     12  C1* UNL     1       3.215   4.254  19.700  0.00  0.00    +0.000 C 
ATOM     13  O4* UNL     1       2.960   3.047  18.942  0.00  0.00    +0.000 OA
ATOM     14  C4* UNL     1       1.986   2.258  19.667  0.00  0.00    +0.000 C 
ATOM     15  C3* UNL     1       1.798   2.930  21.026  0.00  0.00    +0.000 C 
ATOM     16  C2* UNL     1       2.108   4.391  20.741  0.00  0.00    +0.000 C 
BRANCH  15  17
ATOM     17  O3* UNL     1       2.761   2.454  21.990  0.00  0.00    +0.000 OA
ATOM     18  H3* UNL     1       3.467   3.118  22.094  0.00  0.00    +0.000 HD
ENDBRANCH  15  17
BRANCH  16  19
ATOM     19  O2* UNL     1       2.532   5.073  21.923  0.00  0.00    +0.000 OA
ATOM     20  H2* UNL     1       3.511   5.090  21.893  0.00  0.00    +0.000 HD
ENDBRANCH  16  19
BRANCH  14  21
ATOM     21  C5* UNL     1       0.697   2.194  18.847  0.00  0.00    +0.000 C 
BRANCH  21  22
ATOM     22  O5* UNL     1       0.729   3.190  17.825  0.00  0.00    +0.000 OA
ATOM     23  H5* UNL     1       0.836   2.704  16.983  0.00  0.00    +0.000 HD
ENDBRANCH  21  22
ENDBRANCH  14  21
ENDBRANCH   8  12
BRANCH   1  24
ATOM     24  C   UNL     1       6.940   4.560  15.529  0.00  0.00    +0.000 C 
BRANCH  24  25
ATOM     25  C   UNL     1       6.837   4.565  14.001  0.00  0.00    +0.000 C 
BRANCH  25  27
ATOM     26  C   UNL     1       5.842   3.254  12.098  0.00  0.00    +0.000 C 
ATOM     27  C   UNL     1       5.607   3.811  13.493  0.00  0.00    +0.000 C 
ENDBRANCH  25  27
ENDBRANCH  24  25
ENDBRANCH   1  24
TORSDOF 8
ENDMDL
MODEL 8
REMARK VINA RESULT:      -6.7      3.870      5.828
REMARK  Name = 
REMARK  10 active torsions:
REMARK  status: ('A' for Active; 'I' for Inactive)
REMARK    1  A    between atoms: C_1  and  C_2
REMARK    2  A    between atoms: C_2  and  C_3
REMARK    3  A    between atoms: C_3  and  C_4
REMARK    4  A    between atoms: C_4  and  N_5
REMARK    5  A    between atoms: C_9  and  C_10
REMARK    6  A    between atoms: N_12  and  C1*_13
REMARK    7  A    between atoms: C4*_15  and  C5*_16
REMARK    8  A    between atoms: C5*_16  and  O5*_17
REMARK    9  A    between atoms: C3*_18  and  O3*_19
REMARK   10  A    between atoms: C2*_20  and  O2*_21
REMARK                            x       y       z     vdW  Elec       q    Type
REMARK                         _______ _______ _______ _____ _____    ______ ____
ROOT
ATOM      1  N   UNL     1       4.358   5.313  17.236  0.00  0.00    +0.000 N 
ATOM      2  C   UNL     1       4.108   3.992  17.594  0.00  0.00    +0.000 A 
ATOM      3  N   UNL     1       3.346   3.565  18.556  0.00  0.00    +0.000 NA
ATOM      4  C   UNL     1       2.757   4.598  19.278  0.00  0.00    +0.000 A 
ATOM      5  C   UNL     1       1.873   4.538  20.365  0.00  0.00    +0.000 A 
ATOM      6  C   UNL     1       1.313   3.337  21.029  0.00  0.00    +0.000 C 
ATOM      7  N   UNL     1       1.543   5.776  20.779  0.00  0.00    +0.000 NA
ATOM      8  N   UNL     1       2.215   6.603  19.924  0.00  0.00    +0.000 N 
ATOM      9  C   UNL     1       2.964   5.917  19.009  0.00  0.00    +0.000 A 
ATOM     10  C   UNL     1       3.798   6.371  17.950  0.00  0.00    +0.000 A 
ATOM     11  O   UNL     1       4.002   7.555  17.693  0.00  0.00    +0.000 OA
ENDROOT
BRANCH   8  12
ATOM     12  C1* UNL     1       2.038   8.045  20.008  0.00  0.00    +0.000 C 
ATOM     13  O4* UNL     1       1.695   8.426  21.363  0.00  0.00    +0.000 OA
ATOM     14  C4* UNL     1       0.661   9.438  21.297  0.00  0.00    +0.000 C 
ATOM     15  C3* UNL     1       0.519   9.829  19.827  0.00  0.00    +0.000 C 
ATOM     16  C2* UNL     1       0.940   8.569  19.087  0.00  0.00    +0.000 C 
BRANCH  15  17
ATOM     17  O3* UNL     1       1.439  10.881  19.468  0.00  0.00    +0.000 OA
ATOM     18  H3* UNL     1       1.232  11.196  18.568  0.00  0.00    +0.000 HD
ENDBRANCH  15  17
BRANCH  16  19
ATOM     19  O2* UNL     1       1.410   8.871  17.772  0.00  0.00    +0.000 OA
ATOM     20  H2* UNL     1       2.312   9.239  17.880  0.00  0.00    +0.000 HD
ENDBRANCH  16  19
BRANCH  14  21
ATOM     21  C5* UNL     1      -0.626   8.864  21.892  0.00  0.00    +0.000 C 
BRANCH  21  22
ATOM     22  O5* UNL     1      -0.712   9.210  23.273  0.00  0.00    +0.000 OA
ATOM     23  H5* UNL     1       0.128   9.664  23.487  0.00  0.00    +0.000 HD
ENDBRANCH  21  22
ENDBRANCH  14  21
ENDBRANCH   8  12
BRANCH   1  24
ATOM     24  C   UNL     1       5.242   5.608  16.114  0.00  0.00    +0.000 C 
BRANCH  24  25
ATOM     25  C   UNL     1       6.724   5.386  16.430  0.00  0.00    +0.000 C 
BRANCH  25  27
ATOM     26  C   UNL     1       7.671   6.085  18.653  0.00  0.00    +0.000 C 
ATOM     27  C   UNL     1       7.329   6.532  17.241  0.00  0.00    +0.000 C 
ENDBRANCH  25  27
ENDBRANCH  24  25
ENDBRANCH   1  24
TORSDOF 8
ENDMDL
MODEL 9
REMARK VINA RESULT:      -6.6      3.036      7.300
REMARK  Name = 
REMARK  10 active torsions:
REMARK  status: ('A' for Active; 'I' for Inactive)
REMARK    1  A    between atoms: C_1  and  C_2
REMARK    2  A    between atoms: C_2  and  C_3
REMARK    3  A    between atoms: C_3  and  C_4
REMARK    4  A    between atoms: C_4  and  N_5
REMARK    5  A    between atoms: C_9  and  C_10
REMARK    6  A    between atoms: N_12  and  C1*_13
REMARK    7  A    between atoms: C4*_15  and  C5*_16
REMARK    8  A    between atoms: C5*_16  and  O5*_17
REMARK    9  A    between atoms: C3*_18  and  O3*_19
REMARK   10  A    between atoms: C2*_20  and  O2*_21
REMARK                            x       y       z     vdW  Elec       q    Type
REMARK                         _______ _______ _______ _____ _____    ______ ____
ROOT
ATOM      1  N   UNL     1       2.198   6.715  19.756  0.00  0.00    +0.000 N 
ATOM      2  C   UNL     1       1.543   5.638  20.345  0.00  0.00    +0.000 A 
ATOM      3  N   UNL     1       1.746   4.374  20.127  0.00  0.00    +0.000 NA
ATOM      4  C   UNL     1       2.734   4.142  19.174  0.00  0.00    +0.000 A 
ATOM      5  C   UNL     1       3.238   2.928  18.687  0.00  0.00    +0.000 A 
ATOM      6  C   UNL     1       2.856   1.550  19.079  0.00  0.00    +0.000 C 
ATOM      7  N   UNL     1       4.190   3.145  17.760  0.00  0.00    +0.000 NA
ATOM      8  N   UNL     1       4.284   4.507  17.694  0.00  0.00    +0.000 N 
ATOM      9  C   UNL     1       3.409   5.136  18.534  0.00  0.00    +0.000 A 
ATOM     10  C   UNL     1       3.179   6.517  18.785  0.00  0.00    +0.000 A 
ATOM     11  O   UNL     1       3.773   7.429  18.216  0.00  0.00    +0.000 OA
ENDROOT
BRANCH   8  12
ATOM     12  C1* UNL     1       5.286   5.131  16.842  0.00  0.00    +0.000 C 
ATOM     13  O4* UNL     1       4.763   5.303  15.502  0.00  0.00    +0.000 OA
ATOM     14  C4* UNL     1       5.813   4.963  14.564  0.00  0.00    +0.000 C 
ATOM     15  C3* UNL     1       7.090   4.772  15.380  0.00  0.00    +0.000 C 
ATOM     16  C2* UNL     1       6.574   4.321  16.737  0.00  0.00    +0.000 C 
BRANCH  15  17
ATOM     17  O3* UNL     1       7.791   6.019  15.566  0.00  0.00    +0.000 OA
ATOM     18  H3* UNL     1       7.173   6.686  15.916  0.00  0.00    +0.000 HD
ENDBRANCH  15  17
BRANCH  16  19
ATOM     19  O2* UNL     1       7.510   4.619  17.775  0.00  0.00    +0.000 OA
ATOM     20  H2* UNL     1       8.287   5.023  17.335  0.00  0.00    +0.000 HD
ENDBRANCH  16  19
BRANCH  14  21
ATOM     21  C5* UNL     1       5.397   3.706  13.798  0.00  0.00    +0.000 C 
BRANCH  21  22
ATOM     22  O5* UNL     1       6.444   3.316  12.911  0.00  0.00    +0.000 OA
ATOM     23  H5* UNL     1       6.125   2.510  12.459  0.00  0.00    +0.000 HD
ENDBRANCH  21  22
ENDBRANCH  14  21
ENDBRANCH   8  12
BRANCH   1  24
ATOM     24  C   UNL     1       1.841   8.078  20.131  0.00  0.00    +0.000 C 
BRANCH  24  25
ATOM     25  C   UNL     1       0.804   8.149  21.257  0.00  0.00    +0.000 C 
BRANCH  25  27
ATOM     26  C   UNL     1      -0.039   9.492  23.210  0.00  0.00    +0.000 C 
ATOM     27  C   UNL     1       1.149   9.207  22.306  0.00  0.00    +0.000 C 
ENDBRANCH  25  27
ENDBRANCH  24  25
ENDBRANCH   1  24
TORSDOF 8
ENDMDL
