MODEL 1
REMARK VINA RESULT:      -6.1      0.000      0.000
REMARK  Name = 
REMARK  5 active torsions:
REMARK  status: ('A' for Active; 'I' for Inactive)
REMARK    1  A    between atoms: C_1  and  N_2
REMARK    2  A    between atoms: N_2  and  C_3
REMARK    3  A    between atoms: C_7  and  C_8
REMARK    4  A    between atoms: C_12  and  C_13
REMARK    5  A    between atoms: C_12  and  C_19
REMARK                            x       y       z     vdW  Elec       q    Type
REMARK                         _______ _______ _______ _____ _____    ______ ____
ROOT
ATOM      1  C   UNL     1      -0.966  14.702  19.956  0.00  0.00    +0.000 C 
ATOM      2  C   UNL     1      -0.095  14.579  18.720  0.00  0.00    +0.000 C 
ATOM      3  S   UNL     1       0.641  12.929  18.758  0.00  0.00    +0.000 S 
ATOM      4  O   UNL     1       1.952  13.001  19.602  0.00  0.00    +0.000 OA
ATOM      5  C   UNL     1      -0.810  12.283  19.722  0.00  0.00    +0.000 C 
ATOM      6  O   UNL     1      -1.555  13.430  20.221  0.00  0.00    +0.000 OA
ENDROOT
BRANCH   1  13
ATOM      7  C   UNL     1      -0.322  17.847  22.205  0.00  0.00    +0.000 C 
ATOM      8  N   UNL     1      -1.223  16.673  21.787  0.00  0.00    +0.000 N 
ATOM      9  C   UNL     1      -2.315  17.267  20.917  0.00  0.00    +0.000 C 
ATOM     10  C   UNL     1      -1.829  16.032  23.036  0.00  0.00    +0.000 C 
ATOM     11  C   UNL     1      -0.711  15.192  23.608  0.00  0.00    +0.000 C 
ATOM     12  C   UNL     1       0.103  14.727  22.413  0.00  0.00    +0.000 C 
ATOM     13  C   UNL     1      -0.362  15.509  21.177  0.00  0.00    +0.000 C 
ENDBRANCH   1  13
BRANCH   5  14
ATOM     14  C   UNL     1      -0.595  11.450  20.998  0.00  0.00    +0.000 A 
ATOM     15  C   UNL     1      -1.332  11.566  22.185  0.00  0.00    +0.000 A 
ATOM     16  C   UNL     1      -1.147  10.667  23.247  0.00  0.00    +0.000 A 
ATOM     17  C   UNL     1      -0.200   9.653  23.162  0.00  0.00    +0.000 A 
ATOM     18  C   UNL     1       0.584   9.541  22.022  0.00  0.00    +0.000 A 
ATOM     19  C   UNL     1       0.391  10.428  20.961  0.00  0.00    +0.000 A 
ENDBRANCH   5  14
BRANCH   5  20
ATOM     20  C   UNL     1      -1.632  11.485  18.684  0.00  0.00    +0.000 A 
ATOM     21  C   UNL     1      -3.034  11.673  18.640  0.00  0.00    +0.000 A 
ATOM     22  C   UNL     1      -3.839  10.889  17.819  0.00  0.00    +0.000 A 
ATOM     23  C   UNL     1      -3.264   9.922  17.003  0.00  0.00    +0.000 A 
ATOM     24  C   UNL     1      -1.878   9.757  16.993  0.00  0.00    +0.000 A 
ATOM     25  C   UNL     1      -1.061  10.535  17.827  0.00  0.00    +0.000 A 
ENDBRANCH   5  20
TORSDOF 3
ENDMDL
MODEL 2
REMARK VINA RESULT:      -6.1      0.399      1.039
REMARK  Name = 
REMARK  5 active torsions:
REMARK  status: ('A' for Active; 'I' for Inactive)
REMARK    1  A    between atoms: C_1  and  N_2
REMARK    2  A    between atoms: N_2  and  C_3
REMARK    3  A    between atoms: C_7  and  C_8
REMARK    4  A    between atoms: C_12  and  C_13
REMARK    5  A    between atoms: C_12  and  C_19
REMARK                            x       y       z     vdW  Elec       q    Type
REMARK                         _______ _______ _______ _____ _____    ______ ____
ROOT
ATOM      1  C   UNL     1      -1.257  14.481  20.252  0.00  0.00    +0.000 C 
ATOM      2  C   UNL     1      -0.414  14.577  18.995  0.00  0.00    +0.000 C 
ATOM      3  S   UNL     1       0.449  12.997  18.820  0.00  0.00    +0.000 S 
ATOM      4  O   UNL     1       1.773  13.074  19.642  0.00  0.00    +0.000 OA
ATOM      5  C   UNL     1      -0.920  12.128  19.726  0.00  0.00    +0.000 C 
ATOM      6  O   UNL     1      -1.737  13.143  20.373  0.00  0.00    +0.000 OA
ENDROOT
BRANCH   1  13
ATOM      7  C   UNL     1      -0.592  17.452  22.722  0.00  0.00    +0.000 C 
ATOM      8  N   UNL     1      -1.522  16.350  22.186  0.00  0.00    +0.000 N 
ATOM      9  C   UNL     1      -2.537  17.048  21.301  0.00  0.00    +0.000 C 
ATOM     10  C   UNL     1      -2.223  15.666  23.361  0.00  0.00    +0.000 C 
ATOM     11  C   UNL     1      -1.177  14.740  23.936  0.00  0.00    +0.000 C 
ATOM     12  C   UNL     1      -0.322  14.308  22.757  0.00  0.00    +0.000 C 
ATOM     13  C   UNL     1      -0.684  15.184  21.551  0.00  0.00    +0.000 C 
ENDBRANCH   1  13
BRANCH   5  14
ATOM     14  C   UNL     1      -0.605  11.169  20.889  0.00  0.00    +0.000 A 
ATOM     15  C   UNL     1       0.438  10.233  20.917  0.00  0.00    +0.000 A 
ATOM     16  C   UNL     1       0.725   9.499  22.079  0.00  0.00    +0.000 A 
ATOM     17  C   UNL     1      -0.043   9.659  23.227  0.00  0.00    +0.000 A 
ATOM     18  C   UNL     1      -1.115  10.539  23.218  0.00  0.00    +0.000 A 
ATOM     19  C   UNL     1      -1.392  11.278  22.066  0.00  0.00    +0.000 A 
ENDBRANCH   5  14
BRANCH   5  20
ATOM     20  C   UNL     1      -1.706  11.395  18.615  0.00  0.00    +0.000 A 
ATOM     21  C   UNL     1      -3.097  11.631  18.500  0.00  0.00    +0.000 A 
ATOM     22  C   UNL     1      -3.878  10.904  17.607  0.00  0.00    +0.000 A 
ATOM     23  C   UNL     1      -3.288   9.947  16.789  0.00  0.00    +0.000 A 
ATOM     24  C   UNL     1      -1.909   9.737  16.850  0.00  0.00    +0.000 A 
ATOM     25  C   UNL     1      -1.118  10.456  17.757  0.00  0.00    +0.000 A 
ENDBRANCH   5  20
TORSDOF 3
ENDMDL
MODEL 3
REMARK VINA RESULT:      -6.1      0.422      1.425
REMARK  Name = 
REMARK  5 active torsions:
REMARK  status: ('A' for Active; 'I' for Inactive)
REMARK    1  A    between atoms: C_1  and  N_2
REMARK    2  A    between atoms: N_2  and  C_3
REMARK    3  A    between atoms: C_7  and  C_8
REMARK    4  A    between atoms: C_12  and  C_13
REMARK    5  A    between atoms: C_12  and  C_19
REMARK                            x       y       z     vdW  Elec       q    Type
REMARK                         _______ _______ _______ _____ _____    ______ ____
ROOT
ATOM      1  C   UNL     1      -1.040  14.408  20.167  0.00  0.00    +0.000 C 
ATOM      2  C   UNL     1      -0.281  14.400  18.854  0.00  0.00    +0.000 C 
ATOM      3  S   UNL     1       0.440  12.751  18.675  0.00  0.00    +0.000 S 
ATOM      4  O   UNL     1       1.820  12.743  19.404  0.00  0.00    +0.000 OA
ATOM      5  C   UNL     1      -0.927  12.021  19.698  0.00  0.00    +0.000 C 
ATOM      6  O   UNL     1      -1.615  13.117  20.364  0.00  0.00    +0.000 OA
ENDROOT
BRANCH   1  13
ATOM      7  C   UNL     1       0.441  17.382  22.246  0.00  0.00    +0.000 C 
ATOM      8  N   UNL     1      -0.771  16.553  21.789  0.00  0.00    +0.000 N 
ATOM      9  C   UNL     1      -1.471  17.379  20.727  0.00  0.00    +0.000 C 
ATOM     10  C   UNL     1      -1.701  16.319  22.980  0.00  0.00    +0.000 C 
ATOM     11  C   UNL     1      -1.032  15.219  23.771  0.00  0.00    +0.000 C 
ATOM     12  C   UNL     1      -0.313  14.359  22.746  0.00  0.00    +0.000 C 
ATOM     13  C   UNL     1      -0.325  15.097  21.401  0.00  0.00    +0.000 C 
ENDBRANCH   1  13
BRANCH   5  14
ATOM     14  C   UNL     1      -0.610  11.073  20.868  0.00  0.00    +0.000 A 
ATOM     15  C   UNL     1       0.394  10.094  20.879  0.00  0.00    +0.000 A 
ATOM     16  C   UNL     1       0.692   9.371  22.044  0.00  0.00    +0.000 A 
ATOM     17  C   UNL     1      -0.025   9.585  23.216  0.00  0.00    +0.000 A 
ATOM     18  C   UNL     1      -1.059  10.510  23.227  0.00  0.00    +0.000 A 
ATOM     19  C   UNL     1      -1.348  11.238  22.071  0.00  0.00    +0.000 A 
ENDBRANCH   5  14
BRANCH   5  20
ATOM     20  C   UNL     1      -1.843  11.324  18.667  0.00  0.00    +0.000 A 
ATOM     21  C   UNL     1      -1.279  10.355  17.803  0.00  0.00    +0.000 A 
ATOM     22  C   UNL     1      -2.023   9.791  16.771  0.00  0.00    +0.000 A 
ATOM     23  C   UNL     1      -3.352  10.157  16.594  0.00  0.00    +0.000 A 
ATOM     24  C   UNL     1      -3.943  11.072  17.468  0.00  0.00    +0.000 A 
ATOM     25  C   UNL     1      -3.196  11.654  18.502  0.00  0.00    +0.000 A 
ENDBRANCH   5  20
TORSDOF 3
ENDMDL
MODEL 4
REMARK VINA RESULT:      -6.0      1.697      2.530
REMARK  Name = 
REMARK  5 active torsions:
REMARK  status: ('A' for Active; 'I' for Inactive)
REMARK    1  A    between atoms: C_1  and  N_2
REMARK    2  A    between atoms: N_2  and  C_3
REMARK    3  A    between atoms: C_7  and  C_8
REMARK    4  A    between atoms: C_12  and  C_13
REMARK    5  A    between atoms: C_12  and  C_19
REMARK                            x       y       z     vdW  Elec       q    Type
REMARK                         _______ _______ _______ _____ _____    ______ ____
ROOT
ATOM      1  C   UNL     1       0.412  14.399  18.900  0.00  0.00    +0.000 C 
ATOM      2  C   UNL     1       1.322  13.206  18.672  0.00  0.00    +0.000 C 
ATOM      3  S   UNL     1       0.780  11.908  19.808  0.00  0.00    +0.000 S 
ATOM      4  O   UNL     1       1.504  12.125  21.174  0.00  0.00    +0.000 OA
ATOM      5  C   UNL     1      -0.950  12.586  19.787  0.00  0.00    +0.000 C 
ATOM      6  O   UNL     1      -0.896  13.917  19.202  0.00  0.00    +0.000 OA
ENDROOT
BRANCH   1  13
ATOM      7  C   UNL     1       1.588  18.059  19.662  0.00  0.00    +0.000 C 
ATOM      8  N   UNL     1       0.455  17.031  19.511  0.00  0.00    +0.000 N 
ATOM      9  C   UNL     1      -0.184  17.302  18.163  0.00  0.00    +0.000 C 
ATOM     10  C   UNL     1      -0.565  17.235  20.633  0.00  0.00    +0.000 C 
ATOM     11  C   UNL     1       0.078  16.603  21.846  0.00  0.00    +0.000 C 
ATOM     12  C   UNL     1       0.916  15.454  21.311  0.00  0.00    +0.000 C 
ATOM     13  C   UNL     1       0.990  15.579  19.783  0.00  0.00    +0.000 C 
ENDBRANCH   1  13
BRANCH   5  14
ATOM     14  C   UNL     1      -1.710  12.835  21.102  0.00  0.00    +0.000 A 
ATOM     15  C   UNL     1      -2.502  13.955  21.389  0.00  0.00    +0.000 A 
ATOM     16  C   UNL     1      -3.263  14.025  22.566  0.00  0.00    +0.000 A 
ATOM     17  C   UNL     1      -3.227  12.994  23.498  0.00  0.00    +0.000 A 
ATOM     18  C   UNL     1      -2.414  11.893  23.270  0.00  0.00    +0.000 A 
ATOM     19  C   UNL     1      -1.666  11.818  22.093  0.00  0.00    +0.000 A 
ENDBRANCH   5  14
BRANCH   5  20
ATOM     20  C   UNL     1      -1.731  11.604  18.885  0.00  0.00    +0.000 A 
ATOM     21  C   UNL     1      -1.015  10.590  18.204  0.00  0.00    +0.000 A 
ATOM     22  C   UNL     1      -1.644   9.762  17.279  0.00  0.00    +0.000 A 
ATOM     23  C   UNL     1      -3.004   9.906  17.033  0.00  0.00    +0.000 A 
ATOM     24  C   UNL     1      -3.740  10.864  17.732  0.00  0.00    +0.000 A 
ATOM     25  C   UNL     1      -3.110  11.711  18.656  0.00  0.00    +0.000 A 
ENDBRANCH   5  20
TORSDOF 3
ENDMDL
MODEL 5
REMARK VINA RESULT:      -5.9      2.858      5.183
REMARK  Name = 
REMARK  5 active torsions:
REMARK  status: ('A' for Active; 'I' for Inactive)
REMARK    1  A    between atoms: C_1  and  N_2
REMARK    2  A    between atoms: N_2  and  C_3
REMARK    3  A    between atoms: C_7  and  C_8
REMARK    4  A    between atoms: C_12  and  C_13
REMARK    5  A    between atoms: C_12  and  C_19
REMARK                            x       y       z     vdW  Elec       q    Type
REMARK                         _______ _______ _______ _____ _____    ______ ____
ROOT
ATOM      1  C   UNL     1      -3.843  12.579  20.503  0.00  0.00    +0.000 C 
ATOM      2  C   UNL     1      -2.754  12.662  19.450  0.00  0.00    +0.000 C 
ATOM      3  S   UNL     1      -1.310  13.402  20.246  0.00  0.00    +0.000 S 
ATOM      4  O   UNL     1      -1.442  14.954  20.145  0.00  0.00    +0.000 OA
ATOM      5  C   UNL     1      -1.849  12.732  21.892  0.00  0.00    +0.000 C 
ATOM      6  O   UNL     1      -3.233  12.301  21.763  0.00  0.00    +0.000 OA
ENDROOT
BRANCH   1  13
ATOM      7  C   UNL     1      -7.472  13.985  20.038  0.00  0.00    +0.000 C 
ATOM      8  N   UNL     1      -6.416  13.293  20.917  0.00  0.00    +0.000 N 
ATOM      9  C   UNL     1      -6.771  11.817  20.918  0.00  0.00    +0.000 C 
ATOM     10  C   UNL     1      -6.490  13.858  22.336  0.00  0.00    +0.000 C 
ATOM     11  C   UNL     1      -5.787  15.193  22.246  0.00  0.00    +0.000 C 
ATOM     12  C   UNL     1      -4.718  15.020  21.180  0.00  0.00    +0.000 C 
ATOM     13  C   UNL     1      -4.969  13.691  20.455  0.00  0.00    +0.000 C 
ENDBRANCH   1  13
BRANCH   5  14
ATOM     14  C   UNL     1      -1.903  13.645  23.130  0.00  0.00    +0.000 A 
ATOM     15  C   UNL     1      -0.944  14.605  23.482  0.00  0.00    +0.000 A 
ATOM     16  C   UNL     1      -1.153  15.481  24.558  0.00  0.00    +0.000 A 
ATOM     17  C   UNL     1      -2.307  15.398  25.328  0.00  0.00    +0.000 A 
ATOM     18  C   UNL     1      -3.254  14.425  25.040  0.00  0.00    +0.000 A 
ATOM     19  C   UNL     1      -3.052  13.561  23.962  0.00  0.00    +0.000 A 
ENDBRANCH   5  14
BRANCH   5  20
ATOM     20  C   UNL     1      -0.906  11.533  22.142  0.00  0.00    +0.000 A 
ATOM     21  C   UNL     1       0.139  11.287  21.219  0.00  0.00    +0.000 A 
ATOM     22  C   UNL     1       0.935  10.151  21.320  0.00  0.00    +0.000 A 
ATOM     23  C   UNL     1       0.729   9.249  22.358  0.00  0.00    +0.000 A 
ATOM     24  C   UNL     1      -0.261   9.500  23.309  0.00  0.00    +0.000 A 
ATOM     25  C   UNL     1      -1.076  10.637  23.206  0.00  0.00    +0.000 A 
ENDBRANCH   5  20
TORSDOF 3
ENDMDL
MODEL 6
REMARK VINA RESULT:      -5.9      1.864      2.870
REMARK  Name = 
REMARK  5 active torsions:
REMARK  status: ('A' for Active; 'I' for Inactive)
REMARK    1  A    between atoms: C_1  and  N_2
REMARK    2  A    between atoms: N_2  and  C_3
REMARK    3  A    between atoms: C_7  and  C_8
REMARK    4  A    between atoms: C_12  and  C_13
REMARK    5  A    between atoms: C_12  and  C_19
REMARK                            x       y       z     vdW  Elec       q    Type
REMARK                         _______ _______ _______ _____ _____    ______ ____
ROOT
ATOM      1  C   UNL     1       0.949  13.669  19.162  0.00  0.00    +0.000 C 
ATOM      2  C   UNL     1       1.576  12.298  18.993  0.00  0.00    +0.000 C 
ATOM      3  S   UNL     1       0.633  11.158  20.032  0.00  0.00    +0.000 S 
ATOM      4  O   UNL     1       1.242  11.193  21.469  0.00  0.00    +0.000 OA
ATOM      5  C   UNL     1      -0.880  12.220  19.857  0.00  0.00    +0.000 C 
ATOM      6  O   UNL     1      -0.460  13.505  19.318  0.00  0.00    +0.000 OA
ENDROOT
BRANCH   1  13
ATOM      7  C   UNL     1       2.826  16.966  20.149  0.00  0.00    +0.000 C 
ATOM      8  N   UNL     1       1.512  16.216  19.868  0.00  0.00    +0.000 N 
ATOM      9  C   UNL     1       1.071  16.643  18.480  0.00  0.00    +0.000 C 
ATOM     10  C   UNL     1       0.466  16.623  20.906  0.00  0.00    +0.000 C 
ATOM     11  C   UNL     1       0.843  15.845  22.146  0.00  0.00    +0.000 C 
ATOM     12  C   UNL     1       1.454  14.548  21.643  0.00  0.00    +0.000 C 
ATOM     13  C   UNL     1       1.690  14.678  20.132  0.00  0.00    +0.000 C 
ENDBRANCH   1  13
BRANCH   5  14
ATOM     14  C   UNL     1      -1.694  12.634  21.097  0.00  0.00    +0.000 A 
ATOM     15  C   UNL     1      -1.951  11.827  22.214  0.00  0.00    +0.000 A 
ATOM     16  C   UNL     1      -2.590  12.342  23.352  0.00  0.00    +0.000 A 
ATOM     17  C   UNL     1      -3.016  13.665  23.389  0.00  0.00    +0.000 A 
ATOM     18  C   UNL     1      -2.824  14.479  22.281  0.00  0.00    +0.000 A 
ATOM     19  C   UNL     1      -2.177  13.969  21.153  0.00  0.00    +0.000 A 
ENDBRANCH   5  14
BRANCH   5  20
ATOM     20  C   UNL     1      -1.771  11.452  18.854  0.00  0.00    +0.000 A 
ATOM     21  C   UNL     1      -1.182  10.433  18.066  0.00  0.00    +0.000 A 
ATOM     22  C   UNL     1      -1.901   9.799  17.058  0.00  0.00    +0.000 A 
ATOM     23  C   UNL     1      -3.228  10.144  16.829  0.00  0.00    +0.000 A 
ATOM     24  C   UNL     1      -3.842  11.108  17.630  0.00  0.00    +0.000 A 
ATOM     25  C   UNL     1      -3.121  11.761  18.640  0.00  0.00    +0.000 A 
ENDBRANCH   5  20
TORSDOF 3
ENDMDL
MODEL 7
REMARK VINA RESULT:      -5.9      2.420      4.877
REMARK  Name = 
REMARK  5 active torsions:
REMARK  status: ('A' for Active; 'I' for Inactive)
REMARK    1  A    between atoms: C_1  and  N_2
REMARK    2  A    between atoms: N_2  and  C_3
REMARK    3  A    between atoms: C_7  and  C_8
REMARK    4  A    between atoms: C_12  and  C_13
REMARK    5  A    between atoms: C_12  and  C_19
REMARK                            x       y       z     vdW  Elec       q    Type
REMARK                         _______ _______ _______ _____ _____    ______ ____
ROOT
ATOM      1  C   UNL     1      -1.184  15.586  21.968  0.00  0.00    +0.000 C 
ATOM      2  C   UNL     1       0.074  16.358  22.322  0.00  0.00    +0.000 C 
ATOM      3  S   UNL     1       1.419  15.645  21.347  0.00  0.00    +0.000 S 
ATOM      4  O   UNL     1       2.008  14.437  22.143  0.00  0.00    +0.000 OA
ATOM      5  C   UNL     1       0.217  15.130  20.029  0.00  0.00    +0.000 C 
ATOM      6  O   UNL     1      -1.124  15.235  20.586  0.00  0.00    +0.000 OA
ENDROOT
BRANCH   1  13
ATOM      7  C   UNL     1      -3.584  13.890  24.561  0.00  0.00    +0.000 C 
ATOM      8  N   UNL     1      -3.192  14.177  23.102  0.00  0.00    +0.000 N 
ATOM      9  C   UNL     1      -4.150  15.245  22.609  0.00  0.00    +0.000 C 
ATOM     10  C   UNL     1      -3.350  12.900  22.275  0.00  0.00    +0.000 C 
ATOM     11  C   UNL     1      -2.131  12.075  22.620  0.00  0.00    +0.000 C 
ATOM     12  C   UNL     1      -1.025  13.079  22.901  0.00  0.00    +0.000 C 
ATOM     13  C   UNL     1      -1.653  14.476  22.995  0.00  0.00    +0.000 C 
ENDBRANCH   1  13
BRANCH   5  14
ATOM     14  C   UNL     1       0.230  13.694  19.473  0.00  0.00    +0.000 A 
ATOM     15  C   UNL     1       1.369  12.898  19.292  0.00  0.00    +0.000 A 
ATOM     16  C   UNL     1       1.262  11.553  18.905  0.00  0.00    +0.000 A 
ATOM     17  C   UNL     1       0.018  10.981  18.660  0.00  0.00    +0.000 A 
ATOM     18  C   UNL     1      -1.127  11.755  18.780  0.00  0.00    +0.000 A 
ATOM     19  C   UNL     1      -1.021  13.090  19.177  0.00  0.00    +0.000 A 
ENDBRANCH   5  14
BRANCH   5  20
ATOM     20  C   UNL     1       0.436  16.154  18.893  0.00  0.00    +0.000 A 
ATOM     21  C   UNL     1       1.759  16.409  18.455  0.00  0.00    +0.000 A 
ATOM     22  C   UNL     1       2.029  17.413  17.530  0.00  0.00    +0.000 A 
ATOM     23  C   UNL     1       0.987  18.165  16.998  0.00  0.00    +0.000 A 
ATOM     24  C   UNL     1      -0.328  17.893  17.376  0.00  0.00    +0.000 A 
ATOM     25  C   UNL     1      -0.607  16.892  18.318  0.00  0.00    +0.000 A 
ENDBRANCH   5  20
TORSDOF 3
ENDMDL
MODEL 8
REMARK VINA RESULT:      -5.9      2.606      4.314
REMARK  Name = 
REMARK  5 active torsions:
REMARK  status: ('A' for Active; 'I' for Inactive)
REMARK    1  A    between atoms: C_1  and  N_2
REMARK    2  A    between atoms: N_2  and  C_3
REMARK    3  A    between atoms: C_7  and  C_8
REMARK    4  A    between atoms: C_12  and  C_13
REMARK    5  A    between atoms: C_12  and  C_19
REMARK                            x       y       z     vdW  Elec       q    Type
REMARK                         _______ _______ _______ _____ _____    ______ ____
ROOT
ATOM      1  C   UNL     1      -1.422  11.837  20.781  0.00  0.00    +0.000 C 
ATOM      2  C   UNL     1      -2.056  11.307  19.509  0.00  0.00    +0.000 C 
ATOM      3  S   UNL     1      -0.836  11.513  18.191  0.00  0.00    +0.000 S 
ATOM      4  O   UNL     1      -0.996  12.950  17.601  0.00  0.00    +0.000 OA
ATOM      5  C   UNL     1       0.547  11.383  19.423  0.00  0.00    +0.000 C 
ATOM      6  O   UNL     1      -0.028  11.535  20.752  0.00  0.00    +0.000 OA
ENDROOT
BRANCH   1  13
ATOM      7  C   UNL     1      -3.546  14.487  22.739  0.00  0.00    +0.000 C 
ATOM      8  N   UNL     1      -2.402  13.459  22.708  0.00  0.00    +0.000 N 
ATOM      9  C   UNL     1      -2.927  12.222  23.411  0.00  0.00    +0.000 C 
ATOM     10  C   UNL     1      -1.195  14.025  23.458  0.00  0.00    +0.000 C 
ATOM     11  C   UNL     1      -0.572  15.001  22.488  0.00  0.00    +0.000 C 
ATOM     12  C   UNL     1      -0.846  14.434  21.105  0.00  0.00    +0.000 C 
ATOM     13  C   UNL     1      -1.857  13.288  21.245  0.00  0.00    +0.000 C 
ENDBRANCH   1  13
BRANCH   5  14
ATOM     14  C   UNL     1       1.685  12.421  19.437  0.00  0.00    +0.000 A 
ATOM     15  C   UNL     1       2.286  12.991  18.307  0.00  0.00    +0.000 A 
ATOM     16  C   UNL     1       3.223  14.028  18.427  0.00  0.00    +0.000 A 
ATOM     17  C   UNL     1       3.606  14.498  19.678  0.00  0.00    +0.000 A 
ATOM     18  C   UNL     1       3.069  13.922  20.820  0.00  0.00    +0.000 A 
ATOM     19  C   UNL     1       2.127  12.897  20.700  0.00  0.00    +0.000 A 
ENDBRANCH   5  14
BRANCH   5  20
ATOM     20  C   UNL     1       1.112   9.960  19.213  0.00  0.00    +0.000 A 
ATOM     21  C   UNL     1       1.166   9.080  20.321  0.00  0.00    +0.000 A 
ATOM     22  C   UNL     1       1.782   7.837  20.222  0.00  0.00    +0.000 A 
ATOM     23  C   UNL     1       2.332   7.430  19.012  0.00  0.00    +0.000 A 
ATOM     24  C   UNL     1       2.243   8.260  17.894  0.00  0.00    +0.000 A 
ATOM     25  C   UNL     1       1.635   9.520  17.989  0.00  0.00    +0.000 A 
ENDBRANCH   5  20
TORSDOF 3
ENDMDL
MODEL 9
REMARK VINA RESULT:      -5.8      1.664      2.401
REMARK  Name = 
REMARK  5 active torsions:
REMARK  status: ('A' for Active; 'I' for Inactive)
REMARK    1  A    between atoms: C_1  and  N_2
REMARK    2  A    between atoms: N_2  and  C_3
REMARK    3  A    between atoms: C_7  and  C_8
REMARK    4  A    between atoms: C_12  and  C_13
REMARK    5  A    between atoms: C_12  and  C_19
REMARK                            x       y       z     vdW  Elec       q    Type
REMARK                         _______ _______ _______ _____ _____    ______ ____
ROOT
ATOM      1  C   UNL     1       0.513  14.318  18.983  0.00  0.00    +0.000 C 
ATOM      2  C   UNL     1       1.407  13.125  18.703  0.00  0.00    +0.000 C 
ATOM      3  S   UNL     1       0.809  11.768  19.736  0.00  0.00    +0.000 S 
ATOM      4  O   UNL     1       1.498  11.881  21.132  0.00  0.00    +0.000 OA
ATOM      5  C   UNL     1      -0.907  12.479  19.712  0.00  0.00    +0.000 C 
ATOM      6  O   UNL     1      -0.812  13.844  19.217  0.00  0.00    +0.000 OA
ENDROOT
BRANCH   1  13
ATOM      7  C   UNL     1       1.745  17.895  20.010  0.00  0.00    +0.000 C 
ATOM      8  N   UNL     1       0.594  16.906  19.758  0.00  0.00    +0.000 N 
ATOM      9  C   UNL     1       0.008  17.275  18.408  0.00  0.00    +0.000 C 
ATOM     10  C   UNL     1      -0.459  17.066  20.856  0.00  0.00    +0.000 C 
ATOM     11  C   UNL     1       0.127  16.344  22.048  0.00  0.00    +0.000 C 
ATOM     12  C   UNL     1       0.957  15.210  21.470  0.00  0.00    +0.000 C 
ATOM     13  C   UNL     1       1.086  15.427  19.957  0.00  0.00    +0.000 C 
ENDBRANCH   1  13
BRANCH   5  14
ATOM     14  C   UNL     1      -1.699  12.658  21.019  0.00  0.00    +0.000 A 
ATOM     15  C   UNL     1      -1.710  11.762  22.098  0.00  0.00    +0.000 A 
ATOM     16  C   UNL     1      -2.360  12.081  23.301  0.00  0.00    +0.000 A 
ATOM     17  C   UNL     1      -3.039  13.286  23.443  0.00  0.00    +0.000 A 
ATOM     18  C   UNL     1      -3.092  14.173  22.378  0.00  0.00    +0.000 A 
ATOM     19  C   UNL     1      -2.436  13.861  21.185  0.00  0.00    +0.000 A 
ENDBRANCH   5  14
BRANCH   5  20
ATOM     20  C   UNL     1      -1.680  11.574  18.727  0.00  0.00    +0.000 A 
ATOM     21  C   UNL     1      -3.081  11.739  18.610  0.00  0.00    +0.000 A 
ATOM     22  C   UNL     1      -3.846  10.869  17.840  0.00  0.00    +0.000 A 
ATOM     23  C   UNL     1      -3.230   9.834  17.145  0.00  0.00    +0.000 A 
ATOM     24  C   UNL     1      -1.844   9.686  17.204  0.00  0.00    +0.000 A 
ATOM     25  C   UNL     1      -1.068  10.551  17.989  0.00  0.00    +0.000 A 
ENDBRANCH   5  20
TORSDOF 3
ENDMDL
