MODEL 1
REMARK VINA RESULT:      -6.5      0.000      0.000
REMARK  Name = 
REMARK  4 active torsions:
REMARK  status: ('A' for Active; 'I' for Inactive)
REMARK    1  A    between atoms: C_2  and  C_3
REMARK    2  A    between atoms: C_3  and  C_4
REMARK    3  A    between atoms: C_4  and  C_5
REMARK    4  A    between atoms: N_10  and  C_11
REMARK                            x       y       z     vdW  Elec       q    Type
REMARK                         _______ _______ _______ _____ _____    ______ ____
ROOT
ATOM      1  O   UNL     1       4.632   5.620  19.546  0.00  0.00    +0.000 OA
ATOM      2  C   UNL     1       5.564   4.931  19.139  0.00  0.00    +0.000 C 
ATOM      3  N   UNL     1       5.449   3.670  18.586  0.00  0.00    +0.000 N 
ATOM      4  H   UNL     1       6.282   3.161  18.321  0.00  0.00    +0.000 HD
ENDROOT
BRANCH   3   5
ATOM      5  C   UNL     1       4.237   3.042  18.359  0.00  0.00    +0.000 A 
ATOM      6  C   UNL     1       3.252   3.239  17.366  0.00  0.00    +0.000 A 
ATOM      7  N   UNL     1       2.221   2.398  17.498  0.00  0.00    +0.000 NA
ATOM      8  N   UNL     1       2.548   1.666  18.572  0.00  0.00    +0.000 N 
ATOM      9  C   UNL     1       3.746   2.016  19.130  0.00  0.00    +0.000 A 
ATOM     10  H   UNL     1       1.904   0.938  18.868  0.00  0.00    +0.000 HD
ENDBRANCH   3   5
BRANCH   2  11
ATOM     11  C   UNL     1       6.989   5.436  19.222  0.00  0.00    +0.000 C 
BRANCH  11  12
ATOM     12  C   UNL     1       7.338   6.334  18.041  0.00  0.00    +0.000 C 
BRANCH  12  13
ATOM     13  C   UNL     1       6.792   5.786  16.774  0.00  0.00    +0.000 A 
ATOM     14  C   UNL     1       5.720   6.128  15.977  0.00  0.00    +0.000 A 
ATOM     15  C   UNL     1       5.728   5.220  14.892  0.00  0.00    +0.000 A 
ATOM     16  C   UNL     1       6.800   4.385  15.099  0.00  0.00    +0.000 A 
ATOM     17  O   UNL     1       7.456   4.723  16.239  0.00  0.00    +0.000 OA
ENDBRANCH  12  13
ENDBRANCH  11  12
ENDBRANCH   2  11
TORSDOF 4
ENDMDL
MODEL 2
REMARK VINA RESULT:      -6.5      0.616      1.002
REMARK  Name = 
REMARK  4 active torsions:
REMARK  status: ('A' for Active; 'I' for Inactive)
REMARK    1  A    between atoms: C_2  and  C_3
REMARK    2  A    between atoms: C_3  and  C_4
REMARK    3  A    between atoms: C_4  and  C_5
REMARK    4  A    between atoms: N_10  and  C_11
REMARK                            x       y       z     vdW  Elec       q    Type
REMARK                         _______ _______ _______ _____ _____    ______ ____
ROOT
ATOM      1  O   UNL     1       4.516   5.663  19.314  0.00  0.00    +0.000 OA
ATOM      2  C   UNL     1       5.435   4.860  19.178  0.00  0.00    +0.000 C 
ATOM      3  N   UNL     1       5.294   3.489  19.074  0.00  0.00    +0.000 N 
ATOM      4  H   UNL     1       6.117   2.905  19.010  0.00  0.00    +0.000 HD
ENDROOT
BRANCH   3   5
ATOM      5  C   UNL     1       4.070   2.846  19.045  0.00  0.00    +0.000 A 
ATOM      6  C   UNL     1       3.095   2.643  20.047  0.00  0.00    +0.000 A 
ATOM      7  N   UNL     1       2.031   1.971  19.593  0.00  0.00    +0.000 NA
ATOM      8  N   UNL     1       2.327   1.746  18.305  0.00  0.00    +0.000 N 
ATOM      9  C   UNL     1       3.542   2.246  17.927  0.00  0.00    +0.000 A 
ATOM     10  H   UNL     1       1.648   1.246  17.740  0.00  0.00    +0.000 HD
ENDBRANCH   3   5
BRANCH   2  11
ATOM     11  C   UNL     1       6.871   5.335  19.116  0.00  0.00    +0.000 C 
BRANCH  11  12
ATOM     12  C   UNL     1       7.089   6.321  17.975  0.00  0.00    +0.000 C 
BRANCH  12  13
ATOM     13  C   UNL     1       6.646   5.747  16.681  0.00  0.00    +0.000 A 
ATOM     14  C   UNL     1       5.552   5.966  15.870  0.00  0.00    +0.000 A 
ATOM     15  C   UNL     1       5.703   5.103  14.759  0.00  0.00    +0.000 A 
ATOM     16  C   UNL     1       6.876   4.415  14.965  0.00  0.00    +0.000 A 
ATOM     17  O   UNL     1       7.458   4.801  16.129  0.00  0.00    +0.000 OA
ENDBRANCH  12  13
ENDBRANCH  11  12
ENDBRANCH   2  11
TORSDOF 4
ENDMDL
MODEL 3
REMARK VINA RESULT:      -6.4      2.652      5.520
REMARK  Name = 
REMARK  4 active torsions:
REMARK  status: ('A' for Active; 'I' for Inactive)
REMARK    1  A    between atoms: C_2  and  C_3
REMARK    2  A    between atoms: C_3  and  C_4
REMARK    3  A    between atoms: C_4  and  C_5
REMARK    4  A    between atoms: N_10  and  C_11
REMARK                            x       y       z     vdW  Elec       q    Type
REMARK                         _______ _______ _______ _____ _____    ______ ____
ROOT
ATOM      1  O   UNL     1       4.323   7.268  17.600  0.00  0.00    +0.000 OA
ATOM      2  C   UNL     1       3.772   6.171  17.635  0.00  0.00    +0.000 C 
ATOM      3  N   UNL     1       4.346   4.972  17.261  0.00  0.00    +0.000 N 
ATOM      4  H   UNL     1       3.795   4.124  17.282  0.00  0.00    +0.000 HD
ENDROOT
BRANCH   3   5
ATOM      5  C   UNL     1       5.662   4.848  16.853  0.00  0.00    +0.000 A 
ATOM      6  C   UNL     1       6.845   4.573  17.575  0.00  0.00    +0.000 A 
ATOM      7  N   UNL     1       7.923   4.525  16.786  0.00  0.00    +0.000 NA
ATOM      8  N   UNL     1       7.430   4.767  15.563  0.00  0.00    +0.000 N 
ATOM      9  C   UNL     1       6.079   4.973  15.549  0.00  0.00    +0.000 A 
ATOM     10  H   UNL     1       8.077   4.773  14.780  0.00  0.00    +0.000 HD
ENDBRANCH   3   5
BRANCH   2  11
ATOM     11  C   UNL     1       2.341   6.043  18.112  0.00  0.00    +0.000 C 
BRANCH  11  12
ATOM     12  C   UNL     1       1.839   4.607  18.008  0.00  0.00    +0.000 C 
BRANCH  12  13
ATOM     13  C   UNL     1       1.704   3.990  19.351  0.00  0.00    +0.000 A 
ATOM     14  C   UNL     1       0.954   2.943  19.842  0.00  0.00    +0.000 A 
ATOM     15  C   UNL     1       1.273   2.838  21.217  0.00  0.00    +0.000 A 
ATOM     16  C   UNL     1       2.192   3.828  21.473  0.00  0.00    +0.000 A 
ATOM     17  O   UNL     1       2.463   4.532  20.344  0.00  0.00    +0.000 OA
ENDBRANCH  12  13
ENDBRANCH  11  12
ENDBRANCH   2  11
TORSDOF 4
ENDMDL
MODEL 4
REMARK VINA RESULT:      -6.3      2.562      5.517
REMARK  Name = 
REMARK  4 active torsions:
REMARK  status: ('A' for Active; 'I' for Inactive)
REMARK    1  A    between atoms: C_2  and  C_3
REMARK    2  A    between atoms: C_3  and  C_4
REMARK    3  A    between atoms: C_4  and  C_5
REMARK    4  A    between atoms: N_10  and  C_11
REMARK                            x       y       z     vdW  Elec       q    Type
REMARK                         _______ _______ _______ _____ _____    ______ ____
ROOT
ATOM      1  O   UNL     1       4.316   6.191  18.499  0.00  0.00    +0.000 OA
ATOM      2  C   UNL     1       3.701   5.433  17.754  0.00  0.00    +0.000 C 
ATOM      3  N   UNL     1       4.237   4.759  16.673  0.00  0.00    +0.000 N 
ATOM      4  H   UNL     1       3.638   4.191  16.089  0.00  0.00    +0.000 HD
ENDROOT
BRANCH   3   5
ATOM      5  C   UNL     1       5.577   4.807  16.330  0.00  0.00    +0.000 A 
ATOM      6  C   UNL     1       6.227   5.252  15.157  0.00  0.00    +0.000 A 
ATOM      7  N   UNL     1       7.558   5.138  15.240  0.00  0.00    +0.000 NA
ATOM      8  N   UNL     1       7.755   4.624  16.462  0.00  0.00    +0.000 N 
ATOM      9  C   UNL     1       6.598   4.401  17.156  0.00  0.00    +0.000 A 
ATOM     10  H   UNL     1       8.711   4.453  16.759  0.00  0.00    +0.000 HD
ENDBRANCH   3   5
BRANCH   2  11
ATOM     11  C   UNL     1       2.226   5.168  17.970  0.00  0.00    +0.000 C 
BRANCH  11  12
ATOM     12  C   UNL     1       1.935   3.678  18.103  0.00  0.00    +0.000 C 
BRANCH  12  13
ATOM     13  C   UNL     1       1.887   3.269  19.529  0.00  0.00    +0.000 A 
ATOM     14  C   UNL     1       0.869   3.172  20.454  0.00  0.00    +0.000 A 
ATOM     15  C   UNL     1       1.466   2.714  21.653  0.00  0.00    +0.000 A 
ATOM     16  C   UNL     1       2.805   2.564  21.381  0.00  0.00    +0.000 A 
ATOM     17  O   UNL     1       3.071   2.896  20.091  0.00  0.00    +0.000 OA
ENDBRANCH  12  13
ENDBRANCH  11  12
ENDBRANCH   2  11
TORSDOF 4
ENDMDL
MODEL 5
REMARK VINA RESULT:      -6.3      2.861      5.378
REMARK  Name = 
REMARK  4 active torsions:
REMARK  status: ('A' for Active; 'I' for Inactive)
REMARK    1  A    between atoms: C_2  and  C_3
REMARK    2  A    between atoms: C_3  and  C_4
REMARK    3  A    between atoms: C_4  and  C_5
REMARK    4  A    between atoms: N_10  and  C_11
REMARK                            x       y       z     vdW  Elec       q    Type
REMARK                         _______ _______ _______ _____ _____    ______ ____
ROOT
ATOM      1  O   UNL     1       4.403   7.271  17.397  0.00  0.00    +0.000 OA
ATOM      2  C   UNL     1       3.862   6.206  17.683  0.00  0.00    +0.000 C 
ATOM      3  N   UNL     1       4.435   4.955  17.553  0.00  0.00    +0.000 N 
ATOM      4  H   UNL     1       3.892   4.130  17.773  0.00  0.00    +0.000 HD
ENDROOT
BRANCH   3   5
ATOM      5  C   UNL     1       5.738   4.749  17.138  0.00  0.00    +0.000 A 
ATOM      6  C   UNL     1       6.312   4.698  15.848  0.00  0.00    +0.000 A 
ATOM      7  N   UNL     1       7.633   4.488  15.887  0.00  0.00    +0.000 NA
ATOM      8  N   UNL     1       7.900   4.406  17.198  0.00  0.00    +0.000 N 
ATOM      9  C   UNL     1       6.796   4.551  17.992  0.00  0.00    +0.000 A 
ATOM     10  H   UNL     1       8.863   4.253  17.480  0.00  0.00    +0.000 HD
ENDBRANCH   3   5
BRANCH   2  11
ATOM     11  C   UNL     1       2.449   6.179  18.223  0.00  0.00    +0.000 C 
BRANCH  11  12
ATOM     12  C   UNL     1       2.428   6.076  19.744  0.00  0.00    +0.000 C 
BRANCH  12  13
ATOM     13  C   UNL     1       1.952   4.740  20.181  0.00  0.00    +0.000 A 
ATOM     14  C   UNL     1       2.079   4.025  21.353  0.00  0.00    +0.000 A 
ATOM     15  C   UNL     1       1.391   2.805  21.150  0.00  0.00    +0.000 A 
ATOM     16  C   UNL     1       0.893   2.855  19.869  0.00  0.00    +0.000 A 
ATOM     17  O   UNL     1       1.226   4.029  19.273  0.00  0.00    +0.000 OA
ENDBRANCH  12  13
ENDBRANCH  11  12
ENDBRANCH   2  11
TORSDOF 4
ENDMDL
MODEL 6
REMARK VINA RESULT:      -6.3      2.783      5.754
REMARK  Name = 
REMARK  4 active torsions:
REMARK  status: ('A' for Active; 'I' for Inactive)
REMARK    1  A    between atoms: C_2  and  C_3
REMARK    2  A    between atoms: C_3  and  C_4
REMARK    3  A    between atoms: C_4  and  C_5
REMARK    4  A    between atoms: N_10  and  C_11
REMARK                            x       y       z     vdW  Elec       q    Type
REMARK                         _______ _______ _______ _____ _____    ______ ____
ROOT
ATOM      1  O   UNL     1       3.858   4.654  16.934  0.00  0.00    +0.000 OA
ATOM      2  C   UNL     1       4.401   3.557  17.029  0.00  0.00    +0.000 C 
ATOM      3  N   UNL     1       5.559   3.175  16.378  0.00  0.00    +0.000 N 
ATOM      4  H   UNL     1       5.906   2.231  16.486  0.00  0.00    +0.000 HD
ENDROOT
BRANCH   3   5
ATOM      5  C   UNL     1       6.299   4.023  15.573  0.00  0.00    +0.000 A 
ATOM      6  C   UNL     1       6.367   4.158  14.169  0.00  0.00    +0.000 A 
ATOM      7  N   UNL     1       7.212   5.123  13.791  0.00  0.00    +0.000 NA
ATOM      8  N   UNL     1       7.681   5.603  14.951  0.00  0.00    +0.000 N 
ATOM      9  C   UNL     1       7.169   4.973  16.051  0.00  0.00    +0.000 A 
ATOM     10  H   UNL     1       8.349   6.367  14.916  0.00  0.00    +0.000 HD
ENDBRANCH   3   5
BRANCH   2  11
ATOM     11  C   UNL     1       3.809   2.478  17.909  0.00  0.00    +0.000 C 
BRANCH  11  12
ATOM     12  C   UNL     1       4.189   2.673  19.372  0.00  0.00    +0.000 C 
BRANCH  12  13
ATOM     13  C   UNL     1       2.985   2.898  20.211  0.00  0.00    +0.000 A 
ATOM     14  C   UNL     1       2.633   2.513  21.487  0.00  0.00    +0.000 A 
ATOM     15  C   UNL     1       1.345   3.049  21.722  0.00  0.00    +0.000 A 
ATOM     16  C   UNL     1       0.996   3.723  20.575  0.00  0.00    +0.000 A 
ATOM     17  O   UNL     1       1.988   3.639  19.652  0.00  0.00    +0.000 OA
ENDBRANCH  12  13
ENDBRANCH  11  12
ENDBRANCH   2  11
TORSDOF 4
ENDMDL
MODEL 7
REMARK VINA RESULT:      -6.2      1.239      1.501
REMARK  Name = 
REMARK  4 active torsions:
REMARK  status: ('A' for Active; 'I' for Inactive)
REMARK    1  A    between atoms: C_2  and  C_3
REMARK    2  A    between atoms: C_3  and  C_4
REMARK    3  A    between atoms: C_4  and  C_5
REMARK    4  A    between atoms: N_10  and  C_11
REMARK                            x       y       z     vdW  Elec       q    Type
REMARK                         _______ _______ _______ _____ _____    ______ ____
ROOT
ATOM      1  O   UNL     1       4.898   5.115  19.069  0.00  0.00    +0.000 OA
ATOM      2  C   UNL     1       5.397   4.344  18.253  0.00  0.00    +0.000 C 
ATOM      3  N   UNL     1       4.786   3.218  17.735  0.00  0.00    +0.000 N 
ATOM      4  H   UNL     1       5.297   2.618  17.101  0.00  0.00    +0.000 HD
ENDROOT
BRANCH   3   5
ATOM      5  C   UNL     1       3.486   2.849  18.029  0.00  0.00    +0.000 A 
ATOM      6  C   UNL     1       2.248   3.462  17.728  0.00  0.00    +0.000 A 
ATOM      7  N   UNL     1       1.208   2.760  18.191  0.00  0.00    +0.000 NA
ATOM      8  N   UNL     1       1.780   1.703  18.785  0.00  0.00    +0.000 N 
ATOM      9  C   UNL     1       3.146   1.711  18.721  0.00  0.00    +0.000 A 
ATOM     10  H   UNL     1       1.173   1.010  19.213  0.00  0.00    +0.000 HD
ENDBRANCH   3   5
BRANCH   2  11
ATOM     11  C   UNL     1       6.798   4.576  17.729  0.00  0.00    +0.000 C 
BRANCH  11  12
ATOM     12  C   UNL     1       6.827   5.665  16.663  0.00  0.00    +0.000 C 
BRANCH  12  13
ATOM     13  C   UNL     1       6.771   5.078  15.301  0.00  0.00    +0.000 A 
ATOM     14  C   UNL     1       5.915   4.189  14.685  0.00  0.00    +0.000 A 
ATOM     15  C   UNL     1       6.395   4.028  13.363  0.00  0.00    +0.000 A 
ATOM     16  C   UNL     1       7.510   4.827  13.260  0.00  0.00    +0.000 A 
ATOM     17  O   UNL     1       7.745   5.471  14.433  0.00  0.00    +0.000 OA
ENDBRANCH  12  13
ENDBRANCH  11  12
ENDBRANCH   2  11
TORSDOF 4
ENDMDL
MODEL 8
REMARK VINA RESULT:      -6.2      2.628      5.697
REMARK  Name = 
REMARK  4 active torsions:
REMARK  status: ('A' for Active; 'I' for Inactive)
REMARK    1  A    between atoms: C_2  and  C_3
REMARK    2  A    between atoms: C_3  and  C_4
REMARK    3  A    between atoms: C_4  and  C_5
REMARK    4  A    between atoms: N_10  and  C_11
REMARK                            x       y       z     vdW  Elec       q    Type
REMARK                         _______ _______ _______ _____ _____    ______ ____
ROOT
ATOM      1  O   UNL     1       3.504   4.437  16.835  0.00  0.00    +0.000 OA
ATOM      2  C   UNL     1       4.116   3.376  16.929  0.00  0.00    +0.000 C 
ATOM      3  N   UNL     1       5.424   3.165  16.537  0.00  0.00    +0.000 N 
ATOM      4  H   UNL     1       5.827   2.241  16.612  0.00  0.00    +0.000 HD
ENDROOT
BRANCH   3   5
ATOM      5  C   UNL     1       6.243   4.162  16.039  0.00  0.00    +0.000 A 
ATOM      6  C   UNL     1       6.738   4.406  14.738  0.00  0.00    +0.000 A 
ATOM      7  N   UNL     1       7.500   5.504  14.681  0.00  0.00    +0.000 NA
ATOM      8  N   UNL     1       7.490   5.960  15.942  0.00  0.00    +0.000 N 
ATOM      9  C   UNL     1       6.755   5.188  16.798  0.00  0.00    +0.000 A 
ATOM     10  H   UNL     1       8.007   6.810  16.146  0.00  0.00    +0.000 HD
ENDBRANCH   3   5
BRANCH   2  11
ATOM     11  C   UNL     1       3.444   2.149  17.507  0.00  0.00    +0.000 C 
BRANCH  11  12
ATOM     12  C   UNL     1       3.796   1.954  18.977  0.00  0.00    +0.000 C 
BRANCH  12  13
ATOM     13  C   UNL     1       2.775   2.576  19.857  0.00  0.00    +0.000 A 
ATOM     14  C   UNL     1       1.507   3.071  19.636  0.00  0.00    +0.000 A 
ATOM     15  C   UNL     1       1.037   3.530  20.889  0.00  0.00    +0.000 A 
ATOM     16  C   UNL     1       2.047   3.288  21.790  0.00  0.00    +0.000 A 
ATOM     17  O   UNL     1       3.107   2.705  21.172  0.00  0.00    +0.000 OA
ENDBRANCH  12  13
ENDBRANCH  11  12
ENDBRANCH   2  11
TORSDOF 4
ENDMDL
MODEL 9
REMARK VINA RESULT:      -6.2      2.623      5.512
REMARK  Name = 
REMARK  4 active torsions:
REMARK  status: ('A' for Active; 'I' for Inactive)
REMARK    1  A    between atoms: C_2  and  C_3
REMARK    2  A    between atoms: C_3  and  C_4
REMARK    3  A    between atoms: C_4  and  C_5
REMARK    4  A    between atoms: N_10  and  C_11
REMARK                            x       y       z     vdW  Elec       q    Type
REMARK                         _______ _______ _______ _____ _____    ______ ____
ROOT
ATOM      1  O   UNL     1       4.364   6.827  16.964  0.00  0.00    +0.000 OA
ATOM      2  C   UNL     1       3.889   6.101  17.834  0.00  0.00    +0.000 C 
ATOM      3  N   UNL     1       4.599   5.196  18.599  0.00  0.00    +0.000 N 
ATOM      4  H   UNL     1       4.110   4.607  19.261  0.00  0.00    +0.000 HD
ENDROOT
BRANCH   3   5
ATOM      5  C   UNL     1       5.971   5.040  18.524  0.00  0.00    +0.000 A 
ATOM      6  C   UNL     1       7.012   5.487  19.368  0.00  0.00    +0.000 A 
ATOM      7  N   UNL     1       8.218   5.103  18.936  0.00  0.00    +0.000 NA
ATOM      8  N   UNL     1       7.947   4.412  17.820  0.00  0.00    +0.000 N 
ATOM      9  C   UNL     1       6.614   4.349  17.524  0.00  0.00    +0.000 A 
ATOM     10  H   UNL     1       8.726   4.006  17.309  0.00  0.00    +0.000 HD
ENDBRANCH   3   5
BRANCH   2  11
ATOM     11  C   UNL     1       2.409   6.139  18.145  0.00  0.00    +0.000 C 
BRANCH  11  12
ATOM     12  C   UNL     1       1.765   4.766  17.990  0.00  0.00    +0.000 C 
BRANCH  12  13
ATOM     13  C   UNL     1       1.631   4.087  19.302  0.00  0.00    +0.000 A 
ATOM     14  C   UNL     1       0.933   2.977  19.730  0.00  0.00    +0.000 A 
ATOM     15  C   UNL     1       1.220   2.836  21.108  0.00  0.00    +0.000 A 
ATOM     16  C   UNL     1       2.070   3.867  21.431  0.00  0.00    +0.000 A 
ATOM     17  O   UNL     1       2.328   4.632  20.339  0.00  0.00    +0.000 OA
ENDBRANCH  12  13
ENDBRANCH  11  12
ENDBRANCH   2  11
TORSDOF 4
ENDMDL
