MODEL 1
REMARK VINA RESULT:      -6.6      0.000      0.000
REMARK  Name = 
REMARK  10 active torsions:
REMARK  status: ('A' for Active; 'I' for Inactive)
REMARK    1  A    between atoms: C_1  and  O_2
REMARK    2  A    between atoms: O_2  and  C_3
REMARK    3  A    between atoms: C_3  and  C_5
REMARK    4  A    between atoms: C_9  and  N_10
REMARK    5  A    between atoms: C_16  and  O_17
REMARK    6  A    between atoms: C_16  and  C_18
REMARK    7  A    between atoms: C_24  and  C_25
REMARK    8  A    between atoms: C_25  and  N_26
REMARK    9  A    between atoms: N_26  and  C_27
REMARK   10  A    between atoms: N_26  and  C_28
REMARK                            x       y       z     vdW  Elec       q    Type
REMARK                         _______ _______ _______ _____ _____    ______ ____
ROOT
ATOM      1  N   UNL     1      -3.442  12.194  23.120  0.00  0.00    +0.000 N 
ATOM      2  C   UNL     1      -2.342  12.356  22.297  0.00  0.00    +0.000 C 
ATOM      3  O   UNL     1      -2.351  13.274  21.490  0.00  0.00    +0.000 OA
ATOM      4  N   UNL     1      -1.199  11.572  22.344  0.00  0.00    +0.000 N 
ATOM      5  C   UNL     1      -0.973  10.427  23.236  0.00  0.00    +0.000 C 
ATOM      6  C   UNL     1      -0.538   9.176  22.429  0.00  0.00    +0.000 C 
ATOM      7  C   UNL     1       0.676   9.491  21.484  0.00  0.00    +0.000 C 
ATOM      8  C   UNL     1       0.271  10.685  20.546  0.00  0.00    +0.000 C 
ATOM      9  C   UNL     1      -0.076  11.891  21.450  0.00  0.00    +0.000 C 
ATOM     10  H   UNL     1      -3.422  11.503  23.876  0.00  0.00    +0.000 HD
ENDROOT
BRANCH   7  11
ATOM     11  C   UNL     1       1.201   8.281  20.682  0.00  0.00    +0.000 A 
ATOM     12  C   UNL     1       1.153   6.955  21.167  0.00  0.00    +0.000 A 
ATOM     13  C   UNL     1       1.728   5.907  20.437  0.00  0.00    +0.000 A 
ATOM     14  C   UNL     1       2.360   6.159  19.219  0.00  0.00    +0.000 A 
ATOM     15  C   UNL     1       2.408   7.459  18.717  0.00  0.00    +0.000 A 
ATOM     16  C   UNL     1       1.830   8.510  19.436  0.00  0.00    +0.000 A 
ENDBRANCH   7  11
BRANCH   1  21
ATOM     17  C   UNL     1      -5.602  12.877  21.941  0.00  0.00    +0.000 A 
ATOM     18  S   UNL     1      -6.837  13.986  22.219  0.00  0.00    +0.000 S 
ATOM     19  C   UNL     1      -6.230  14.649  23.615  0.00  0.00    +0.000 A 
ATOM     20  C   UNL     1      -5.038  14.010  23.907  0.00  0.00    +0.000 A 
ATOM     21  C   UNL     1      -4.652  12.991  22.994  0.00  0.00    +0.000 A 
BRANCH  17  22
ATOM     22  C   UNL     1      -5.676  11.994  20.758  0.00  0.00    +0.000 C 
ATOM     23  O   UNL     1      -6.449  11.050  20.710  0.00  0.00    +0.000 OA
BRANCH  22  25
ATOM     24  C   UNL     1      -4.748  11.576  18.533  0.00  0.00    +0.000 C 
ATOM     25  O   UNL     1      -4.853  12.284  19.709  0.00  0.00    +0.000 OA
ENDBRANCH  22  25
ENDBRANCH  17  22
ENDBRANCH   1  21
BRANCH   7  26
ATOM     26  O   UNL     1       1.750   9.923  22.294  0.00  0.00    +0.000 OA
ATOM     27  H   UNL     1       1.677   9.467  23.175  0.00  0.00    +0.000 HD
ENDBRANCH   7  26
BRANCH   8  28
ATOM     28  C   UNL     1      -0.899  10.337  19.558  0.00  0.00    +0.000 C 
BRANCH  28  29
ATOM     29  N   UNL     1      -0.740  10.901  18.195  0.00  0.00    +0.000 NA
ATOM     30  C   UNL     1      -1.521  10.179  17.178  0.00  0.00    +0.000 C 
ATOM     31  C   UNL     1      -1.129  12.327  18.167  0.00  0.00    +0.000 C 
ENDBRANCH  28  29
ENDBRANCH   8  28
TORSDOF 7
ENDMDL
MODEL 2
REMARK VINA RESULT:      -6.5      0.833      1.208
REMARK  Name = 
REMARK  10 active torsions:
REMARK  status: ('A' for Active; 'I' for Inactive)
REMARK    1  A    between atoms: C_1  and  O_2
REMARK    2  A    between atoms: O_2  and  C_3
REMARK    3  A    between atoms: C_3  and  C_5
REMARK    4  A    between atoms: C_9  and  N_10
REMARK    5  A    between atoms: C_16  and  O_17
REMARK    6  A    between atoms: C_16  and  C_18
REMARK    7  A    between atoms: C_24  and  C_25
REMARK    8  A    between atoms: C_25  and  N_26
REMARK    9  A    between atoms: N_26  and  C_27
REMARK   10  A    between atoms: N_26  and  C_28
REMARK                            x       y       z     vdW  Elec       q    Type
REMARK                         _______ _______ _______ _____ _____    ______ ____
ROOT
ATOM      1  N   UNL     1      -3.100  12.027  23.130  0.00  0.00    +0.000 N 
ATOM      2  C   UNL     1      -1.893  12.202  22.476  0.00  0.00    +0.000 C 
ATOM      3  O   UNL     1      -1.714  13.240  21.856  0.00  0.00    +0.000 OA
ATOM      4  N   UNL     1      -0.844  11.297  22.501  0.00  0.00    +0.000 N 
ATOM      5  C   UNL     1      -0.841   9.997  23.186  0.00  0.00    +0.000 C 
ATOM      6  C   UNL     1      -0.424   8.862  22.214  0.00  0.00    +0.000 C 
ATOM      7  C   UNL     1       0.926   9.194  21.482  0.00  0.00    +0.000 C 
ATOM      8  C   UNL     1       0.756  10.571  20.742  0.00  0.00    +0.000 C 
ATOM      9  C   UNL     1       0.409  11.635  21.810  0.00  0.00    +0.000 C 
ATOM     10  H   UNL     1      -3.241  11.218  23.742  0.00  0.00    +0.000 HD
ENDROOT
BRANCH   7  11
ATOM     11  C   UNL     1       1.434   8.089  20.532  0.00  0.00    +0.000 A 
ATOM     12  C   UNL     1       1.504   6.727  20.901  0.00  0.00    +0.000 A 
ATOM     13  C   UNL     1       2.060   5.780  20.032  0.00  0.00    +0.000 A 
ATOM     14  C   UNL     1       2.558   6.170  18.788  0.00  0.00    +0.000 A 
ATOM     15  C   UNL     1       2.487   7.507  18.399  0.00  0.00    +0.000 A 
ATOM     16  C   UNL     1       1.926   8.458  19.259  0.00  0.00    +0.000 A 
ENDBRANCH   7  11
BRANCH   1  21
ATOM     17  C   UNL     1      -5.146  13.005  21.955  0.00  0.00    +0.000 A 
ATOM     18  S   UNL     1      -6.245  14.242  22.263  0.00  0.00    +0.000 S 
ATOM     19  C   UNL     1      -5.584  14.776  23.690  0.00  0.00    +0.000 A 
ATOM     20  C   UNL     1      -4.480  13.991  23.969  0.00  0.00    +0.000 A 
ATOM     21  C   UNL     1      -4.205  12.967  23.022  0.00  0.00    +0.000 A 
BRANCH  17  22
ATOM     22  C   UNL     1      -5.306  12.181  20.739  0.00  0.00    +0.000 C 
ATOM     23  O   UNL     1      -4.599  12.344  19.757  0.00  0.00    +0.000 OA
BRANCH  22  25
ATOM     24  C   UNL     1      -7.558  11.336  20.292  0.00  0.00    +0.000 C 
ATOM     25  O   UNL     1      -6.269  11.215  20.761  0.00  0.00    +0.000 OA
ENDBRANCH  22  25
ENDBRANCH  17  22
ENDBRANCH   1  21
BRANCH   7  26
ATOM     26  O   UNL     1       1.922   9.355  22.470  0.00  0.00    +0.000 OA
ATOM     27  H   UNL     1       1.713   8.741  23.224  0.00  0.00    +0.000 HD
ENDBRANCH   7  26
BRANCH   8  28
ATOM     28  C   UNL     1      -0.306  10.534  19.585  0.00  0.00    +0.000 C 
BRANCH  28  29
ATOM     29  N   UNL     1      -0.047  11.493  18.483  0.00  0.00    +0.000 NA
ATOM     30  C   UNL     1      -1.001  12.613  18.457  0.00  0.00    +0.000 C 
ATOM     31  C   UNL     1       1.324  12.040  18.573  0.00  0.00    +0.000 C 
ENDBRANCH  28  29
ENDBRANCH   8  28
TORSDOF 7
ENDMDL
MODEL 3
REMARK VINA RESULT:      -6.5      1.422      2.611
REMARK  Name = 
REMARK  10 active torsions:
REMARK  status: ('A' for Active; 'I' for Inactive)
REMARK    1  A    between atoms: C_1  and  O_2
REMARK    2  A    between atoms: O_2  and  C_3
REMARK    3  A    between atoms: C_3  and  C_5
REMARK    4  A    between atoms: C_9  and  N_10
REMARK    5  A    between atoms: C_16  and  O_17
REMARK    6  A    between atoms: C_16  and  C_18
REMARK    7  A    between atoms: C_24  and  C_25
REMARK    8  A    between atoms: C_25  and  N_26
REMARK    9  A    between atoms: N_26  and  C_27
REMARK   10  A    between atoms: N_26  and  C_28
REMARK                            x       y       z     vdW  Elec       q    Type
REMARK                         _______ _______ _______ _____ _____    ______ ____
ROOT
ATOM      1  N   UNL     1      -3.352  12.197  23.127  0.00  0.00    +0.000 N 
ATOM      2  C   UNL     1      -2.287  12.339  22.255  0.00  0.00    +0.000 C 
ATOM      3  O   UNL     1      -2.341  13.224  21.413  0.00  0.00    +0.000 OA
ATOM      4  N   UNL     1      -1.133  11.573  22.288  0.00  0.00    +0.000 N 
ATOM      5  C   UNL     1      -0.856  10.467  23.215  0.00  0.00    +0.000 C 
ATOM      6  C   UNL     1      -0.435   9.191  22.442  0.00  0.00    +0.000 C 
ATOM      7  C   UNL     1       0.737   9.482  21.438  0.00  0.00    +0.000 C 
ATOM      8  C   UNL     1       0.279  10.633  20.470  0.00  0.00    +0.000 C 
ATOM      9  C   UNL     1      -0.050  11.870  21.339  0.00  0.00    +0.000 C 
ATOM     10  H   UNL     1      -3.293  11.536  23.908  0.00  0.00    +0.000 HD
ENDROOT
BRANCH   7  11
ATOM     11  C   UNL     1       1.247   8.248  20.665  0.00  0.00    +0.000 A 
ATOM     12  C   UNL     1       1.181   6.934  21.179  0.00  0.00    +0.000 A 
ATOM     13  C   UNL     1       1.744   5.863  20.474  0.00  0.00    +0.000 A 
ATOM     14  C   UNL     1       2.382   6.079  19.252  0.00  0.00    +0.000 A 
ATOM     15  C   UNL     1       2.447   7.366  18.720  0.00  0.00    +0.000 A 
ATOM     16  C   UNL     1       1.882   8.441  19.415  0.00  0.00    +0.000 A 
ENDBRANCH   7  11
BRANCH   1  21
ATOM     17  C   UNL     1      -4.798  14.244  23.618  0.00  0.00    +0.000 A 
ATOM     18  S   UNL     1      -6.347  14.761  23.209  0.00  0.00    +0.000 S 
ATOM     19  C   UNL     1      -6.794  13.436  22.313  0.00  0.00    +0.000 A 
ATOM     20  C   UNL     1      -5.732  12.549  22.304  0.00  0.00    +0.000 A 
ATOM     21  C   UNL     1      -4.578  12.973  23.017  0.00  0.00    +0.000 A 
BRANCH  17  22
ATOM     22  C   UNL     1      -3.942  15.113  24.451  0.00  0.00    +0.000 C 
ATOM     23  O   UNL     1      -4.363  16.150  24.940  0.00  0.00    +0.000 OA
BRANCH  22  25
ATOM     24  C   UNL     1      -1.753  15.276  25.533  0.00  0.00    +0.000 C 
ATOM     25  O   UNL     1      -2.659  14.703  24.668  0.00  0.00    +0.000 OA
ENDBRANCH  22  25
ENDBRANCH  17  22
ENDBRANCH   1  21
BRANCH   7  26
ATOM     26  O   UNL     1       1.836   9.961  22.188  0.00  0.00    +0.000 OA
ATOM     27  H   UNL     1       2.580   9.307  22.098  0.00  0.00    +0.000 HD
ENDBRANCH   7  26
BRANCH   8  28
ATOM     28  C   UNL     1      -0.924  10.230  19.543  0.00  0.00    +0.000 C 
BRANCH  28  29
ATOM     29  N   UNL     1      -0.856  10.790  18.171  0.00  0.00    +0.000 NA
ATOM     30  C   UNL     1      -1.621  10.006  17.190  0.00  0.00    +0.000 C 
ATOM     31  C   UNL     1      -1.344  12.186  18.147  0.00  0.00    +0.000 C 
ENDBRANCH  28  29
ENDBRANCH   8  28
TORSDOF 7
ENDMDL
MODEL 4
REMARK VINA RESULT:      -6.3      1.928      3.089
REMARK  Name = 
REMARK  10 active torsions:
REMARK  status: ('A' for Active; 'I' for Inactive)
REMARK    1  A    between atoms: C_1  and  O_2
REMARK    2  A    between atoms: O_2  and  C_3
REMARK    3  A    between atoms: C_3  and  C_5
REMARK    4  A    between atoms: C_9  and  N_10
REMARK    5  A    between atoms: C_16  and  O_17
REMARK    6  A    between atoms: C_16  and  C_18
REMARK    7  A    between atoms: C_24  and  C_25
REMARK    8  A    between atoms: C_25  and  N_26
REMARK    9  A    between atoms: N_26  and  C_27
REMARK   10  A    between atoms: N_26  and  C_28
REMARK                            x       y       z     vdW  Elec       q    Type
REMARK                         _______ _______ _______ _____ _____    ______ ____
ROOT
ATOM      1  N   UNL     1      -4.194  12.581  22.285  0.00  0.00    +0.000 N 
ATOM      2  C   UNL     1      -3.392  12.826  21.184  0.00  0.00    +0.000 C 
ATOM      3  O   UNL     1      -3.881  13.407  20.227  0.00  0.00    +0.000 OA
ATOM      4  N   UNL     1      -2.049  12.493  21.097  0.00  0.00    +0.000 N 
ATOM      5  C   UNL     1      -1.262  11.801  22.126  0.00  0.00    +0.000 C 
ATOM      6  C   UNL     1      -0.534  10.569  21.528  0.00  0.00    +0.000 C 
ATOM      7  C   UNL     1       0.295  10.950  20.250  0.00  0.00    +0.000 C 
ATOM      8  C   UNL     1      -0.682  11.617  19.214  0.00  0.00    +0.000 C 
ATOM      9  C   UNL     1      -1.297  12.866  19.890  0.00  0.00    +0.000 C 
ATOM     10  H   UNL     1      -3.788  12.191  23.141  0.00  0.00    +0.000 HD
ENDROOT
BRANCH   7  11
ATOM     11  C   UNL     1       1.089   9.785  19.624  0.00  0.00    +0.000 A 
ATOM     12  C   UNL     1       1.517   9.778  18.277  0.00  0.00    +0.000 A 
ATOM     13  C   UNL     1       2.154   8.654  17.737  0.00  0.00    +0.000 A 
ATOM     14  C   UNL     1       2.373   7.521  18.521  0.00  0.00    +0.000 A 
ATOM     15  C   UNL     1       1.970   7.512  19.856  0.00  0.00    +0.000 A 
ATOM     16  C   UNL     1       1.340   8.633  20.406  0.00  0.00    +0.000 A 
ENDBRANCH   7  11
BRANCH   1  21
ATOM     17  C   UNL     1      -6.202  14.020  22.933  0.00  0.00    +0.000 A 
ATOM     18  S   UNL     1      -7.867  13.953  22.700  0.00  0.00    +0.000 S 
ATOM     19  C   UNL     1      -7.916  12.521  21.862  0.00  0.00    +0.000 A 
ATOM     20  C   UNL     1      -6.620  12.056  21.734  0.00  0.00    +0.000 A 
ATOM     21  C   UNL     1      -5.617  12.881  22.313  0.00  0.00    +0.000 A 
BRANCH  17  22
ATOM     22  C   UNL     1      -5.618  15.165  23.664  0.00  0.00    +0.000 C 
ATOM     23  O   UNL     1      -4.545  15.078  24.239  0.00  0.00    +0.000 OA
BRANCH  22  25
ATOM     24  C   UNL     1      -5.946  17.516  24.255  0.00  0.00    +0.000 C 
ATOM     25  O   UNL     1      -6.322  16.334  23.657  0.00  0.00    +0.000 OA
ENDBRANCH  22  25
ENDBRANCH  17  22
ENDBRANCH   1  21
BRANCH   7  26
ATOM     26  O   UNL     1       1.249  11.921  20.630  0.00  0.00    +0.000 OA
ATOM     27  H   UNL     1       1.074  12.749  20.107  0.00  0.00    +0.000 HD
ENDBRANCH   7  26
BRANCH   8  28
ATOM     28  C   UNL     1      -1.786  10.639  18.674  0.00  0.00    +0.000 C 
BRANCH  28  29
ATOM     29  N   UNL     1      -2.728  11.251  17.704  0.00  0.00    +0.000 NA
ATOM     30  C   UNL     1      -2.414  10.918  16.306  0.00  0.00    +0.000 C 
ATOM     31  C   UNL     1      -4.119  10.838  17.990  0.00  0.00    +0.000 C 
ENDBRANCH  28  29
ENDBRANCH   8  28
TORSDOF 7
ENDMDL
MODEL 5
REMARK VINA RESULT:      -6.3      4.212      9.095
REMARK  Name = 
REMARK  10 active torsions:
REMARK  status: ('A' for Active; 'I' for Inactive)
REMARK    1  A    between atoms: C_1  and  O_2
REMARK    2  A    between atoms: O_2  and  C_3
REMARK    3  A    between atoms: C_3  and  C_5
REMARK    4  A    between atoms: C_9  and  N_10
REMARK    5  A    between atoms: C_16  and  O_17
REMARK    6  A    between atoms: C_16  and  C_18
REMARK    7  A    between atoms: C_24  and  C_25
REMARK    8  A    between atoms: C_25  and  N_26
REMARK    9  A    between atoms: N_26  and  C_27
REMARK   10  A    between atoms: N_26  and  C_28
REMARK                            x       y       z     vdW  Elec       q    Type
REMARK                         _______ _______ _______ _____ _____    ______ ____
ROOT
ATOM      1  N   UNL     1       2.181   6.432  18.261  0.00  0.00    +0.000 N 
ATOM      2  C   UNL     1       2.164   7.512  19.127  0.00  0.00    +0.000 C 
ATOM      3  O   UNL     1       2.683   7.382  20.226  0.00  0.00    +0.000 OA
ATOM      4  N   UNL     1       1.633   8.756  18.826  0.00  0.00    +0.000 N 
ATOM      5  C   UNL     1       0.971   9.132  17.570  0.00  0.00    +0.000 C 
ATOM      6  C   UNL     1      -0.419   9.762  17.845  0.00  0.00    +0.000 C 
ATOM      7  C   UNL     1      -0.328  10.934  18.887  0.00  0.00    +0.000 C 
ATOM      8  C   UNL     1       0.335  10.374  20.197  0.00  0.00    +0.000 C 
ATOM      9  C   UNL     1       1.735   9.836  19.818  0.00  0.00    +0.000 C 
ATOM     10  H   UNL     1       1.849   6.540  17.298  0.00  0.00    +0.000 HD
ENDROOT
BRANCH   7  11
ATOM     11  C   UNL     1      -1.666  11.645  19.177  0.00  0.00    +0.000 A 
ATOM     12  C   UNL     1      -1.823  12.603  20.203  0.00  0.00    +0.000 A 
ATOM     13  C   UNL     1      -3.083  13.148  20.483  0.00  0.00    +0.000 A 
ATOM     14  C   UNL     1      -4.203  12.751  19.752  0.00  0.00    +0.000 A 
ATOM     15  C   UNL     1      -4.067  11.816  18.727  0.00  0.00    +0.000 A 
ATOM     16  C   UNL     1      -2.811  11.271  18.436  0.00  0.00    +0.000 A 
ENDBRANCH   7  11
BRANCH   1  21
ATOM     17  C   UNL     1       4.059   4.772  18.750  0.00  0.00    +0.000 A 
ATOM     18  S   UNL     1       4.160   3.159  19.220  0.00  0.00    +0.000 S 
ATOM     19  C   UNL     1       2.531   2.841  19.271  0.00  0.00    +0.000 A 
ATOM     20  C   UNL     1       1.859   3.999  18.926  0.00  0.00    +0.000 A 
ATOM     21  C   UNL     1       2.684   5.120  18.637  0.00  0.00    +0.000 A 
BRANCH  17  22
ATOM     22  C   UNL     1       5.301   5.549  18.559  0.00  0.00    +0.000 C 
ATOM     23  O   UNL     1       5.366   6.467  17.756  0.00  0.00    +0.000 OA
BRANCH  22  25
ATOM     24  C   UNL     1       7.650   5.722  19.224  0.00  0.00    +0.000 C 
ATOM     25  O   UNL     1       6.376   5.210  19.329  0.00  0.00    +0.000 OA
ENDBRANCH  22  25
ENDBRANCH  17  22
ENDBRANCH   1  21
BRANCH   7  26
ATOM     26  O   UNL     1       0.535  11.917  18.352  0.00  0.00    +0.000 OA
ATOM     27  H   UNL     1       0.191  12.176  17.456  0.00  0.00    +0.000 HD
ENDBRANCH   7  26
BRANCH   8  28
ATOM     28  C   UNL     1      -0.534   9.287  20.924  0.00  0.00    +0.000 C 
BRANCH  28  29
ATOM     29  N   UNL     1      -0.407   9.287  22.403  0.00  0.00    +0.000 NA
ATOM     30  C   UNL     1       0.981   9.134  22.863  0.00  0.00    +0.000 C 
ATOM     31  C   UNL     1      -0.963  10.531  22.978  0.00  0.00    +0.000 C 
ENDBRANCH  28  29
ENDBRANCH   8  28
TORSDOF 7
ENDMDL
MODEL 6
REMARK VINA RESULT:      -6.3      1.579      2.802
REMARK  Name = 
REMARK  10 active torsions:
REMARK  status: ('A' for Active; 'I' for Inactive)
REMARK    1  A    between atoms: C_1  and  O_2
REMARK    2  A    between atoms: O_2  and  C_3
REMARK    3  A    between atoms: C_3  and  C_5
REMARK    4  A    between atoms: C_9  and  N_10
REMARK    5  A    between atoms: C_16  and  O_17
REMARK    6  A    between atoms: C_16  and  C_18
REMARK    7  A    between atoms: C_24  and  C_25
REMARK    8  A    between atoms: C_25  and  N_26
REMARK    9  A    between atoms: N_26  and  C_27
REMARK   10  A    between atoms: N_26  and  C_28
REMARK                            x       y       z     vdW  Elec       q    Type
REMARK                         _______ _______ _______ _____ _____    ______ ____
ROOT
ATOM      1  N   UNL     1      -3.449  12.194  23.184  0.00  0.00    +0.000 N 
ATOM      2  C   UNL     1      -2.331  12.452  22.412  0.00  0.00    +0.000 C 
ATOM      3  O   UNL     1      -2.325  13.457  21.717  0.00  0.00    +0.000 OA
ATOM      4  N   UNL     1      -1.186  11.669  22.395  0.00  0.00    +0.000 N 
ATOM      5  C   UNL     1      -0.977  10.429  23.153  0.00  0.00    +0.000 C 
ATOM      6  C   UNL     1      -0.517   9.281  22.216  0.00  0.00    +0.000 C 
ATOM      7  C   UNL     1       0.718   9.705  21.344  0.00  0.00    +0.000 C 
ATOM      8  C   UNL     1       0.330  11.000  20.542  0.00  0.00    +0.000 C 
ATOM      9  C   UNL     1      -0.044  12.092  21.572  0.00  0.00    +0.000 C 
ATOM     10  H   UNL     1      -3.445  11.419  23.854  0.00  0.00    +0.000 HD
ENDROOT
BRANCH   7  11
ATOM     11  C   UNL     1       1.267   8.598  20.420  0.00  0.00    +0.000 A 
ATOM     12  C   UNL     1       1.474   7.268  20.848  0.00  0.00    +0.000 A 
ATOM     13  C   UNL     1       2.061   6.327  19.993  0.00  0.00    +0.000 A 
ATOM     14  C   UNL     1       2.454   6.690  18.705  0.00  0.00    +0.000 A 
ATOM     15  C   UNL     1       2.248   7.995  18.258  0.00  0.00    +0.000 A 
ATOM     16  C   UNL     1       1.655   8.940  19.103  0.00  0.00    +0.000 A 
ENDBRANCH   7  11
BRANCH   1  21
ATOM     17  C   UNL     1      -4.850  14.242  23.786  0.00  0.00    +0.000 A 
ATOM     18  S   UNL     1      -6.391  14.809  23.416  0.00  0.00    +0.000 S 
ATOM     19  C   UNL     1      -6.871  13.539  22.460  0.00  0.00    +0.000 A 
ATOM     20  C   UNL     1      -5.827  12.633  22.399  0.00  0.00    +0.000 A 
ATOM     21  C   UNL     1      -4.660  12.998  23.123  0.00  0.00    +0.000 A 
BRANCH  17  22
ATOM     22  C   UNL     1      -3.970  15.053  24.654  0.00  0.00    +0.000 C 
ATOM     23  O   UNL     1      -2.951  14.591  25.144  0.00  0.00    +0.000 OA
BRANCH  22  25
ATOM     24  C   UNL     1      -3.489  17.391  25.187  0.00  0.00    +0.000 C 
ATOM     25  O   UNL     1      -4.333  16.349  24.875  0.00  0.00    +0.000 OA
ENDBRANCH  22  25
ENDBRANCH  17  22
ENDBRANCH   1  21
BRANCH   7  26
ATOM     26  O   UNL     1       1.771  10.042  22.225  0.00  0.00    +0.000 OA
ATOM     27  H   UNL     1       2.362  10.696  21.765  0.00  0.00    +0.000 HD
ENDBRANCH   7  26
BRANCH   8  28
ATOM     28  C   UNL     1      -0.814  10.768  19.492  0.00  0.00    +0.000 C 
BRANCH  28  29
ATOM     29  N   UNL     1      -1.441  12.012  18.981  0.00  0.00    +0.000 NA
ATOM     30  C   UNL     1      -0.553  12.786  18.100  0.00  0.00    +0.000 C 
ATOM     31  C   UNL     1      -2.690  11.709  18.249  0.00  0.00    +0.000 C 
ENDBRANCH  28  29
ENDBRANCH   8  28
TORSDOF 7
ENDMDL
MODEL 7
REMARK VINA RESULT:      -6.3      0.790      1.432
REMARK  Name = 
REMARK  10 active torsions:
REMARK  status: ('A' for Active; 'I' for Inactive)
REMARK    1  A    between atoms: C_1  and  O_2
REMARK    2  A    between atoms: O_2  and  C_3
REMARK    3  A    between atoms: C_3  and  C_5
REMARK    4  A    between atoms: C_9  and  N_10
REMARK    5  A    between atoms: C_16  and  O_17
REMARK    6  A    between atoms: C_16  and  C_18
REMARK    7  A    between atoms: C_24  and  C_25
REMARK    8  A    between atoms: C_25  and  N_26
REMARK    9  A    between atoms: N_26  and  C_27
REMARK   10  A    between atoms: N_26  and  C_28
REMARK                            x       y       z     vdW  Elec       q    Type
REMARK                         _______ _______ _______ _____ _____    ______ ____
ROOT
ATOM      1  N   UNL     1      -3.166  12.003  23.062  0.00  0.00    +0.000 N 
ATOM      2  C   UNL     1      -1.947  12.236  22.450  0.00  0.00    +0.000 C 
ATOM      3  O   UNL     1      -1.778  13.306  21.884  0.00  0.00    +0.000 OA
ATOM      4  N   UNL     1      -0.876  11.356  22.463  0.00  0.00    +0.000 N 
ATOM      5  C   UNL     1      -0.859  10.027  23.087  0.00  0.00    +0.000 C 
ATOM      6  C   UNL     1      -0.388   8.949  22.076  0.00  0.00    +0.000 C 
ATOM      7  C   UNL     1       0.972   9.347  21.398  0.00  0.00    +0.000 C 
ATOM      8  C   UNL     1       0.787  10.751  20.718  0.00  0.00    +0.000 C 
ATOM      9  C   UNL     1       0.385  11.756  21.824  0.00  0.00    +0.000 C 
ATOM     10  H   UNL     1      -3.303  11.163  23.632  0.00  0.00    +0.000 HD
ENDROOT
BRANCH   7  11
ATOM     11  C   UNL     1       1.533   8.299  20.413  0.00  0.00    +0.000 A 
ATOM     12  C   UNL     1       1.913   8.611  19.089  0.00  0.00    +0.000 A 
ATOM     13  C   UNL     1       2.329   7.603  18.210  0.00  0.00    +0.000 A 
ATOM     14  C   UNL     1       2.370   6.273  18.629  0.00  0.00    +0.000 A 
ATOM     15  C   UNL     1       2.010   5.945  19.935  0.00  0.00    +0.000 A 
ATOM     16  C   UNL     1       1.600   6.947  20.822  0.00  0.00    +0.000 A 
ENDBRANCH   7  11
BRANCH   1  21
ATOM     17  C   UNL     1      -5.173  13.021  21.854  0.00  0.00    +0.000 A 
ATOM     18  S   UNL     1      -6.324  14.200  22.197  0.00  0.00    +0.000 S 
ATOM     19  C   UNL     1      -5.758  14.633  23.697  0.00  0.00    +0.000 A 
ATOM     20  C   UNL     1      -4.648  13.855  23.975  0.00  0.00    +0.000 A 
ATOM     21  C   UNL     1      -4.291  12.920  22.967  0.00  0.00    +0.000 A 
BRANCH  17  22
ATOM     22  C   UNL     1      -5.242  12.295  20.569  0.00  0.00    +0.000 C 
ATOM     23  O   UNL     1      -4.257  12.151  19.861  0.00  0.00    +0.000 OA
BRANCH  22  25
ATOM     24  C   UNL     1      -6.670  10.798  19.264  0.00  0.00    +0.000 C 
ATOM     25  O   UNL     1      -6.451  11.775  20.209  0.00  0.00    +0.000 OA
ENDBRANCH  22  25
ENDBRANCH  17  22
ENDBRANCH   1  21
BRANCH   7  26
ATOM     26  O   UNL     1       1.938   9.485  22.420  0.00  0.00    +0.000 OA
ATOM     27  H   UNL     1       2.104   8.587  22.813  0.00  0.00    +0.000 HD
ENDBRANCH   7  26
BRANCH   8  28
ATOM     28  C   UNL     1      -0.241  10.743  19.531  0.00  0.00    +0.000 C 
BRANCH  28  29
ATOM     29  N   UNL     1      -0.548  12.084  18.975  0.00  0.00    +0.000 NA
ATOM     30  C   UNL     1       0.647  12.801  18.504  0.00  0.00    +0.000 C 
ATOM     31  C   UNL     1      -1.511  11.982  17.857  0.00  0.00    +0.000 C 
ENDBRANCH  28  29
ENDBRANCH   8  28
TORSDOF 7
ENDMDL
MODEL 8
REMARK VINA RESULT:      -6.2      1.885      2.878
REMARK  Name = 
REMARK  10 active torsions:
REMARK  status: ('A' for Active; 'I' for Inactive)
REMARK    1  A    between atoms: C_1  and  O_2
REMARK    2  A    between atoms: O_2  and  C_3
REMARK    3  A    between atoms: C_3  and  C_5
REMARK    4  A    between atoms: C_9  and  N_10
REMARK    5  A    between atoms: C_16  and  O_17
REMARK    6  A    between atoms: C_16  and  C_18
REMARK    7  A    between atoms: C_24  and  C_25
REMARK    8  A    between atoms: C_25  and  N_26
REMARK    9  A    between atoms: N_26  and  C_27
REMARK   10  A    between atoms: N_26  and  C_28
REMARK                            x       y       z     vdW  Elec       q    Type
REMARK                         _______ _______ _______ _____ _____    ______ ____
ROOT
ATOM      1  N   UNL     1      -3.901  12.840  22.722  0.00  0.00    +0.000 N 
ATOM      2  C   UNL     1      -3.101  13.022  21.609  0.00  0.00    +0.000 C 
ATOM      3  O   UNL     1      -3.547  13.668  20.672  0.00  0.00    +0.000 OA
ATOM      4  N   UNL     1      -1.801  12.556  21.487  0.00  0.00    +0.000 N 
ATOM      5  C   UNL     1      -1.069  11.768  22.488  0.00  0.00    +0.000 C 
ATOM      6  C   UNL     1      -0.482  10.479  21.853  0.00  0.00    +0.000 C 
ATOM      7  C   UNL     1       0.355  10.798  20.564  0.00  0.00    +0.000 C 
ATOM      8  C   UNL     1      -0.568  11.580  19.561  0.00  0.00    +0.000 C 
ATOM      9  C   UNL     1      -1.039  12.872  20.271  0.00  0.00    +0.000 C 
ATOM     10  H   UNL     1      -3.521  12.394  23.563  0.00  0.00    +0.000 HD
ENDROOT
BRANCH   7  11
ATOM     11  C   UNL     1       1.014   9.570  19.902  0.00  0.00    +0.000 A 
ATOM     12  C   UNL     1       1.371   8.406  20.618  0.00  0.00    +0.000 A 
ATOM     13  C   UNL     1       2.051   7.358  19.984  0.00  0.00    +0.000 A 
ATOM     14  C   UNL     1       2.390   7.451  18.634  0.00  0.00    +0.000 A 
ATOM     15  C   UNL     1       2.037   8.586  17.906  0.00  0.00    +0.000 A 
ATOM     16  C   UNL     1       1.351   9.634  18.529  0.00  0.00    +0.000 A 
ENDBRANCH   7  11
BRANCH   1  21
ATOM     17  C   UNL     1      -5.736  14.471  23.425  0.00  0.00    +0.000 A 
ATOM     18  S   UNL     1      -7.405  14.575  23.233  0.00  0.00    +0.000 S 
ATOM     19  C   UNL     1      -7.620  13.161  22.389  0.00  0.00    +0.000 A 
ATOM     20  C   UNL     1      -6.381  12.568  22.228  0.00  0.00    +0.000 A 
ATOM     21  C   UNL     1      -5.286  13.282  22.786  0.00  0.00    +0.000 A 
BRANCH  17  22
ATOM     22  C   UNL     1      -5.023  15.545  24.146  0.00  0.00    +0.000 C 
ATOM     23  O   UNL     1      -3.910  15.371  24.619  0.00  0.00    +0.000 OA
BRANCH  22  25
ATOM     24  C   UNL     1      -5.426  17.861  23.467  0.00  0.00    +0.000 C 
ATOM     25  O   UNL     1      -5.651  16.752  24.252  0.00  0.00    +0.000 OA
ENDBRANCH  22  25
ENDBRANCH  17  22
ENDBRANCH   1  21
BRANCH   7  26
ATOM     26  O   UNL     1       1.411  11.659  20.939  0.00  0.00    +0.000 OA
ATOM     27  H   UNL     1       1.468  11.664  21.932  0.00  0.00    +0.000 HD
ENDBRANCH   7  26
BRANCH   8  28
ATOM     28  C   UNL     1      -1.777  10.730  19.028  0.00  0.00    +0.000 C 
BRANCH  28  29
ATOM     29  N   UNL     1      -2.324  11.187  17.727  0.00  0.00    +0.000 NA
ATOM     30  C   UNL     1      -2.132  10.209  16.645  0.00  0.00    +0.000 C 
ATOM     31  C   UNL     1      -3.766  11.492  17.841  0.00  0.00    +0.000 C 
ENDBRANCH  28  29
ENDBRANCH   8  28
TORSDOF 7
ENDMDL
MODEL 9
REMARK VINA RESULT:      -6.1      3.498      8.331
REMARK  Name = 
REMARK  10 active torsions:
REMARK  status: ('A' for Active; 'I' for Inactive)
REMARK    1  A    between atoms: C_1  and  O_2
REMARK    2  A    between atoms: O_2  and  C_3
REMARK    3  A    between atoms: C_3  and  C_5
REMARK    4  A    between atoms: C_9  and  N_10
REMARK    5  A    between atoms: C_16  and  O_17
REMARK    6  A    between atoms: C_16  and  C_18
REMARK    7  A    between atoms: C_24  and  C_25
REMARK    8  A    between atoms: C_25  and  N_26
REMARK    9  A    between atoms: N_26  and  C_27
REMARK   10  A    between atoms: N_26  and  C_28
REMARK                            x       y       z     vdW  Elec       q    Type
REMARK                         _______ _______ _______ _____ _____    ______ ____
ROOT
ATOM      1  N   UNL     1       1.670   7.910  17.843  0.00  0.00    +0.000 N 
ATOM      2  C   UNL     1       1.567   9.210  18.305  0.00  0.00    +0.000 C 
ATOM      3  O   UNL     1       2.475   9.657  18.989  0.00  0.00    +0.000 OA
ATOM      4  N   UNL     1       0.518  10.069  18.015  0.00  0.00    +0.000 N 
ATOM      5  C   UNL     1      -0.667   9.745  17.211  0.00  0.00    +0.000 C 
ATOM      6  C   UNL     1      -1.969  10.092  17.980  0.00  0.00    +0.000 C 
ATOM      7  C   UNL     1      -1.950  11.570  18.511  0.00  0.00    +0.000 C 
ATOM      8  C   UNL     1      -0.671  11.754  19.405  0.00  0.00    +0.000 C 
ATOM      9  C   UNL     1       0.563  11.448  18.522  0.00  0.00    +0.000 C 
ATOM     10  H   UNL     1       0.978   7.542  17.183  0.00  0.00    +0.000 HD
ENDROOT
BRANCH   7  11
ATOM     11  C   UNL     1      -3.234  12.007  19.246  0.00  0.00    +0.000 A 
ATOM     12  C   UNL     1      -3.222  12.816  20.405  0.00  0.00    +0.000 A 
ATOM     13  C   UNL     1      -4.412  13.106  21.085  0.00  0.00    +0.000 A 
ATOM     14  C   UNL     1      -5.628  12.596  20.629  0.00  0.00    +0.000 A 
ATOM     15  C   UNL     1      -5.664  11.806  19.482  0.00  0.00    +0.000 A 
ATOM     16  C   UNL     1      -4.481  11.517  18.792  0.00  0.00    +0.000 A 
ENDBRANCH   7  11
BRANCH   1  21
ATOM     17  C   UNL     1       2.774   6.216  19.403  0.00  0.00    +0.000 A 
ATOM     18  S   UNL     1       4.209   5.337  19.418  0.00  0.00    +0.000 S 
ATOM     19  C   UNL     1       4.847   5.930  18.004  0.00  0.00    +0.000 A 
ATOM     20  C   UNL     1       3.944   6.834  17.475  0.00  0.00    +0.000 A 
ATOM     21  C   UNL     1       2.751   7.015  18.226  0.00  0.00    +0.000 A 
BRANCH  17  22
ATOM     22  C   UNL     1       1.804   6.037  20.504  0.00  0.00    +0.000 C 
ATOM     23  O   UNL     1       1.279   6.991  21.056  0.00  0.00    +0.000 OA
BRANCH  22  25
ATOM     24  C   UNL     1       0.974   3.778  20.061  0.00  0.00    +0.000 C 
ATOM     25  O   UNL     1       1.505   4.757  20.871  0.00  0.00    +0.000 OA
ENDBRANCH  22  25
ENDBRANCH  17  22
ENDBRANCH   1  21
BRANCH   7  26
ATOM     26  O   UNL     1      -1.823  12.426  17.394  0.00  0.00    +0.000 OA
ATOM     27  H   UNL     1      -2.715  12.502  16.960  0.00  0.00    +0.000 HD
ENDBRANCH   7  26
BRANCH   8  28
ATOM     28  C   UNL     1      -0.687  10.881  20.711  0.00  0.00    +0.000 C 
BRANCH  28  29
ATOM     29  N   UNL     1      -0.181  11.575  21.920  0.00  0.00    +0.000 NA
ATOM     30  C   UNL     1       0.015  13.019  21.717  0.00  0.00    +0.000 C 
ATOM     31  C   UNL     1      -1.098  11.378  23.063  0.00  0.00    +0.000 C 
ENDBRANCH  28  29
ENDBRANCH   8  28
TORSDOF 7
ENDMDL
