MODEL 1
REMARK VINA RESULT:      -6.6      0.000      0.000
REMARK  Name = 
REMARK  0 active torsions:
REMARK  status: ('A' for Active; 'I' for Inactive)
REMARK                            x       y       z     vdW  Elec       q    Type
REMARK                         _______ _______ _______ _____ _____    ______ ____
ROOT
ATOM      1  O   UNL     1       5.214   6.940  15.645  0.00  0.00    +0.000 OA
ATOM      2  C   UNL     1       4.853   5.971  16.304  0.00  0.00    +0.000 C 
ATOM      3  C   UNL     1       5.341   4.601  16.022  0.00  0.00    +0.000 C 
ATOM      4 BR   UNL     1       6.543   4.361  14.611  0.00  0.00    +0.000 Br
ATOM      5  C   UNL     1       4.925   3.573  16.760  0.00  0.00    +0.000 C 
ATOM      6  C   UNL     1       3.979   3.715  17.881  0.00  0.00    +0.000 C 
ATOM      7  O   UNL     1       3.677   2.696  18.487  0.00  0.00    +0.000 OA
ATOM      8  C   UNL     1       3.457   5.070  18.206  0.00  0.00    +0.000 A 
ATOM      9  C   UNL     1       2.546   5.337  19.251  0.00  0.00    +0.000 A 
ATOM     10  I   UNL     1       1.725   3.911  20.570  0.00  0.00    +0.000 I 
ATOM     11  C   UNL     1       2.106   6.652  19.489  0.00  0.00    +0.000 A 
ATOM     12  C   UNL     1       2.555   7.707  18.704  0.00  0.00    +0.000 A 
ATOM     13  C   UNL     1       3.449   7.458  17.673  0.00  0.00    +0.000 A 
ATOM     14  C   UNL     1       3.900   6.150  17.423  0.00  0.00    +0.000 A 
ENDROOT
TORSDOF 0
ENDMDL
MODEL 2
REMARK VINA RESULT:      -6.5      0.902      1.061
REMARK  Name = 
REMARK  0 active torsions:
REMARK  status: ('A' for Active; 'I' for Inactive)
REMARK                            x       y       z     vdW  Elec       q    Type
REMARK                         _______ _______ _______ _____ _____    ______ ____
ROOT
ATOM      1  O   UNL     1       4.492   6.943  16.575  0.00  0.00    +0.000 OA
ATOM      2  C   UNL     1       4.266   5.853  17.089  0.00  0.00    +0.000 C 
ATOM      3  C   UNL     1       4.806   4.591  16.531  0.00  0.00    +0.000 C 
ATOM      4 BR   UNL     1       5.862   4.682  14.992  0.00  0.00    +0.000 Br
ATOM      5  C   UNL     1       4.538   3.426  17.119  0.00  0.00    +0.000 C 
ATOM      6  C   UNL     1       3.711   3.307  18.333  0.00  0.00    +0.000 C 
ATOM      7  O   UNL     1       3.541   2.181  18.781  0.00  0.00    +0.000 OA
ATOM      8  C   UNL     1       3.142   4.544  18.933  0.00  0.00    +0.000 A 
ATOM      9  C   UNL     1       2.334   4.561  20.091  0.00  0.00    +0.000 A 
ATOM     10  I   UNL     1       1.751   2.878  21.219  0.00  0.00    +0.000 I 
ATOM     11  C   UNL     1       1.840   5.780  20.591  0.00  0.00    +0.000 A 
ATOM     12  C   UNL     1       2.134   6.983  19.959  0.00  0.00    +0.000 A 
ATOM     13  C   UNL     1       2.926   6.978  18.820  0.00  0.00    +0.000 A 
ATOM     14  C   UNL     1       3.429   5.769  18.308  0.00  0.00    +0.000 A 
ENDROOT
TORSDOF 0
ENDMDL
MODEL 3
REMARK VINA RESULT:      -6.2      3.338      4.212
REMARK  Name = 
REMARK  0 active torsions:
REMARK  status: ('A' for Active; 'I' for Inactive)
REMARK                            x       y       z     vdW  Elec       q    Type
REMARK                         _______ _______ _______ _____ _____    ______ ____
ROOT
ATOM      1  O   UNL     1       1.657   5.663  20.627  0.00  0.00    +0.000 OA
ATOM      2  C   UNL     1       2.313   4.937  19.889  0.00  0.00    +0.000 C 
ATOM      3  C   UNL     1       2.382   3.470  20.087  0.00  0.00    +0.000 C 
ATOM      4 BR   UNL     1       1.433   2.722  21.512  0.00  0.00    +0.000 Br
ATOM      5  C   UNL     1       3.107   2.713  19.264  0.00  0.00    +0.000 C 
ATOM      6  C   UNL     1       3.870   3.259  18.128  0.00  0.00    +0.000 C 
ATOM      7  O   UNL     1       4.493   2.461  17.442  0.00  0.00    +0.000 OA
ATOM      8  C   UNL     1       3.837   4.727  17.886  0.00  0.00    +0.000 A 
ATOM      9  C   UNL     1       4.526   5.370  16.836  0.00  0.00    +0.000 A 
ATOM     10  I   UNL     1       5.743   4.429  15.393  0.00  0.00    +0.000 I 
ATOM     11  C   UNL     1       4.437   6.766  16.680  0.00  0.00    +0.000 A 
ATOM     12  C   UNL     1       3.674   7.534  17.552  0.00  0.00    +0.000 A 
ATOM     13  C   UNL     1       2.993   6.912  18.589  0.00  0.00    +0.000 A 
ATOM     14  C   UNL     1       3.071   5.519  18.758  0.00  0.00    +0.000 A 
ENDROOT
TORSDOF 0
ENDMDL
MODEL 4
REMARK VINA RESULT:      -5.9      3.436      4.297
REMARK  Name = 
REMARK  0 active torsions:
REMARK  status: ('A' for Active; 'I' for Inactive)
REMARK                            x       y       z     vdW  Elec       q    Type
REMARK                         _______ _______ _______ _____ _____    ______ ____
ROOT
ATOM      1  O   UNL     1       1.011   5.275  20.412  0.00  0.00    +0.000 OA
ATOM      2  C   UNL     1       2.113   4.896  20.033  0.00  0.00    +0.000 C 
ATOM      3  C   UNL     1       2.708   3.618  20.491  0.00  0.00    +0.000 C 
ATOM      4 BR   UNL     1       1.732   2.565  21.687  0.00  0.00    +0.000 Br
ATOM      5  C   UNL     1       3.909   3.241  20.056  0.00  0.00    +0.000 C 
ATOM      6  C   UNL     1       4.713   4.038  19.114  0.00  0.00    +0.000 C 
ATOM      7  O   UNL     1       5.799   3.582  18.785  0.00  0.00    +0.000 OA
ATOM      8  C   UNL     1       4.164   5.331  18.623  0.00  0.00    +0.000 A 
ATOM      9  C   UNL     1       4.836   6.185  17.723  0.00  0.00    +0.000 A 
ATOM     10  I   UNL     1       6.738   5.843  16.879  0.00  0.00    +0.000 I 
ATOM     11  C   UNL     1       4.240   7.391  17.311  0.00  0.00    +0.000 A 
ATOM     12  C   UNL     1       2.985   7.763  17.779  0.00  0.00    +0.000 A 
ATOM     13  C   UNL     1       2.315   6.932  18.665  0.00  0.00    +0.000 A 
ATOM     14  C   UNL     1       2.896   5.724  19.087  0.00  0.00    +0.000 A 
ENDROOT
TORSDOF 0
ENDMDL
MODEL 5
REMARK VINA RESULT:      -5.8      3.266      5.041
REMARK  Name = 
REMARK  0 active torsions:
REMARK  status: ('A' for Active; 'I' for Inactive)
REMARK                            x       y       z     vdW  Elec       q    Type
REMARK                         _______ _______ _______ _____ _____    ______ ____
ROOT
ATOM      1  O   UNL     1       1.297   5.029  20.775  0.00  0.00    +0.000 OA
ATOM      2  C   UNL     1       2.033   5.451  19.890  0.00  0.00    +0.000 C 
ATOM      3  C   UNL     1       2.245   6.901  19.668  0.00  0.00    +0.000 C 
ATOM      4 BR   UNL     1       1.353   8.109  20.780  0.00  0.00    +0.000 Br
ATOM      5  C   UNL     1       3.053   7.321  18.696  0.00  0.00    +0.000 C 
ATOM      6  C   UNL     1       3.777   6.406  17.796  0.00  0.00    +0.000 C 
ATOM      7  O   UNL     1       4.493   6.914  16.945  0.00  0.00    +0.000 OA
ATOM      8  C   UNL     1       3.598   4.940  17.975  0.00  0.00    +0.000 A 
ATOM      9  C   UNL     1       4.231   3.963  17.178  0.00  0.00    +0.000 A 
ATOM     10  I   UNL     1       5.553   4.338  15.577  0.00  0.00    +0.000 I 
ATOM     11  C   UNL     1       4.005   2.595  17.419  0.00  0.00    +0.000 A 
ATOM     12  C   UNL     1       3.157   2.182  18.440  0.00  0.00    +0.000 A 
ATOM     13  C   UNL     1       2.528   3.133  19.230  0.00  0.00    +0.000 A 
ATOM     14  C   UNL     1       2.744   4.503  19.003  0.00  0.00    +0.000 A 
ENDROOT
TORSDOF 0
ENDMDL
MODEL 6
REMARK VINA RESULT:      -5.6      1.801      3.221
REMARK  Name = 
REMARK  0 active torsions:
REMARK  status: ('A' for Active; 'I' for Inactive)
REMARK                            x       y       z     vdW  Elec       q    Type
REMARK                         _______ _______ _______ _____ _____    ______ ____
ROOT
ATOM      1  O   UNL     1       4.153   2.525  17.467  0.00  0.00    +0.000 OA
ATOM      2  C   UNL     1       3.995   3.733  17.598  0.00  0.00    +0.000 C 
ATOM      3  C   UNL     1       4.672   4.716  16.720  0.00  0.00    +0.000 C 
ATOM      4 BR   UNL     1       5.802   4.074  15.377  0.00  0.00    +0.000 Br
ATOM      5  C   UNL     1       4.475   6.022  16.894  0.00  0.00    +0.000 C 
ATOM      6  C   UNL     1       3.594   6.573  17.939  0.00  0.00    +0.000 C 
ATOM      7  O   UNL     1       3.491   7.790  17.995  0.00  0.00    +0.000 OA
ATOM      8  C   UNL     1       2.891   5.629  18.850  0.00  0.00    +0.000 A 
ATOM      9  C   UNL     1       2.025   6.031  19.889  0.00  0.00    +0.000 A 
ATOM     10  I   UNL     1       1.532   8.019  20.391  0.00  0.00    +0.000 I 
ATOM     11  C   UNL     1       1.399   5.068  20.702  0.00  0.00    +0.000 A 
ATOM     12  C   UNL     1       1.621   3.711  20.500  0.00  0.00    +0.000 A 
ATOM     13  C   UNL     1       2.471   3.304  19.483  0.00  0.00    +0.000 A 
ATOM     14  C   UNL     1       3.104   4.253  18.660  0.00  0.00    +0.000 A 
ENDROOT
TORSDOF 0
ENDMDL
MODEL 7
REMARK VINA RESULT:      -5.5      3.095      4.322
REMARK  Name = 
REMARK  0 active torsions:
REMARK  status: ('A' for Active; 'I' for Inactive)
REMARK                            x       y       z     vdW  Elec       q    Type
REMARK                         _______ _______ _______ _____ _____    ______ ____
ROOT
ATOM      1  O   UNL     1       2.639   8.837  17.796  0.00  0.00    +0.000 OA
ATOM      2  C   UNL     1       2.550   7.867  18.539  0.00  0.00    +0.000 C 
ATOM      3  C   UNL     1       1.725   7.890  19.770  0.00  0.00    +0.000 C 
ATOM      4 BR   UNL     1       0.799   9.459  20.186  0.00  0.00    +0.000 Br
ATOM      5  C   UNL     1       1.654   6.815  20.553  0.00  0.00    +0.000 C 
ATOM      6  C   UNL     1       2.365   5.558  20.264  0.00  0.00    +0.000 C 
ATOM      7  O   UNL     1       2.216   4.639  21.057  0.00  0.00    +0.000 OA
ATOM      8  C   UNL     1       3.210   5.481  19.041  0.00  0.00    +0.000 A 
ATOM      9  C   UNL     1       3.942   4.337  18.657  0.00  0.00    +0.000 A 
ATOM     10  I   UNL     1       4.015   2.506  19.700  0.00  0.00    +0.000 I 
ATOM     11  C   UNL     1       4.715   4.353  17.481  0.00  0.00    +0.000 A 
ATOM     12  C   UNL     1       4.773   5.487  16.680  0.00  0.00    +0.000 A 
ATOM     13  C   UNL     1       4.059   6.618  17.049  0.00  0.00    +0.000 A 
ATOM     14  C   UNL     1       3.281   6.620  18.220  0.00  0.00    +0.000 A 
ENDROOT
TORSDOF 0
ENDMDL
MODEL 8
REMARK VINA RESULT:      -5.4      3.298      4.849
REMARK  Name = 
REMARK  0 active torsions:
REMARK  status: ('A' for Active; 'I' for Inactive)
REMARK                            x       y       z     vdW  Elec       q    Type
REMARK                         _______ _______ _______ _____ _____    ______ ____
ROOT
ATOM      1  O   UNL     1       1.468   6.726  20.760  0.00  0.00    +0.000 OA
ATOM      2  C   UNL     1       2.165   6.794  19.754  0.00  0.00    +0.000 C 
ATOM      3  C   UNL     1       2.203   8.007  18.903  0.00  0.00    +0.000 C 
ATOM      4 BR   UNL     1       1.147   9.468  19.394  0.00  0.00    +0.000 Br
ATOM      5  C   UNL     1       2.973   8.042  17.817  0.00  0.00    +0.000 C 
ATOM      6  C   UNL     1       3.822   6.915  17.392  0.00  0.00    +0.000 C 
ATOM      7  O   UNL     1       4.489   7.072  16.378  0.00  0.00    +0.000 OA
ATOM      8  C   UNL     1       3.820   5.672  18.210  0.00  0.00    +0.000 A 
ATOM      9  C   UNL     1       4.585   4.526  17.908  0.00  0.00    +0.000 A 
ATOM     10  I   UNL     1       5.883   4.302  16.261  0.00  0.00    +0.000 I 
ATOM     11  C   UNL     1       4.523   3.393  18.740  0.00  0.00    +0.000 A 
ATOM     12  C   UNL     1       3.711   3.380  19.869  0.00  0.00    +0.000 A 
ATOM     13  C   UNL     1       2.953   4.501  20.175  0.00  0.00    +0.000 A 
ATOM     14  C   UNL     1       3.005   5.642  19.355  0.00  0.00    +0.000 A 
ENDROOT
TORSDOF 0
ENDMDL
MODEL 9
REMARK VINA RESULT:      -5.4      3.466      4.701
REMARK  Name = 
REMARK  0 active torsions:
REMARK  status: ('A' for Active; 'I' for Inactive)
REMARK                            x       y       z     vdW  Elec       q    Type
REMARK                         _______ _______ _______ _____ _____    ______ ____
ROOT
ATOM      1  O   UNL     1       2.407   2.518  16.752  0.00  0.00    +0.000 OA
ATOM      2  C   UNL     1       3.073   3.281  17.442  0.00  0.00    +0.000 C 
ATOM      3  C   UNL     1       2.721   3.581  18.850  0.00  0.00    +0.000 C 
ATOM      4 BR   UNL     1       1.209   2.761  19.580  0.00  0.00    +0.000 Br
ATOM      5  C   UNL     1       3.471   4.416  19.568  0.00  0.00    +0.000 C 
ATOM      6  C   UNL     1       4.671   5.084  19.035  0.00  0.00    +0.000 C 
ATOM      7  O   UNL     1       5.278   5.826  19.795  0.00  0.00    +0.000 OA
ATOM      8  C   UNL     1       5.068   4.820  17.626  0.00  0.00    +0.000 A 
ATOM      9  C   UNL     1       6.192   5.399  16.999  0.00  0.00    +0.000 A 
ATOM     10  I   UNL     1       7.546   6.749  17.889  0.00  0.00    +0.000 I 
ATOM     11  C   UNL     1       6.494   5.091  15.660  0.00  0.00    +0.000 A 
ATOM     12  C   UNL     1       5.697   4.216  14.932  0.00  0.00    +0.000 A 
ATOM     13  C   UNL     1       4.588   3.641  15.537  0.00  0.00    +0.000 A 
ATOM     14  C   UNL     1       4.272   3.937  16.874  0.00  0.00    +0.000 A 
ENDROOT
TORSDOF 0
ENDMDL
