MODEL 1
REMARK VINA RESULT:      -8.4      0.000      0.000
REMARK  Name = 
REMARK  6 active torsions:
REMARK  status: ('A' for Active; 'I' for Inactive)
REMARK    1  A    between atoms: C_1  and  C_2
REMARK    2  A    between atoms: C_4  and  O_5
REMARK    3  A    between atoms: O_5  and  C_6
REMARK    4  A    between atoms: C_14  and  C_15
REMARK    5  A    between atoms: C_16  and  C_17
REMARK    6  A    between atoms: C_22  and  C_24
REMARK                            x       y       z     vdW  Elec       q    Type
REMARK                         _______ _______ _______ _____ _____    ______ ____
ROOT
ATOM      1  C   UNL     1      -0.447   9.032  22.659  0.00  0.00    +0.000 C 
ATOM      2  C   UNL     1       0.364   9.062  21.383  0.00  0.00    +0.000 A 
ATOM      3  C   UNL     1       1.231   7.971  21.181  0.00  0.00    +0.000 A 
ATOM      4  C   UNL     1       1.918   7.813  19.985  0.00  0.00    +0.000 A 
ATOM      5  C   UNL     1       1.845   8.824  19.031  0.00  0.00    +0.000 A 
ATOM      6  C   UNL     1       1.059   9.983  19.233  0.00  0.00    +0.000 A 
ATOM      7  C   UNL     1       1.124  11.025  18.148  0.00  0.00    +0.000 C 
ATOM      8  C   UNL     1       0.279  10.107  20.414  0.00  0.00    +0.000 A 
ENDROOT
BRANCH   8   9
ATOM      9  C   UNL     1      -0.574  11.280  20.703  0.00  0.00    +0.000 A 
ATOM     10  C   UNL     1      -0.256  12.385  21.473  0.00  0.00    +0.000 A 
ATOM     11  S   UNL     1      -1.529  13.555  21.407  0.00  0.00    +0.000 S 
ATOM     12  C   UNL     1      -2.399  12.510  20.387  0.00  0.00    +0.000 A 
ATOM     13  N   UNL     1      -3.595  12.985  19.914  0.00  0.00    +0.000 N 
ATOM     14  C   UNL     1      -4.412  12.167  19.162  0.00  0.00    +0.000 C 
ATOM     15  O   UNL     1      -4.225  10.985  18.896  0.00  0.00    +0.000 OA
ATOM     16  N   UNL     1      -1.834  11.365  20.134  0.00  0.00    +0.000 NA
ATOM     17  H   UNL     1      -3.863  13.917  20.184  0.00  0.00    +0.000 HD
BRANCH  14  18
ATOM     18  C   UNL     1      -5.670  12.762  18.645  0.00  0.00    +0.000 A 
ATOM     19  C   UNL     1      -6.567  13.457  19.455  0.00  0.00    +0.000 A 
ATOM     20  C   UNL     1      -7.659  14.044  18.837  0.00  0.00    +0.000 A 
ATOM     21  N   UNL     1      -7.907  13.975  17.509  0.00  0.00    +0.000 NA
ATOM     22  C   UNL     1      -7.016  13.301  16.752  0.00  0.00    +0.000 A 
ATOM     23  C   UNL     1      -5.897  12.688  17.268  0.00  0.00    +0.000 A 
ENDBRANCH  14  18
ENDBRANCH   8   9
BRANCH   4  24
ATOM     24  O   UNL     1       2.726   6.740  19.683  0.00  0.00    +0.000 OA
BRANCH  24  25
ATOM     25  C   UNL     1       2.163   5.527  19.349  0.00  0.00    +0.000 A 
ATOM     26  C   UNL     1       2.109   5.017  18.045  0.00  0.00    +0.000 A 
ATOM     27  C   UNL     1       1.475   3.800  17.797  0.00  0.00    +0.000 A 
ATOM     28  C   UNL     1       0.960   3.066  18.858  0.00  0.00    +0.000 A 
ATOM     29  F   UNL     1       0.351   1.897  18.618  0.00  0.00    +0.000 F 
ATOM     30  C   UNL     1       1.072   3.525  20.166  0.00  0.00    +0.000 A 
ATOM     31  C   UNL     1       1.676   4.760  20.412  0.00  0.00    +0.000 A 
ENDBRANCH  24  25
ENDBRANCH   4  24
TORSDOF 4
ENDMDL
MODEL 2
REMARK VINA RESULT:      -8.2      0.352      1.862
REMARK  Name = 
REMARK  6 active torsions:
REMARK  status: ('A' for Active; 'I' for Inactive)
REMARK    1  A    between atoms: C_1  and  C_2
REMARK    2  A    between atoms: C_4  and  O_5
REMARK    3  A    between atoms: O_5  and  C_6
REMARK    4  A    between atoms: C_14  and  C_15
REMARK    5  A    between atoms: C_16  and  C_17
REMARK    6  A    between atoms: C_22  and  C_24
REMARK                            x       y       z     vdW  Elec       q    Type
REMARK                         _______ _______ _______ _____ _____    ______ ____
ROOT
ATOM      1  C   UNL     1       1.437  10.953  17.967  0.00  0.00    +0.000 C 
ATOM      2  C   UNL     1       1.317   9.892  19.038  0.00  0.00    +0.000 A 
ATOM      3  C   UNL     1       2.007   8.689  18.789  0.00  0.00    +0.000 A 
ATOM      4  C   UNL     1       2.092   7.699  19.758  0.00  0.00    +0.000 A 
ATOM      5  C   UNL     1       1.370   7.851  20.938  0.00  0.00    +0.000 A 
ATOM      6  C   UNL     1       0.587   9.002  21.189  0.00  0.00    +0.000 A 
ATOM      7  C   UNL     1      -0.194   9.005  22.476  0.00  0.00    +0.000 C 
ATOM      8  C   UNL     1       0.571  10.062  20.243  0.00  0.00    +0.000 A 
ENDROOT
BRANCH   8   9
ATOM      9  C   UNL     1      -0.213  11.302  20.426  0.00  0.00    +0.000 A 
ATOM     10  C   UNL     1       0.215  12.496  20.980  0.00  0.00    +0.000 A 
ATOM     11  S   UNL     1      -1.021  13.700  20.855  0.00  0.00    +0.000 S 
ATOM     12  C   UNL     1      -2.021  12.553  20.097  0.00  0.00    +0.000 A 
ATOM     13  N   UNL     1      -3.244  13.005  19.672  0.00  0.00    +0.000 N 
ATOM     14  C   UNL     1      -4.157  12.120  19.137  0.00  0.00    +0.000 C 
ATOM     15  O   UNL     1      -4.034  10.904  19.042  0.00  0.00    +0.000 OA
ATOM     16  N   UNL     1      -1.520  11.358  19.973  0.00  0.00    +0.000 NA
ATOM     17  H   UNL     1      -3.455  13.978  19.818  0.00  0.00    +0.000 HD
BRANCH  14  18
ATOM     18  C   UNL     1      -5.442  12.687  18.657  0.00  0.00    +0.000 A 
ATOM     19  C   UNL     1      -6.202  13.583  19.407  0.00  0.00    +0.000 A 
ATOM     20  C   UNL     1      -7.336  14.111  18.810  0.00  0.00    +0.000 A 
ATOM     21  N   UNL     1      -7.747  13.804  17.558  0.00  0.00    +0.000 NA
ATOM     22  C   UNL     1      -6.986  12.939  16.856  0.00  0.00    +0.000 A 
ATOM     23  C   UNL     1      -5.839  12.364  17.355  0.00  0.00    +0.000 A 
ENDBRANCH  14  18
ENDBRANCH   8   9
BRANCH   4  24
ATOM     24  O   UNL     1       2.805   6.529  19.619  0.00  0.00    +0.000 OA
BRANCH  24  25
ATOM     25  C   UNL     1       2.141   5.335  19.440  0.00  0.00    +0.000 A 
ATOM     26  C   UNL     1       1.541   4.606  20.474  0.00  0.00    +0.000 A 
ATOM     27  C   UNL     1       0.932   3.380  20.203  0.00  0.00    +0.000 A 
ATOM     28  C   UNL     1       0.866   2.922  18.893  0.00  0.00    +0.000 A 
ATOM     29  F   UNL     1       0.282   1.746  18.634  0.00  0.00    +0.000 F 
ATOM     30  C   UNL     1       1.394   3.672  17.847  0.00  0.00    +0.000 A 
ATOM     31  C   UNL     1       2.034   4.882  18.122  0.00  0.00    +0.000 A 
ENDBRANCH  24  25
ENDBRANCH   4  24
TORSDOF 4
ENDMDL
MODEL 3
REMARK VINA RESULT:      -8.1      0.674      1.930
REMARK  Name = 
REMARK  6 active torsions:
REMARK  status: ('A' for Active; 'I' for Inactive)
REMARK    1  A    between atoms: C_1  and  C_2
REMARK    2  A    between atoms: C_4  and  O_5
REMARK    3  A    between atoms: O_5  and  C_6
REMARK    4  A    between atoms: C_14  and  C_15
REMARK    5  A    between atoms: C_16  and  C_17
REMARK    6  A    between atoms: C_22  and  C_24
REMARK                            x       y       z     vdW  Elec       q    Type
REMARK                         _______ _______ _______ _____ _____    ______ ____
ROOT
ATOM      1  C   UNL     1       1.718  10.441  17.789  0.00  0.00    +0.000 C 
ATOM      2  C   UNL     1       1.499   9.531  18.978  0.00  0.00    +0.000 A 
ATOM      3  C   UNL     1       2.128   8.273  18.911  0.00  0.00    +0.000 A 
ATOM      4  C   UNL     1       2.122   7.410  19.997  0.00  0.00    +0.000 A 
ATOM      5  C   UNL     1       1.365   7.746  21.116  0.00  0.00    +0.000 A 
ATOM      6  C   UNL     1       0.640   8.958  21.188  0.00  0.00    +0.000 A 
ATOM      7  C   UNL     1      -0.187   9.163  22.429  0.00  0.00    +0.000 C 
ATOM      8  C   UNL     1       0.719   9.890  20.118  0.00  0.00    +0.000 A 
ENDROOT
BRANCH   8   9
ATOM      9  C   UNL     1       0.000  11.182  20.112  0.00  0.00    +0.000 A 
ATOM     10  C   UNL     1       0.520  12.437  20.375  0.00  0.00    +0.000 A 
ATOM     11  S   UNL     1      -0.679  13.656  20.112  0.00  0.00    +0.000 S 
ATOM     12  C   UNL     1      -1.786  12.437  19.688  0.00  0.00    +0.000 A 
ATOM     13  N   UNL     1      -3.026  12.860  19.284  0.00  0.00    +0.000 N 
ATOM     14  C   UNL     1      -4.015  11.937  19.018  0.00  0.00    +0.000 C 
ATOM     15  O   UNL     1      -3.945  10.721  19.160  0.00  0.00    +0.000 OA
ATOM     16  N   UNL     1      -1.340  11.216  19.767  0.00  0.00    +0.000 NA
ATOM     17  H   UNL     1      -3.187  13.853  19.247  0.00  0.00    +0.000 HD
BRANCH  14  18
ATOM     18  C   UNL     1      -5.318  12.465  18.541  0.00  0.00    +0.000 A 
ATOM     19  C   UNL     1      -5.717  12.403  17.207  0.00  0.00    +0.000 A 
ATOM     20  C   UNL     1      -6.994  12.847  16.903  0.00  0.00    +0.000 A 
ATOM     21  N   UNL     1      -7.863  13.338  17.817  0.00  0.00    +0.000 NA
ATOM     22  C   UNL     1      -7.449  13.378  19.100  0.00  0.00    +0.000 A 
ATOM     23  C   UNL     1      -6.203  12.956  19.506  0.00  0.00    +0.000 A 
ENDBRANCH  14  18
ENDBRANCH   8   9
BRANCH   4  24
ATOM     24  O   UNL     1       2.773   6.196  20.037  0.00  0.00    +0.000 OA
BRANCH  24  25
ATOM     25  C   UNL     1       2.155   5.067  19.543  0.00  0.00    +0.000 A 
ATOM     26  C   UNL     1       2.184   4.680  18.197  0.00  0.00    +0.000 A 
ATOM     27  C   UNL     1       1.487   3.545  17.781  0.00  0.00    +0.000 A 
ATOM     28  C   UNL     1       0.824   2.766  18.721  0.00  0.00    +0.000 A 
ATOM     29  F   UNL     1       0.156   1.677  18.321  0.00  0.00    +0.000 F 
ATOM     30  C   UNL     1       0.849   3.098  20.071  0.00  0.00    +0.000 A 
ATOM     31  C   UNL     1       1.517   4.254  20.483  0.00  0.00    +0.000 A 
ENDBRANCH  24  25
ENDBRANCH   4  24
TORSDOF 4
ENDMDL
MODEL 4
REMARK VINA RESULT:      -8.0      0.890      1.267
REMARK  Name = 
REMARK  6 active torsions:
REMARK  status: ('A' for Active; 'I' for Inactive)
REMARK    1  A    between atoms: C_1  and  C_2
REMARK    2  A    between atoms: C_4  and  O_5
REMARK    3  A    between atoms: O_5  and  C_6
REMARK    4  A    between atoms: C_14  and  C_15
REMARK    5  A    between atoms: C_16  and  C_17
REMARK    6  A    between atoms: C_22  and  C_24
REMARK                            x       y       z     vdW  Elec       q    Type
REMARK                         _______ _______ _______ _____ _____    ______ ____
ROOT
ATOM      1  C   UNL     1      -0.082   8.469  21.810  0.00  0.00    +0.000 C 
ATOM      2  C   UNL     1       0.794   8.670  20.593  0.00  0.00    +0.000 A 
ATOM      3  C   UNL     1       1.660   7.605  20.278  0.00  0.00    +0.000 A 
ATOM      4  C   UNL     1       2.405   7.610  19.108  0.00  0.00    +0.000 A 
ATOM      5  C   UNL     1       2.391   8.750  18.308  0.00  0.00    +0.000 A 
ATOM      6  C   UNL     1       1.607   9.880  18.638  0.00  0.00    +0.000 A 
ATOM      7  C   UNL     1       1.738  11.068  17.721  0.00  0.00    +0.000 C 
ATOM      8  C   UNL     1       0.769   9.846  19.784  0.00  0.00    +0.000 A 
ENDROOT
BRANCH   8   9
ATOM      9  C   UNL     1      -0.087  10.978  20.199  0.00  0.00    +0.000 A 
ATOM     10  C   UNL     1       0.252  12.031  21.031  0.00  0.00    +0.000 A 
ATOM     11  S   UNL     1      -1.040  13.178  21.112  0.00  0.00    +0.000 S 
ATOM     12  C   UNL     1      -1.944  12.194  20.060  0.00  0.00    +0.000 A 
ATOM     13  N   UNL     1      -3.169  12.679  19.681  0.00  0.00    +0.000 N 
ATOM     14  C   UNL     1      -4.009  11.902  18.911  0.00  0.00    +0.000 C 
ATOM     15  O   UNL     1      -3.817  10.746  18.550  0.00  0.00    +0.000 OA
ATOM     16  N   UNL     1      -1.374  11.081  19.698  0.00  0.00    +0.000 NA
ATOM     17  H   UNL     1      -3.437  13.584  20.031  0.00  0.00    +0.000 HD
BRANCH  14  18
ATOM     18  C   UNL     1      -5.299  12.509  18.500  0.00  0.00    +0.000 A 
ATOM     19  C   UNL     1      -5.781  12.450  17.193  0.00  0.00    +0.000 A 
ATOM     20  C   UNL     1      -7.041  12.975  16.955  0.00  0.00    +0.000 A 
ATOM     21  N   UNL     1      -7.818  13.543  17.906  0.00  0.00    +0.000 NA
ATOM     22  C   UNL     1      -7.326  13.578  19.162  0.00  0.00    +0.000 A 
ATOM     23  C   UNL     1      -6.089  13.080  19.503  0.00  0.00    +0.000 A 
ENDBRANCH  14  18
ENDBRANCH   8   9
BRANCH   4  24
ATOM     24  O   UNL     1       3.218   6.578  18.693  0.00  0.00    +0.000 OA
BRANCH  24  25
ATOM     25  C   UNL     1       2.781   5.275  18.793  0.00  0.00    +0.000 A 
ATOM     26  C   UNL     1       1.789   4.713  17.979  0.00  0.00    +0.000 A 
ATOM     27  C   UNL     1       1.377   3.396  18.187  0.00  0.00    +0.000 A 
ATOM     28  C   UNL     1       2.004   2.628  19.159  0.00  0.00    +0.000 A 
ATOM     29  F   UNL     1       1.608   1.364  19.358  0.00  0.00    +0.000 F 
ATOM     30  C   UNL     1       3.041   3.150  19.925  0.00  0.00    +0.000 A 
ATOM     31  C   UNL     1       3.430   4.479  19.741  0.00  0.00    +0.000 A 
ENDBRANCH  24  25
ENDBRANCH   4  24
TORSDOF 4
ENDMDL
MODEL 5
REMARK VINA RESULT:      -7.9      3.349      5.171
REMARK  Name = 
REMARK  6 active torsions:
REMARK  status: ('A' for Active; 'I' for Inactive)
REMARK    1  A    between atoms: C_1  and  C_2
REMARK    2  A    between atoms: C_4  and  O_5
REMARK    3  A    between atoms: O_5  and  C_6
REMARK    4  A    between atoms: C_14  and  C_15
REMARK    5  A    between atoms: C_16  and  C_17
REMARK    6  A    between atoms: C_22  and  C_24
REMARK                            x       y       z     vdW  Elec       q    Type
REMARK                         _______ _______ _______ _____ _____    ______ ____
ROOT
ATOM      1  C   UNL     1      -0.431   9.117  22.345  0.00  0.00    +0.000 C 
ATOM      2  C   UNL     1       0.481   8.936  21.152  0.00  0.00    +0.000 A 
ATOM      3  C   UNL     1       1.271   7.770  21.154  0.00  0.00    +0.000 A 
ATOM      4  C   UNL     1       2.037   7.422  20.050  0.00  0.00    +0.000 A 
ATOM      5  C   UNL     1       2.123   8.313  18.985  0.00  0.00    +0.000 A 
ATOM      6  C   UNL     1       1.419   9.540  18.983  0.00  0.00    +0.000 A 
ATOM      7  C   UNL     1       1.655  10.438  17.796  0.00  0.00    +0.000 C 
ATOM      8  C   UNL     1       0.559   9.861  20.067  0.00  0.00    +0.000 A 
ENDROOT
BRANCH   8   9
ATOM      9  C   UNL     1      -0.218  11.116  20.144  0.00  0.00    +0.000 A 
ATOM     10  C   UNL     1      -1.510  11.337  19.700  0.00  0.00    +0.000 A 
ATOM     11  S   UNL     1      -2.035  12.928  20.133  0.00  0.00    +0.000 S 
ATOM     12  C   UNL     1      -0.520  13.202  20.854  0.00  0.00    +0.000 A 
ATOM     13  N   UNL     1      -0.359  14.410  21.483  0.00  0.00    +0.000 N 
ATOM     14  C   UNL     1       0.868  14.755  22.007  0.00  0.00    +0.000 C 
ATOM     15  O   UNL     1       1.909  14.111  21.929  0.00  0.00    +0.000 OA
ATOM     16  N   UNL     1       0.336  12.226  20.759  0.00  0.00    +0.000 NA
ATOM     17  H   UNL     1      -1.147  15.036  21.491  0.00  0.00    +0.000 HD
BRANCH  14  18
ATOM     18  C   UNL     1       0.957  16.057  22.713  0.00  0.00    +0.000 A 
ATOM     19  C   UNL     1       2.054  16.910  22.593  0.00  0.00    +0.000 A 
ATOM     20  C   UNL     1       1.977  18.139  23.229  0.00  0.00    +0.000 A 
ATOM     21  N   UNL     1       0.914  18.550  23.959  0.00  0.00    +0.000 NA
ATOM     22  C   UNL     1      -0.133  17.704  24.050  0.00  0.00    +0.000 A 
ATOM     23  C   UNL     1      -0.158  16.465  23.451  0.00  0.00    +0.000 A 
ENDBRANCH  14  18
ENDBRANCH   8   9
BRANCH   4  24
ATOM     24  O   UNL     1       2.778   6.266  19.946  0.00  0.00    +0.000 OA
BRANCH  24  25
ATOM     25  C   UNL     1       2.154   5.071  19.656  0.00  0.00    +0.000 A 
ATOM     26  C   UNL     1       1.626   4.205  20.621  0.00  0.00    +0.000 A 
ATOM     27  C   UNL     1       1.055   2.992  20.234  0.00  0.00    +0.000 A 
ATOM     28  C   UNL     1       0.952   2.683  18.884  0.00  0.00    +0.000 A 
ATOM     29  F   UNL     1       0.403   1.519  18.514  0.00  0.00    +0.000 F 
ATOM     30  C   UNL     1       1.405   3.568  17.911  0.00  0.00    +0.000 A 
ATOM     31  C   UNL     1       2.009   4.767  18.299  0.00  0.00    +0.000 A 
ENDBRANCH  24  25
ENDBRANCH   4  24
TORSDOF 4
ENDMDL
MODEL 6
REMARK VINA RESULT:      -7.8      3.363      5.358
REMARK  Name = 
REMARK  6 active torsions:
REMARK  status: ('A' for Active; 'I' for Inactive)
REMARK    1  A    between atoms: C_1  and  C_2
REMARK    2  A    between atoms: C_4  and  O_5
REMARK    3  A    between atoms: O_5  and  C_6
REMARK    4  A    between atoms: C_14  and  C_15
REMARK    5  A    between atoms: C_16  and  C_17
REMARK    6  A    between atoms: C_22  and  C_24
REMARK                            x       y       z     vdW  Elec       q    Type
REMARK                         _______ _______ _______ _____ _____    ______ ____
ROOT
ATOM      1  C   UNL     1       1.728  10.435  17.831  0.00  0.00    +0.000 C 
ATOM      2  C   UNL     1       1.459   9.523  19.008  0.00  0.00    +0.000 A 
ATOM      3  C   UNL     1       2.123   8.282  18.987  0.00  0.00    +0.000 A 
ATOM      4  C   UNL     1       2.071   7.423  20.075  0.00  0.00    +0.000 A 
ATOM      5  C   UNL     1       1.238   7.743  21.144  0.00  0.00    +0.000 A 
ATOM      6  C   UNL     1       0.479   8.937  21.164  0.00  0.00    +0.000 A 
ATOM      7  C   UNL     1      -0.429   9.125  22.350  0.00  0.00    +0.000 C 
ATOM      8  C   UNL     1       0.600   9.866  20.096  0.00  0.00    +0.000 A 
ENDROOT
BRANCH   8   9
ATOM      9  C   UNL     1      -0.149  11.139  20.039  0.00  0.00    +0.000 A 
ATOM     10  C   UNL     1      -1.359  11.378  19.411  0.00  0.00    +0.000 A 
ATOM     11  S   UNL     1      -1.902  12.989  19.735  0.00  0.00    +0.000 S 
ATOM     12  C   UNL     1      -0.498  13.246  20.660  0.00  0.00    +0.000 A 
ATOM     13  N   UNL     1      -0.400  14.463  21.283  0.00  0.00    +0.000 N 
ATOM     14  C   UNL     1       0.749  14.794  21.971  0.00  0.00    +0.000 C 
ATOM     15  O   UNL     1       1.775  14.126  22.053  0.00  0.00    +0.000 OA
ATOM     16  N   UNL     1       0.339  12.250  20.706  0.00  0.00    +0.000 NA
ATOM     17  H   UNL     1      -1.165  15.106  21.167  0.00  0.00    +0.000 HD
BRANCH  14  18
ATOM     18  C   UNL     1       0.768  16.109  22.658  0.00  0.00    +0.000 A 
ATOM     19  C   UNL     1       0.071  16.356  23.839  0.00  0.00    +0.000 A 
ATOM     20  C   UNL     1       0.243  17.597  24.432  0.00  0.00    +0.000 A 
ATOM     21  N   UNL     1       1.033  18.574  23.931  0.00  0.00    +0.000 NA
ATOM     22  C   UNL     1       1.700  18.301  22.790  0.00  0.00    +0.000 A 
ATOM     23  C   UNL     1       1.602  17.098  22.127  0.00  0.00    +0.000 A 
ENDBRANCH  14  18
ENDBRANCH   8   9
BRANCH   4  24
ATOM     24  O   UNL     1       2.749   6.227  20.162  0.00  0.00    +0.000 OA
BRANCH  24  25
ATOM     25  C   UNL     1       2.120   5.052  19.810  0.00  0.00    +0.000 A 
ATOM     26  C   UNL     1       1.538   4.167  20.726  0.00  0.00    +0.000 A 
ATOM     27  C   UNL     1       0.966   2.975  20.280  0.00  0.00    +0.000 A 
ATOM     28  C   UNL     1       0.916   2.707  18.917  0.00  0.00    +0.000 A 
ATOM     29  F   UNL     1       0.367   1.563  18.490  0.00  0.00    +0.000 F 
ATOM     30  C   UNL     1       1.424   3.612  17.991  0.00  0.00    +0.000 A 
ATOM     31  C   UNL     1       2.028   4.789  18.440  0.00  0.00    +0.000 A 
ENDBRANCH  24  25
ENDBRANCH   4  24
TORSDOF 4
ENDMDL
MODEL 7
REMARK VINA RESULT:      -7.8      3.218      5.028
REMARK  Name = 
REMARK  6 active torsions:
REMARK  status: ('A' for Active; 'I' for Inactive)
REMARK    1  A    between atoms: C_1  and  C_2
REMARK    2  A    between atoms: C_4  and  O_5
REMARK    3  A    between atoms: O_5  and  C_6
REMARK    4  A    between atoms: C_14  and  C_15
REMARK    5  A    between atoms: C_16  and  C_17
REMARK    6  A    between atoms: C_22  and  C_24
REMARK                            x       y       z     vdW  Elec       q    Type
REMARK                         _______ _______ _______ _____ _____    ______ ____
ROOT
ATOM      1  C   UNL     1      -0.552   9.266  22.494  0.00  0.00    +0.000 C 
ATOM      2  C   UNL     1       0.334   9.123  21.276  0.00  0.00    +0.000 A 
ATOM      3  C   UNL     1       1.169   7.989  21.255  0.00  0.00    +0.000 A 
ATOM      4  C   UNL     1       1.918   7.672  20.131  0.00  0.00    +0.000 A 
ATOM      5  C   UNL     1       1.940   8.567  19.065  0.00  0.00    +0.000 A 
ATOM      6  C   UNL     1       1.189   9.765  19.084  0.00  0.00    +0.000 A 
ATOM      7  C   UNL     1       1.357  10.672  17.893  0.00  0.00    +0.000 C 
ATOM      8  C   UNL     1       0.346  10.050  20.191  0.00  0.00    +0.000 A 
ENDROOT
BRANCH   8   9
ATOM      9  C   UNL     1      -0.478  11.274  20.291  0.00  0.00    +0.000 A 
ATOM     10  C   UNL     1      -1.781  11.451  19.861  0.00  0.00    +0.000 A 
ATOM     11  S   UNL     1      -2.363  13.015  20.319  0.00  0.00    +0.000 S 
ATOM     12  C   UNL     1      -0.854  13.337  21.031  0.00  0.00    +0.000 A 
ATOM     13  N   UNL     1      -0.734  14.542  21.675  0.00  0.00    +0.000 N 
ATOM     14  C   UNL     1       0.484  14.927  22.194  0.00  0.00    +0.000 C 
ATOM     15  O   UNL     1       1.548  14.325  22.098  0.00  0.00    +0.000 OA
ATOM     16  N   UNL     1       0.039  12.396  20.916  0.00  0.00    +0.000 NA
ATOM     17  H   UNL     1      -1.545  15.138  21.697  0.00  0.00    +0.000 HD
BRANCH  14  18
ATOM     18  C   UNL     1       0.529  16.223  22.916  0.00  0.00    +0.000 A 
ATOM     19  C   UNL     1      -0.338  16.537  23.961  0.00  0.00    +0.000 A 
ATOM     20  C   UNL     1      -0.136  17.742  24.615  0.00  0.00    +0.000 A 
ATOM     21  N   UNL     1       0.840  18.624  24.297  0.00  0.00    +0.000 NA
ATOM     22  C   UNL     1       1.667  18.287  23.285  0.00  0.00    +0.000 A 
ATOM     23  C   UNL     1       1.554  17.112  22.576  0.00  0.00    +0.000 A 
ENDBRANCH  14  18
ENDBRANCH   8   9
BRANCH   4  24
ATOM     24  O   UNL     1       2.702   6.546  20.005  0.00  0.00    +0.000 OA
BRANCH  24  25
ATOM     25  C   UNL     1       2.142   5.363  19.574  0.00  0.00    +0.000 A 
ATOM     26  C   UNL     1       2.122   4.943  18.238  0.00  0.00    +0.000 A 
ATOM     27  C   UNL     1       1.488   3.749  17.890  0.00  0.00    +0.000 A 
ATOM     28  C   UNL     1       0.939   2.950  18.885  0.00  0.00    +0.000 A 
ATOM     29  F   UNL     1       0.331   1.805  18.550  0.00  0.00    +0.000 F 
ATOM     30  C   UNL     1       1.017   3.319  20.224  0.00  0.00    +0.000 A 
ATOM     31  C   UNL     1       1.620   4.531  20.569  0.00  0.00    +0.000 A 
ENDBRANCH  24  25
ENDBRANCH   4  24
TORSDOF 4
ENDMDL
MODEL 8
REMARK VINA RESULT:      -7.6      3.932      5.891
REMARK  Name = 
REMARK  6 active torsions:
REMARK  status: ('A' for Active; 'I' for Inactive)
REMARK    1  A    between atoms: C_1  and  C_2
REMARK    2  A    between atoms: C_4  and  O_5
REMARK    3  A    between atoms: O_5  and  C_6
REMARK    4  A    between atoms: C_14  and  C_15
REMARK    5  A    between atoms: C_16  and  C_17
REMARK    6  A    between atoms: C_22  and  C_24
REMARK                            x       y       z     vdW  Elec       q    Type
REMARK                         _______ _______ _______ _____ _____    ______ ____
ROOT
ATOM      1  C   UNL     1       2.271   9.139  17.617  0.00  0.00    +0.000 C 
ATOM      2  C   UNL     1       1.742   8.657  18.949  0.00  0.00    +0.000 A 
ATOM      3  C   UNL     1       2.090   7.340  19.307  0.00  0.00    +0.000 A 
ATOM      4  C   UNL     1       1.787   6.836  20.564  0.00  0.00    +0.000 A 
ATOM      5  C   UNL     1       1.011   7.604  21.427  0.00  0.00    +0.000 A 
ATOM      6  C   UNL     1       0.560   8.896  21.070  0.00  0.00    +0.000 A 
ATOM      7  C   UNL     1      -0.326   9.589  22.071  0.00  0.00    +0.000 C 
ATOM      8  C   UNL     1       0.945   9.457  19.823  0.00  0.00    +0.000 A 
ENDROOT
BRANCH   8   9
ATOM      9  C   UNL     1       0.526  10.802  19.372  0.00  0.00    +0.000 A 
ATOM     10  C   UNL     1      -0.633  11.141  18.695  0.00  0.00    +0.000 A 
ATOM     11  S   UNL     1      -0.742  12.857  18.505  0.00  0.00    +0.000 S 
ATOM     12  C   UNL     1       0.745  13.014  19.314  0.00  0.00    +0.000 A 
ATOM     13  N   UNL     1       1.182  14.295  19.532  0.00  0.00    +0.000 N 
ATOM     14  C   UNL     1       2.424  14.512  20.091  0.00  0.00    +0.000 C 
ATOM     15  O   UNL     1       3.260  13.663  20.380  0.00  0.00    +0.000 OA
ATOM     16  N   UNL     1       1.316  11.899  19.668  0.00  0.00    +0.000 NA
ATOM     17  H   UNL     1       0.590  15.046  19.220  0.00  0.00    +0.000 HD
BRANCH  14  18
ATOM     18  C   UNL     1       2.813  15.923  20.340  0.00  0.00    +0.000 A 
ATOM     19  C   UNL     1       4.140  16.334  20.454  0.00  0.00    +0.000 A 
ATOM     20  C   UNL     1       4.376  17.692  20.595  0.00  0.00    +0.000 A 
ATOM     21  N   UNL     1       3.403  18.631  20.635  0.00  0.00    +0.000 NA
ATOM     22  C   UNL     1       2.129  18.201  20.516  0.00  0.00    +0.000 A 
ATOM     23  C   UNL     1       1.789  16.876  20.366  0.00  0.00    +0.000 A 
ENDBRANCH  14  18
ENDBRANCH   8   9
BRANCH   4  24
ATOM     24  O   UNL     1       2.155   5.587  21.015  0.00  0.00    +0.000 OA
BRANCH  24  25
ATOM     25  C   UNL     1       2.257   4.537  20.129  0.00  0.00    +0.000 A 
ATOM     26  C   UNL     1       1.161   3.841  19.604  0.00  0.00    +0.000 A 
ATOM     27  C   UNL     1       1.366   2.757  18.749  0.00  0.00    +0.000 A 
ATOM     28  C   UNL     1       2.659   2.419  18.369  0.00  0.00    +0.000 A 
ATOM     29  F   UNL     1       2.854   1.379  17.547  0.00  0.00    +0.000 F 
ATOM     30  C   UNL     1       3.752   3.149  18.824  0.00  0.00    +0.000 A 
ATOM     31  C   UNL     1       3.550   4.211  19.707  0.00  0.00    +0.000 A 
ENDBRANCH  24  25
ENDBRANCH   4  24
TORSDOF 4
ENDMDL
MODEL 9
REMARK VINA RESULT:      -7.6      0.977      1.915
REMARK  Name = 
REMARK  6 active torsions:
REMARK  status: ('A' for Active; 'I' for Inactive)
REMARK    1  A    between atoms: C_1  and  C_2
REMARK    2  A    between atoms: C_4  and  O_5
REMARK    3  A    between atoms: O_5  and  C_6
REMARK    4  A    between atoms: C_14  and  C_15
REMARK    5  A    between atoms: C_16  and  C_17
REMARK    6  A    between atoms: C_22  and  C_24
REMARK                            x       y       z     vdW  Elec       q    Type
REMARK                         _______ _______ _______ _____ _____    ______ ____
ROOT
ATOM      1  C   UNL     1       1.807  11.079  17.576  0.00  0.00    +0.000 C 
ATOM      2  C   UNL     1       1.733   9.865  18.475  0.00  0.00    +0.000 A 
ATOM      3  C   UNL     1       2.485   8.748  18.062  0.00  0.00    +0.000 A 
ATOM      4  C   UNL     1       2.612   7.630  18.874  0.00  0.00    +0.000 A 
ATOM      5  C   UNL     1       1.873   7.568  20.052  0.00  0.00    +0.000 A 
ATOM      6  C   UNL     1       1.031   8.629  20.458  0.00  0.00    +0.000 A 
ATOM      7  C   UNL     1       0.239   8.402  21.719  0.00  0.00    +0.000 C 
ATOM      8  C   UNL     1       0.968   9.816  19.680  0.00  0.00    +0.000 A 
ENDROOT
BRANCH   8   9
ATOM      9  C   UNL     1       0.121  10.975  20.033  0.00  0.00    +0.000 A 
ATOM     10  C   UNL     1       0.493  12.111  20.732  0.00  0.00    +0.000 A 
ATOM     11  S   UNL     1      -0.811  13.247  20.779  0.00  0.00    +0.000 S 
ATOM     12  C   UNL     1      -1.761  12.151  19.892  0.00  0.00    +0.000 A 
ATOM     13  N   UNL     1      -3.016  12.583  19.545  0.00  0.00    +0.000 N 
ATOM     14  C   UNL     1      -3.889  11.723  18.913  0.00  0.00    +0.000 C 
ATOM     15  O   UNL     1      -3.700  10.538  18.659  0.00  0.00    +0.000 OA
ATOM     16  N   UNL     1      -1.196  11.013  19.608  0.00  0.00    +0.000 NA
ATOM     17  H   UNL     1      -3.277  13.515  19.819  0.00  0.00    +0.000 HD
BRANCH  14  18
ATOM     18  C   UNL     1      -5.213  12.271  18.526  0.00  0.00    +0.000 A 
ATOM     19  C   UNL     1      -6.129  12.763  19.455  0.00  0.00    +0.000 A 
ATOM     20  C   UNL     1      -7.292  13.333  18.962  0.00  0.00    +0.000 A 
ATOM     21  N   UNL     1      -7.589  13.431  17.646  0.00  0.00    +0.000 NA
ATOM     22  C   UNL     1      -6.679  12.951  16.772  0.00  0.00    +0.000 A 
ATOM     23  C   UNL     1      -5.492  12.373  17.160  0.00  0.00    +0.000 A 
ENDBRANCH  14  18
ENDBRANCH   8   9
BRANCH   4  24
ATOM     24  O   UNL     1       3.386   6.530  18.575  0.00  0.00    +0.000 OA
BRANCH  24  25
ATOM     25  C   UNL     1       2.857   5.263  18.695  0.00  0.00    +0.000 A 
ATOM     26  C   UNL     1       1.828   4.761  17.889  0.00  0.00    +0.000 A 
ATOM     27  C   UNL     1       1.322   3.480  18.118  0.00  0.00    +0.000 A 
ATOM     28  C   UNL     1       1.893   2.685  19.104  0.00  0.00    +0.000 A 
ATOM     29  F   UNL     1       1.408   1.456  19.322  0.00  0.00    +0.000 F 
ATOM     30  C   UNL     1       2.965   3.144  19.862  0.00  0.00    +0.000 A 
ATOM     31  C   UNL     1       3.448   4.439  19.657  0.00  0.00    +0.000 A 
ENDBRANCH  24  25
ENDBRANCH   4  24
TORSDOF 4
ENDMDL
