MODEL 1
REMARK VINA RESULT:      -8.3      0.000      0.000
REMARK  Name = 
REMARK  10 active torsions:
REMARK  status: ('A' for Active; 'I' for Inactive)
REMARK    1  A    between atoms: C_1  and  C_2
REMARK    2  A    between atoms: C_2  and  C_3
REMARK    3  A    between atoms: C_3  and  C_4
REMARK    4  A    between atoms: C_4  and  N_5
REMARK    5  A    between atoms: C_6  and  C_8
REMARK    6  A    between atoms: C_8  and  C_9
REMARK    7  A    between atoms: C_11  and  C_12
REMARK    8  A    between atoms: C_15  and  C_16
REMARK    9  A    between atoms: C_19  and  S_20
REMARK   10  A    between atoms: S_20  and  N_23
REMARK                            x       y       z     vdW  Elec       q    Type
REMARK                         _______ _______ _______ _____ _____    ______ ____
ROOT
ATOM      1  C   UNL     1       4.252   5.274  17.334  0.00  0.00    +0.000 A 
ATOM      2  C   UNL     1       4.165   4.686  18.590  0.00  0.00    +0.000 A 
ATOM      3  C   UNL     1       3.360   5.526  19.400  0.00  0.00    +0.000 A 
ATOM      4  C   UNL     1       3.011   6.597  18.617  0.00  0.00    +0.000 A 
ATOM      5  O   UNL     1       3.511   6.431  17.366  0.00  0.00    +0.000 OA
ENDROOT
BRANCH   4   6
ATOM      6  C   UNL     1       2.263   7.814  18.876  0.00  0.00    +0.000 A 
ATOM      7  C   UNL     1       2.053   8.834  17.933  0.00  0.00    +0.000 A 
ATOM      8  C   UNL     1       1.358  10.008  18.282  0.00  0.00    +0.000 A 
ATOM      9  C   UNL     1       0.808  10.137  19.565  0.00  0.00    +0.000 A 
ATOM     10  C   UNL     1       1.084   9.159  20.528  0.00  0.00    +0.000 A 
ATOM     11  C   UNL     1       1.774   8.003  20.171  0.00  0.00    +0.000 A 
BRANCH   9  12
ATOM     12  S   UNL     1      -0.230  11.556  19.975  0.00  0.00    +0.000 S 
ATOM     13  O   UNL     1       0.258  12.671  19.215  0.00  0.00    +0.000 OA
ATOM     14  O   UNL     1      -1.619  11.135  19.831  0.00  0.00    +0.000 OA
BRANCH  12  15
ATOM     15  N   UNL     1       0.056  11.938  21.638  0.00  0.00    +0.000 NA
ATOM     16  C   UNL     1      -0.746  11.288  22.716  0.00  0.00    +0.000 C 
ATOM     17  C   UNL     1      -2.160  11.871  22.840  0.00  0.00    +0.000 C 
ATOM     18  O   UNL     1      -2.204  13.309  22.879  0.00  0.00    +0.000 OA
ATOM     19  C   UNL     1      -1.317  14.013  21.989  0.00  0.00    +0.000 C 
ATOM     20  C   UNL     1       0.099  13.419  21.936  0.00  0.00    +0.000 C 
ENDBRANCH  12  15
ENDBRANCH   9  12
ENDBRANCH   4   6
BRANCH   1  22
ATOM     21  C   UNL     1       6.130   5.350  15.787  0.00  0.00    +0.000 C 
ATOM     22  C   UNL     1       4.956   4.825  16.178  0.00  0.00    +0.000 C 
BRANCH  21  24
ATOM     23  N   UNL     1       6.146   3.794  13.899  0.00  0.00    +0.000 N 
ATOM     24  C   UNL     1       6.764   4.838  14.526  0.00  0.00    +0.000 C 
ATOM     25  O   UNL     1       7.819   5.362  14.088  0.00  0.00    +0.000 OA
ATOM     26  H   UNL     1       5.304   3.331  14.284  0.00  0.00    +0.000 HD
BRANCH  23  27
ATOM     27  C   UNL     1       6.676   3.209  12.672  0.00  0.00    +0.000 C 
BRANCH  27  28
ATOM     28  C   UNL     1       5.569   2.681  11.749  0.00  0.00    +0.000 C 
BRANCH  28  30
ATOM     29  C   UNL     1       3.433   3.306  10.564  0.00  0.00    +0.000 C 
ATOM     30  C   UNL     1       4.327   3.573  11.765  0.00  0.00    +0.000 C 
ENDBRANCH  28  30
ENDBRANCH  27  28
ENDBRANCH  23  27
ENDBRANCH  21  24
BRANCH  21  31
ATOM     31  C   UNL     1       6.804   6.375  16.462  0.00  0.00    +0.000 C 
ATOM     32  N   UNL     1       7.349   7.282  16.957  0.00  0.00    +0.000 NA
ENDBRANCH  21  31
ENDBRANCH   1  22
TORSDOF 9
ENDMDL
MODEL 2
REMARK VINA RESULT:      -8.3      0.567      1.251
REMARK  Name = 
REMARK  10 active torsions:
REMARK  status: ('A' for Active; 'I' for Inactive)
REMARK    1  A    between atoms: C_1  and  C_2
REMARK    2  A    between atoms: C_2  and  C_3
REMARK    3  A    between atoms: C_3  and  C_4
REMARK    4  A    between atoms: C_4  and  N_5
REMARK    5  A    between atoms: C_6  and  C_8
REMARK    6  A    between atoms: C_8  and  C_9
REMARK    7  A    between atoms: C_11  and  C_12
REMARK    8  A    between atoms: C_15  and  C_16
REMARK    9  A    between atoms: C_19  and  S_20
REMARK   10  A    between atoms: S_20  and  N_23
REMARK                            x       y       z     vdW  Elec       q    Type
REMARK                         _______ _______ _______ _____ _____    ______ ____
ROOT
ATOM      1  C   UNL     1       4.167   5.247  17.682  0.00  0.00    +0.000 A 
ATOM      2  C   UNL     1       4.106   4.620  18.920  0.00  0.00    +0.000 A 
ATOM      3  C   UNL     1       3.291   5.416  19.764  0.00  0.00    +0.000 A 
ATOM      4  C   UNL     1       2.909   6.502  19.016  0.00  0.00    +0.000 A 
ATOM      5  O   UNL     1       3.399   6.386  17.757  0.00  0.00    +0.000 OA
ENDROOT
BRANCH   4   6
ATOM      6  C   UNL     1       2.136   7.693  19.320  0.00  0.00    +0.000 A 
ATOM      7  C   UNL     1       1.550   7.964  20.568  0.00  0.00    +0.000 A 
ATOM      8  C   UNL     1       0.771   9.121  20.764  0.00  0.00    +0.000 A 
ATOM      9  C   UNL     1       0.630  10.051  19.725  0.00  0.00    +0.000 A 
ATOM     10  C   UNL     1       1.146   9.745  18.459  0.00  0.00    +0.000 A 
ATOM     11  C   UNL     1       1.913   8.597  18.277  0.00  0.00    +0.000 A 
BRANCH   9  12
ATOM     12  S   UNL     1      -0.219  11.618  20.010  0.00  0.00    +0.000 S 
ATOM     13  O   UNL     1       0.481  12.622  19.260  0.00  0.00    +0.000 OA
ATOM     14  O   UNL     1      -1.640  11.393  19.769  0.00  0.00    +0.000 OA
BRANCH  12  15
ATOM     15  N   UNL     1      -0.006  12.021  21.679  0.00  0.00    +0.000 NA
ATOM     16  C   UNL     1      -0.894  11.431  22.724  0.00  0.00    +0.000 C 
ATOM     17  C   UNL     1      -2.284  12.080  22.759  0.00  0.00    +0.000 C 
ATOM     18  O   UNL     1      -2.263  13.519  22.769  0.00  0.00    +0.000 OA
ATOM     19  C   UNL     1      -1.297  14.163  21.916  0.00  0.00    +0.000 C 
ATOM     20  C   UNL     1       0.090  13.505  21.952  0.00  0.00    +0.000 C 
ENDBRANCH  12  15
ENDBRANCH   9  12
ENDBRANCH   4   6
BRANCH   1  22
ATOM     21  C   UNL     1       5.995   5.451  16.089  0.00  0.00    +0.000 C 
ATOM     22  C   UNL     1       4.868   4.850  16.506  0.00  0.00    +0.000 C 
BRANCH  21  24
ATOM     23  N   UNL     1       5.915   4.110  14.045  0.00  0.00    +0.000 N 
ATOM     24  C   UNL     1       6.629   4.988  14.810  0.00  0.00    +0.000 C 
ATOM     25  O   UNL     1       7.769   5.401  14.479  0.00  0.00    +0.000 OA
ATOM     26  H   UNL     1       4.997   3.732  14.339  0.00  0.00    +0.000 HD
BRANCH  23  27
ATOM     27  C   UNL     1       6.434   3.584  12.787  0.00  0.00    +0.000 C 
BRANCH  27  28
ATOM     28  C   UNL     1       5.319   3.092  11.853  0.00  0.00    +0.000 C 
BRANCH  28  30
ATOM     29  C   UNL     1       7.050   1.495  10.953  0.00  0.00    +0.000 C 
ATOM     30  C   UNL     1       5.588   1.682  11.323  0.00  0.00    +0.000 C 
ENDBRANCH  28  30
ENDBRANCH  27  28
ENDBRANCH  23  27
ENDBRANCH  21  24
BRANCH  21  31
ATOM     31  C   UNL     1       6.619   6.515  16.753  0.00  0.00    +0.000 C 
ATOM     32  N   UNL     1       7.204   7.398  17.247  0.00  0.00    +0.000 NA
ENDBRANCH  21  31
ENDBRANCH   1  22
TORSDOF 9
ENDMDL
MODEL 3
REMARK VINA RESULT:      -8.2      1.304      1.533
REMARK  Name = 
REMARK  10 active torsions:
REMARK  status: ('A' for Active; 'I' for Inactive)
REMARK    1  A    between atoms: C_1  and  C_2
REMARK    2  A    between atoms: C_2  and  C_3
REMARK    3  A    between atoms: C_3  and  C_4
REMARK    4  A    between atoms: C_4  and  N_5
REMARK    5  A    between atoms: C_6  and  C_8
REMARK    6  A    between atoms: C_8  and  C_9
REMARK    7  A    between atoms: C_11  and  C_12
REMARK    8  A    between atoms: C_15  and  C_16
REMARK    9  A    between atoms: C_19  and  S_20
REMARK   10  A    between atoms: S_20  and  N_23
REMARK                            x       y       z     vdW  Elec       q    Type
REMARK                         _______ _______ _______ _____ _____    ______ ____
ROOT
ATOM      1  C   UNL     1       4.210   5.107  17.487  0.00  0.00    +0.000 A 
ATOM      2  C   UNL     1       4.093   4.461  18.712  0.00  0.00    +0.000 A 
ATOM      3  C   UNL     1       3.283   5.272  19.547  0.00  0.00    +0.000 A 
ATOM      4  C   UNL     1       2.961   6.383  18.809  0.00  0.00    +0.000 A 
ATOM      5  O   UNL     1       3.482   6.271  17.562  0.00  0.00    +0.000 OA
ENDROOT
BRANCH   4   6
ATOM      6  C   UNL     1       2.222   7.595  19.113  0.00  0.00    +0.000 A 
ATOM      7  C   UNL     1       2.016   8.649  18.206  0.00  0.00    +0.000 A 
ATOM      8  C   UNL     1       1.330   9.815  18.599  0.00  0.00    +0.000 A 
ATOM      9  C   UNL     1       0.786   9.904  19.887  0.00  0.00    +0.000 A 
ATOM     10  C   UNL     1       1.058   8.891  20.815  0.00  0.00    +0.000 A 
ATOM     11  C   UNL     1       1.739   7.744  20.416  0.00  0.00    +0.000 A 
BRANCH   9  12
ATOM     12  S   UNL     1      -0.241  11.315  20.349  0.00  0.00    +0.000 S 
ATOM     13  O   UNL     1      -1.499  11.161  19.676  0.00  0.00    +0.000 OA
ATOM     14  O   UNL     1      -0.207  11.420  21.804  0.00  0.00    +0.000 OA
BRANCH  12  15
ATOM     15  N   UNL     1       0.500  12.729  19.682  0.00  0.00    +0.000 NA
ATOM     16  C   UNL     1       1.577  13.446  20.426  0.00  0.00    +0.000 C 
ATOM     17  C   UNL     1       1.038  14.293  21.586  0.00  0.00    +0.000 C 
ATOM     18  O   UNL     1      -0.075  15.135  21.235  0.00  0.00    +0.000 OA
ATOM     19  C   UNL     1      -1.071  14.567  20.363  0.00  0.00    +0.000 C 
ATOM     20  C   UNL     1      -0.481  13.770  19.191  0.00  0.00    +0.000 C 
ENDBRANCH  12  15
ENDBRANCH   9  12
ENDBRANCH   4   6
BRANCH   1  22
ATOM     21  C   UNL     1       6.022   5.351  15.880  0.00  0.00    +0.000 C 
ATOM     22  C   UNL     1       4.931   4.706  16.324  0.00  0.00    +0.000 C 
BRANCH  21  24
ATOM     23  N   UNL     1       5.944   4.059  13.805  0.00  0.00    +0.000 N 
ATOM     24  C   UNL     1       6.679   4.876  14.617  0.00  0.00    +0.000 C 
ATOM     25  O   UNL     1       7.853   5.225  14.341  0.00  0.00    +0.000 OA
ATOM     26  H   UNL     1       4.993   3.732  14.054  0.00  0.00    +0.000 HD
BRANCH  23  27
ATOM     27  C   UNL     1       6.480   3.528  12.556  0.00  0.00    +0.000 C 
BRANCH  27  28
ATOM     28  C   UNL     1       5.431   2.747  11.753  0.00  0.00    +0.000 C 
BRANCH  28  30
ATOM     29  C   UNL     1       3.401   3.206  10.331  0.00  0.00    +0.000 C 
ATOM     30  C   UNL     1       4.104   3.501  11.646  0.00  0.00    +0.000 C 
ENDBRANCH  28  30
ENDBRANCH  27  28
ENDBRANCH  23  27
ENDBRANCH  21  24
BRANCH  21  31
ATOM     31  C   UNL     1       6.589   6.470  16.503  0.00  0.00    +0.000 C 
ATOM     32  N   UNL     1       7.069   7.356  17.096  0.00  0.00    +0.000 NA
ENDBRANCH  21  31
ENDBRANCH   1  22
TORSDOF 9
ENDMDL
MODEL 4
REMARK VINA RESULT:      -8.2      1.478      2.101
REMARK  Name = 
REMARK  10 active torsions:
REMARK  status: ('A' for Active; 'I' for Inactive)
REMARK    1  A    between atoms: C_1  and  C_2
REMARK    2  A    between atoms: C_2  and  C_3
REMARK    3  A    between atoms: C_3  and  C_4
REMARK    4  A    between atoms: C_4  and  N_5
REMARK    5  A    between atoms: C_6  and  C_8
REMARK    6  A    between atoms: C_8  and  C_9
REMARK    7  A    between atoms: C_11  and  C_12
REMARK    8  A    between atoms: C_15  and  C_16
REMARK    9  A    between atoms: C_19  and  S_20
REMARK   10  A    between atoms: S_20  and  N_23
REMARK                            x       y       z     vdW  Elec       q    Type
REMARK                         _______ _______ _______ _____ _____    ______ ____
ROOT
ATOM      1  C   UNL     1       4.192   4.740  17.199  0.00  0.00    +0.000 A 
ATOM      2  C   UNL     1       3.951   3.885  18.268  0.00  0.00    +0.000 A 
ATOM      3  C   UNL     1       3.171   4.595  19.215  0.00  0.00    +0.000 A 
ATOM      4  C   UNL     1       2.989   5.853  18.699  0.00  0.00    +0.000 A 
ATOM      5  O   UNL     1       3.566   5.933  17.474  0.00  0.00    +0.000 OA
ENDROOT
BRANCH   4   6
ATOM      6  C   UNL     1       2.344   7.050  19.207  0.00  0.00    +0.000 A 
ATOM      7  C   UNL     1       1.814   7.179  20.503  0.00  0.00    +0.000 A 
ATOM      8  C   UNL     1       1.158   8.360  20.899  0.00  0.00    +0.000 A 
ATOM      9  C   UNL     1       1.087   9.448  20.020  0.00  0.00    +0.000 A 
ATOM     10  C   UNL     1       1.543   9.294  18.704  0.00  0.00    +0.000 A 
ATOM     11  C   UNL     1       2.189   8.121  18.323  0.00  0.00    +0.000 A 
BRANCH   9  12
ATOM     12  S   UNL     1       0.402  11.025  20.570  0.00  0.00    +0.000 S 
ATOM     13  O   UNL     1      -0.705  10.727  21.434  0.00  0.00    +0.000 OA
ATOM     14  O   UNL     1       1.512  11.832  21.068  0.00  0.00    +0.000 OA
BRANCH  12  15
ATOM     15  N   UNL     1      -0.262  11.810  19.179  0.00  0.00    +0.000 NA
ATOM     16  C   UNL     1       0.503  12.876  18.469  0.00  0.00    +0.000 C 
ATOM     17  C   UNL     1       0.488  14.217  19.215  0.00  0.00    +0.000 C 
ATOM     18  O   UNL     1      -0.818  14.639  19.646  0.00  0.00    +0.000 OA
ATOM     19  C   UNL     1      -1.689  13.622  20.177  0.00  0.00    +0.000 C 
ATOM     20  C   UNL     1      -1.674  12.316  19.368  0.00  0.00    +0.000 C 
ENDBRANCH  12  15
ENDBRANCH   9  12
ENDBRANCH   4   6
BRANCH   1  22
ATOM     21  C   UNL     1       6.093   5.128  15.728  0.00  0.00    +0.000 C 
ATOM     22  C   UNL     1       4.937   4.502  16.007  0.00  0.00    +0.000 C 
BRANCH  21  24
ATOM     23  N   UNL     1       6.286   3.801  13.683  0.00  0.00    +0.000 N 
ATOM     24  C   UNL     1       6.773   4.841  14.422  0.00  0.00    +0.000 C 
ATOM     25  O   UNL     1       7.748   5.539  14.046  0.00  0.00    +0.000 OA
ATOM     26  H   UNL     1       5.514   3.195  14.013  0.00  0.00    +0.000 HD
BRANCH  23  27
ATOM     27  C   UNL     1       6.872   3.423  12.402  0.00  0.00    +0.000 C 
BRANCH  27  28
ATOM     28  C   UNL     1       5.809   3.107  11.341  0.00  0.00    +0.000 C 
BRANCH  28  30
ATOM     29  C   UNL     1       3.360   3.181  10.747  0.00  0.00    +0.000 C 
ATOM     30  C   UNL     1       4.389   3.350  11.853  0.00  0.00    +0.000 C 
ENDBRANCH  28  30
ENDBRANCH  27  28
ENDBRANCH  23  27
ENDBRANCH  21  24
BRANCH  21  31
ATOM     31  C   UNL     1       6.707   6.066  16.567  0.00  0.00    +0.000 C 
ATOM     32  N   UNL     1       7.239   6.897  17.195  0.00  0.00    +0.000 NA
ENDBRANCH  21  31
ENDBRANCH   1  22
TORSDOF 9
ENDMDL
MODEL 5
REMARK VINA RESULT:      -8.2      1.489      2.136
REMARK  Name = 
REMARK  10 active torsions:
REMARK  status: ('A' for Active; 'I' for Inactive)
REMARK    1  A    between atoms: C_1  and  C_2
REMARK    2  A    between atoms: C_2  and  C_3
REMARK    3  A    between atoms: C_3  and  C_4
REMARK    4  A    between atoms: C_4  and  N_5
REMARK    5  A    between atoms: C_6  and  C_8
REMARK    6  A    between atoms: C_8  and  C_9
REMARK    7  A    between atoms: C_11  and  C_12
REMARK    8  A    between atoms: C_15  and  C_16
REMARK    9  A    between atoms: C_19  and  S_20
REMARK   10  A    between atoms: S_20  and  N_23
REMARK                            x       y       z     vdW  Elec       q    Type
REMARK                         _______ _______ _______ _____ _____    ______ ____
ROOT
ATOM      1  C   UNL     1       4.189   5.156  17.521  0.00  0.00    +0.000 A 
ATOM      2  C   UNL     1       4.197   4.469  18.728  0.00  0.00    +0.000 A 
ATOM      3  C   UNL     1       3.430   5.221  19.654  0.00  0.00    +0.000 A 
ATOM      4  C   UNL     1       3.008   6.341  18.984  0.00  0.00    +0.000 A 
ATOM      5  O   UNL     1       3.427   6.288  17.695  0.00  0.00    +0.000 OA
ENDROOT
BRANCH   4   6
ATOM      6  C   UNL     1       2.254   7.514  19.388  0.00  0.00    +0.000 A 
ATOM      7  C   UNL     1       1.675   7.688  20.656  0.00  0.00    +0.000 A 
ATOM      8  C   UNL     1       0.914   8.837  20.950  0.00  0.00    +0.000 A 
ATOM      9  C   UNL     1       0.785   9.852  19.994  0.00  0.00    +0.000 A 
ATOM     10  C   UNL     1       1.294   9.645  18.705  0.00  0.00    +0.000 A 
ATOM     11  C   UNL     1       2.043   8.505  18.426  0.00  0.00    +0.000 A 
BRANCH   9  12
ATOM     12  S   UNL     1      -0.040  11.402  20.412  0.00  0.00    +0.000 S 
ATOM     13  O   UNL     1      -1.373  11.327  19.885  0.00  0.00    +0.000 OA
ATOM     14  O   UNL     1       0.163  11.633  21.838  0.00  0.00    +0.000 OA
BRANCH  12  15
ATOM     15  N   UNL     1       0.760  12.662  19.536  0.00  0.00    +0.000 NA
ATOM     16  C   UNL     1       2.003  13.290  20.072  0.00  0.00    +0.000 C 
ATOM     17  C   UNL     1       1.727  14.278  21.213  0.00  0.00    +0.000 C 
ATOM     18  O   UNL     1       0.680  15.225  20.934  0.00  0.00    +0.000 OA
ATOM     19  C   UNL     1      -0.484  14.726  20.247  0.00  0.00    +0.000 C 
ATOM     20  C   UNL     1      -0.153  13.779  19.084  0.00  0.00    +0.000 C 
ENDBRANCH  12  15
ENDBRANCH   9  12
ENDBRANCH   4   6
BRANCH   1  22
ATOM     21  C   UNL     1       6.055   5.245  15.961  0.00  0.00    +0.000 C 
ATOM     22  C   UNL     1       4.823   4.820  16.290  0.00  0.00    +0.000 C 
BRANCH  21  24
ATOM     23  N   UNL     1       5.867   4.025  13.849  0.00  0.00    +0.000 N 
ATOM     24  C   UNL     1       6.612   4.873  14.617  0.00  0.00    +0.000 C 
ATOM     25  O   UNL     1       7.718   5.332  14.239  0.00  0.00    +0.000 OA
ATOM     26  H   UNL     1       4.978   3.608  14.178  0.00  0.00    +0.000 HD
BRANCH  23  27
ATOM     27  C   UNL     1       6.312   3.587  12.530  0.00  0.00    +0.000 C 
BRANCH  27  28
ATOM     28  C   UNL     1       5.259   2.732  11.811  0.00  0.00    +0.000 C 
BRANCH  28  30
ATOM     29  C   UNL     1       7.375   1.628  10.999  0.00  0.00    +0.000 C 
ATOM     30  C   UNL     1       5.870   1.492  11.155  0.00  0.00    +0.000 C 
ENDBRANCH  28  30
ENDBRANCH  27  28
ENDBRANCH  23  27
ENDBRANCH  21  24
BRANCH  21  31
ATOM     31  C   UNL     1       6.861   6.047  16.778  0.00  0.00    +0.000 C 
ATOM     32  N   UNL     1       7.604   6.676  17.424  0.00  0.00    +0.000 NA
ENDBRANCH  21  31
ENDBRANCH   1  22
TORSDOF 9
ENDMDL
MODEL 6
REMARK VINA RESULT:      -8.1      1.608      2.359
REMARK  Name = 
REMARK  10 active torsions:
REMARK  status: ('A' for Active; 'I' for Inactive)
REMARK    1  A    between atoms: C_1  and  C_2
REMARK    2  A    between atoms: C_2  and  C_3
REMARK    3  A    between atoms: C_3  and  C_4
REMARK    4  A    between atoms: C_4  and  N_5
REMARK    5  A    between atoms: C_6  and  C_8
REMARK    6  A    between atoms: C_8  and  C_9
REMARK    7  A    between atoms: C_11  and  C_12
REMARK    8  A    between atoms: C_15  and  C_16
REMARK    9  A    between atoms: C_19  and  S_20
REMARK   10  A    between atoms: S_20  and  N_23
REMARK                            x       y       z     vdW  Elec       q    Type
REMARK                         _______ _______ _______ _____ _____    ______ ____
ROOT
ATOM      1  C   UNL     1       4.073   4.780  17.113  0.00  0.00    +0.000 A 
ATOM      2  C   UNL     1       3.885   3.836  18.114  0.00  0.00    +0.000 A 
ATOM      3  C   UNL     1       3.163   4.461  19.162  0.00  0.00    +0.000 A 
ATOM      4  C   UNL     1       2.963   5.760  18.769  0.00  0.00    +0.000 A 
ATOM      5  O   UNL     1       3.472   5.946  17.525  0.00  0.00    +0.000 OA
ENDROOT
BRANCH   4   6
ATOM      6  C   UNL     1       2.356   6.910  19.415  0.00  0.00    +0.000 A 
ATOM      7  C   UNL     1       1.780   6.890  20.697  0.00  0.00    +0.000 A 
ATOM      8  C   UNL     1       1.165   8.040  21.230  0.00  0.00    +0.000 A 
ATOM      9  C   UNL     1       1.184   9.240  20.507  0.00  0.00    +0.000 A 
ATOM     10  C   UNL     1       1.687   9.242  19.199  0.00  0.00    +0.000 A 
ATOM     11  C   UNL     1       2.290   8.099  18.682  0.00  0.00    +0.000 A 
BRANCH   9  12
ATOM     12  S   UNL     1       0.555  10.762  21.247  0.00  0.00    +0.000 S 
ATOM     13  O   UNL     1       0.408  10.519  22.654  0.00  0.00    +0.000 OA
ATOM     14  O   UNL     1       1.405  11.854  20.785  0.00  0.00    +0.000 OA
BRANCH  12  15
ATOM     15  N   UNL     1      -1.041  11.012  20.627  0.00  0.00    +0.000 NA
ATOM     16  C   UNL     1      -1.306  10.943  19.159  0.00  0.00    +0.000 C 
ATOM     17  C   UNL     1      -0.833  12.196  18.410  0.00  0.00    +0.000 C 
ATOM     18  O   UNL     1      -1.249  13.435  19.011  0.00  0.00    +0.000 OA
ATOM     19  C   UNL     1      -1.195  13.513  20.448  0.00  0.00    +0.000 C 
ATOM     20  C   UNL     1      -1.723  12.254  21.152  0.00  0.00    +0.000 C 
ENDBRANCH  12  15
ENDBRANCH   9  12
ENDBRANCH   4   6
BRANCH   1  22
ATOM     21  C   UNL     1       6.085   4.544  15.764  0.00  0.00    +0.000 C 
ATOM     22  C   UNL     1       4.750   4.646  15.865  0.00  0.00    +0.000 C 
BRANCH  21  24
ATOM     23  N   UNL     1       6.093   3.631  13.495  0.00  0.00    +0.000 N 
ATOM     24  C   UNL     1       6.701   4.455  14.397  0.00  0.00    +0.000 C 
ATOM     25  O   UNL     1       7.732   5.118  14.121  0.00  0.00    +0.000 OA
ATOM     26  H   UNL     1       5.272   3.048  13.735  0.00  0.00    +0.000 HD
BRANCH  23  27
ATOM     27  C   UNL     1       6.606   3.457  12.140  0.00  0.00    +0.000 C 
BRANCH  27  28
ATOM     28  C   UNL     1       5.908   2.314  11.390  0.00  0.00    +0.000 C 
BRANCH  28  30
ATOM     29  C   UNL     1       6.037  -0.198  11.227  0.00  0.00    +0.000 C 
ATOM     30  C   UNL     1       6.822   1.103  11.199  0.00  0.00    +0.000 C 
ENDBRANCH  28  30
ENDBRANCH  27  28
ENDBRANCH  23  27
ENDBRANCH  21  24
BRANCH  21  31
ATOM     31  C   UNL     1       6.965   4.543  16.854  0.00  0.00    +0.000 C 
ATOM     32  N   UNL     1       7.633   4.573  17.812  0.00  0.00    +0.000 NA
ENDBRANCH  21  31
ENDBRANCH   1  22
TORSDOF 9
ENDMDL
MODEL 7
REMARK VINA RESULT:      -7.9      1.824      2.588
REMARK  Name = 
REMARK  10 active torsions:
REMARK  status: ('A' for Active; 'I' for Inactive)
REMARK    1  A    between atoms: C_1  and  C_2
REMARK    2  A    between atoms: C_2  and  C_3
REMARK    3  A    between atoms: C_3  and  C_4
REMARK    4  A    between atoms: C_4  and  N_5
REMARK    5  A    between atoms: C_6  and  C_8
REMARK    6  A    between atoms: C_8  and  C_9
REMARK    7  A    between atoms: C_11  and  C_12
REMARK    8  A    between atoms: C_15  and  C_16
REMARK    9  A    between atoms: C_19  and  S_20
REMARK   10  A    between atoms: S_20  and  N_23
REMARK                            x       y       z     vdW  Elec       q    Type
REMARK                         _______ _______ _______ _____ _____    ______ ____
ROOT
ATOM      1  C   UNL     1       3.503   5.493  18.490  0.00  0.00    +0.000 A 
ATOM      2  C   UNL     1       2.985   4.685  19.494  0.00  0.00    +0.000 A 
ATOM      3  C   UNL     1       2.169   5.498  20.319  0.00  0.00    +0.000 A 
ATOM      4  C   UNL     1       2.240   6.767  19.801  0.00  0.00    +0.000 A 
ATOM      5  O   UNL     1       3.007   6.761  18.682  0.00  0.00    +0.000 OA
ENDROOT
BRANCH   4   6
ATOM      6  C   UNL     1       1.691   8.043  20.222  0.00  0.00    +0.000 A 
ATOM      7  C   UNL     1       1.296   8.344  21.536  0.00  0.00    +0.000 A 
ATOM      8  C   UNL     1       0.724   9.592  21.850  0.00  0.00    +0.000 A 
ATOM      9  C   UNL     1       0.605  10.574  20.857  0.00  0.00    +0.000 A 
ATOM     10  C   UNL     1       0.923  10.249  19.532  0.00  0.00    +0.000 A 
ATOM     11  C   UNL     1       1.487   9.011  19.234  0.00  0.00    +0.000 A 
BRANCH   9  12
ATOM     12  S   UNL     1       0.033  12.234  21.278  0.00  0.00    +0.000 S 
ATOM     13  O   UNL     1      -0.826  12.108  22.421  0.00  0.00    +0.000 OA
ATOM     14  O   UNL     1       1.209  13.095  21.348  0.00  0.00    +0.000 OA
BRANCH  12  15
ATOM     15  N   UNL     1      -0.966  12.779  19.975  0.00  0.00    +0.000 NA
ATOM     16  C   UNL     1      -0.395  13.612  18.876  0.00  0.00    +0.000 C 
ATOM     17  C   UNL     1      -0.168  15.071  19.293  0.00  0.00    +0.000 C 
ATOM     18  O   UNL     1      -1.294  15.681  19.950  0.00  0.00    +0.000 OA
ATOM     19  C   UNL     1      -2.013  14.868  20.897  0.00  0.00    +0.000 C 
ATOM     20  C   UNL     1      -2.257  13.431  20.414  0.00  0.00    +0.000 C 
ENDBRANCH  12  15
ENDBRANCH   9  12
ENDBRANCH   4   6
BRANCH   1  22
ATOM     21  C   UNL     1       5.718   5.057  17.579  0.00  0.00    +0.000 C 
ATOM     22  C   UNL     1       4.387   5.150  17.424  0.00  0.00    +0.000 C 
BRANCH  21  24
ATOM     23  N   UNL     1       5.931   4.681  15.172  0.00  0.00    +0.000 N 
ATOM     24  C   UNL     1       6.563   4.736  16.381  0.00  0.00    +0.000 C 
ATOM     25  O   UNL     1       7.795   4.529  16.510  0.00  0.00    +0.000 OA
ATOM     26  H   UNL     1       4.908   4.804  15.070  0.00  0.00    +0.000 HD
BRANCH  23  27
ATOM     27  C   UNL     1       6.648   4.369  13.940  0.00  0.00    +0.000 C 
BRANCH  27  28
ATOM     28  C   UNL     1       5.772   3.624  12.924  0.00  0.00    +0.000 C 
BRANCH  28  30
ATOM     29  C   UNL     1       5.916   1.679  11.326  0.00  0.00    +0.000 C 
ATOM     30  C   UNL     1       6.601   2.937  11.838  0.00  0.00    +0.000 C 
ENDBRANCH  28  30
ENDBRANCH  27  28
ENDBRANCH  23  27
ENDBRANCH  21  24
BRANCH  21  31
ATOM     31  C   UNL     1       6.392   5.266  18.789  0.00  0.00    +0.000 C 
ATOM     32  N   UNL     1       7.009   5.376  19.775  0.00  0.00    +0.000 NA
ENDBRANCH  21  31
ENDBRANCH   1  22
TORSDOF 9
ENDMDL
MODEL 8
REMARK VINA RESULT:      -7.9      1.381      2.281
REMARK  Name = 
REMARK  10 active torsions:
REMARK  status: ('A' for Active; 'I' for Inactive)
REMARK    1  A    between atoms: C_1  and  C_2
REMARK    2  A    between atoms: C_2  and  C_3
REMARK    3  A    between atoms: C_3  and  C_4
REMARK    4  A    between atoms: C_4  and  N_5
REMARK    5  A    between atoms: C_6  and  C_8
REMARK    6  A    between atoms: C_8  and  C_9
REMARK    7  A    between atoms: C_11  and  C_12
REMARK    8  A    between atoms: C_15  and  C_16
REMARK    9  A    between atoms: C_19  and  S_20
REMARK   10  A    between atoms: S_20  and  N_23
REMARK                            x       y       z     vdW  Elec       q    Type
REMARK                         _______ _______ _______ _____ _____    ______ ____
ROOT
ATOM      1  C   UNL     1       4.110   5.475  17.706  0.00  0.00    +0.000 A 
ATOM      2  C   UNL     1       4.065   4.901  18.971  0.00  0.00    +0.000 A 
ATOM      3  C   UNL     1       3.233   5.715  19.780  0.00  0.00    +0.000 A 
ATOM      4  C   UNL     1       2.826   6.758  18.986  0.00  0.00    +0.000 A 
ATOM      5  O   UNL     1       3.317   6.597  17.732  0.00  0.00    +0.000 OA
ENDROOT
BRANCH   4   6
ATOM      6  C   UNL     1       2.026   7.943  19.239  0.00  0.00    +0.000 A 
ATOM      7  C   UNL     1       1.507   8.299  20.495  0.00  0.00    +0.000 A 
ATOM      8  C   UNL     1       0.696   9.442  20.643  0.00  0.00    +0.000 A 
ATOM      9  C   UNL     1       0.456  10.274  19.542  0.00  0.00    +0.000 A 
ATOM     10  C   UNL     1       0.905   9.879  18.275  0.00  0.00    +0.000 A 
ATOM     11  C   UNL     1       1.705   8.747  18.141  0.00  0.00    +0.000 A 
BRANCH   9  12
ATOM     12  S   UNL     1      -0.436  11.830  19.750  0.00  0.00    +0.000 S 
ATOM     13  O   UNL     1      -0.713  12.338  18.436  0.00  0.00    +0.000 OA
ATOM     14  O   UNL     1      -1.536  11.581  20.676  0.00  0.00    +0.000 OA
BRANCH  12  15
ATOM     15  N   UNL     1       0.655  12.952  20.486  0.00  0.00    +0.000 NA
ATOM     16  C   UNL     1       0.235  14.361  20.748  0.00  0.00    +0.000 C 
ATOM     17  C   UNL     1       0.225  15.224  19.479  0.00  0.00    +0.000 C 
ATOM     18  O   UNL     1       1.420  15.119  18.684  0.00  0.00    +0.000 OA
ATOM     19  C   UNL     1       1.992  13.805  18.538  0.00  0.00    +0.000 C 
ATOM     20  C   UNL     1       2.023  12.999  19.845  0.00  0.00    +0.000 C 
ENDBRANCH  12  15
ENDBRANCH   9  12
ENDBRANCH   4   6
BRANCH   1  22
ATOM     21  C   UNL     1       6.070   5.444  16.263  0.00  0.00    +0.000 C 
ATOM     22  C   UNL     1       4.820   5.043  16.547  0.00  0.00    +0.000 C 
BRANCH  21  24
ATOM     23  N   UNL     1       6.057   3.989  14.297  0.00  0.00    +0.000 N 
ATOM     24  C   UNL     1       6.709   4.967  14.991  0.00  0.00    +0.000 C 
ATOM     25  O   UNL     1       7.797   5.461  14.603  0.00  0.00    +0.000 OA
ATOM     26  H   UNL     1       5.185   3.548  14.639  0.00  0.00    +0.000 HD
BRANCH  23  27
ATOM     27  C   UNL     1       6.587   3.441  13.053  0.00  0.00    +0.000 C 
BRANCH  27  28
ATOM     28  C   UNL     1       5.497   3.233  11.992  0.00  0.00    +0.000 C 
BRANCH  28  30
ATOM     29  C   UNL     1       6.915   1.472  10.877  0.00  0.00    +0.000 C 
ATOM     30  C   UNL     1       5.531   1.825  11.396  0.00  0.00    +0.000 C 
ENDBRANCH  28  30
ENDBRANCH  27  28
ENDBRANCH  23  27
ENDBRANCH  21  24
BRANCH  21  31
ATOM     31  C   UNL     1       6.826   6.310  17.062  0.00  0.00    +0.000 C 
ATOM     32  N   UNL     1       7.527   6.986  17.708  0.00  0.00    +0.000 NA
ENDBRANCH  21  31
ENDBRANCH   1  22
TORSDOF 9
ENDMDL
MODEL 9
REMARK VINA RESULT:      -7.7      1.425      1.842
REMARK  Name = 
REMARK  10 active torsions:
REMARK  status: ('A' for Active; 'I' for Inactive)
REMARK    1  A    between atoms: C_1  and  C_2
REMARK    2  A    between atoms: C_2  and  C_3
REMARK    3  A    between atoms: C_3  and  C_4
REMARK    4  A    between atoms: C_4  and  N_5
REMARK    5  A    between atoms: C_6  and  C_8
REMARK    6  A    between atoms: C_8  and  C_9
REMARK    7  A    between atoms: C_11  and  C_12
REMARK    8  A    between atoms: C_15  and  C_16
REMARK    9  A    between atoms: C_19  and  S_20
REMARK   10  A    between atoms: S_20  and  N_23
REMARK                            x       y       z     vdW  Elec       q    Type
REMARK                         _______ _______ _______ _____ _____    ______ ____
ROOT
ATOM      1  C   UNL     1       4.209   4.900  17.188  0.00  0.00    +0.000 A 
ATOM      2  C   UNL     1       3.991   4.092  18.297  0.00  0.00    +0.000 A 
ATOM      3  C   UNL     1       3.204   4.831  19.216  0.00  0.00    +0.000 A 
ATOM      4  C   UNL     1       2.996   6.060  18.643  0.00  0.00    +0.000 A 
ATOM      5  O   UNL     1       3.563   6.093  17.412  0.00  0.00    +0.000 OA
ENDROOT
BRANCH   4   6
ATOM      6  C   UNL     1       2.333   7.268  19.101  0.00  0.00    +0.000 A 
ATOM      7  C   UNL     1       2.123   8.409  18.307  0.00  0.00    +0.000 A 
ATOM      8  C   UNL     1       1.516   9.560  18.845  0.00  0.00    +0.000 A 
ATOM      9  C   UNL     1       1.053   9.552  20.168  0.00  0.00    +0.000 A 
ATOM     10  C   UNL     1       1.332   8.447  20.982  0.00  0.00    +0.000 A 
ATOM     11  C   UNL     1       1.934   7.315  20.440  0.00  0.00    +0.000 A 
BRANCH   9  12
ATOM     12  S   UNL     1       0.121  10.954  20.819  0.00  0.00    +0.000 S 
ATOM     13  O   UNL     1      -0.850  10.428  21.736  0.00  0.00    +0.000 OA
ATOM     14  O   UNL     1       1.089  11.944  21.278  0.00  0.00    +0.000 OA
BRANCH  12  15
ATOM     15  N   UNL     1      -0.771  11.633  19.501  0.00  0.00    +0.000 NA
ATOM     16  C   UNL     1      -0.156  12.669  18.619  0.00  0.00    +0.000 C 
ATOM     17  C   UNL     1      -0.100  14.054  19.277  0.00  0.00    +0.000 C 
ATOM     18  O   UNL     1      -1.339  14.473  19.877  0.00  0.00    +0.000 OA
ATOM     19  C   UNL     1      -2.086  13.474  20.595  0.00  0.00    +0.000 C 
ATOM     20  C   UNL     1      -2.154  12.120  19.874  0.00  0.00    +0.000 C 
ENDBRANCH  12  15
ENDBRANCH   9  12
ENDBRANCH   4   6
BRANCH   1  22
ATOM     21  C   UNL     1       6.097   5.246  15.692  0.00  0.00    +0.000 C 
ATOM     22  C   UNL     1       4.950   4.620  16.002  0.00  0.00    +0.000 C 
BRANCH  21  24
ATOM     23  N   UNL     1       6.135   4.030  13.570  0.00  0.00    +0.000 N 
ATOM     24  C   UNL     1       6.774   4.911  14.394  0.00  0.00    +0.000 C 
ATOM     25  O   UNL     1       7.880   5.429  14.102  0.00  0.00    +0.000 OA
ATOM     26  H   UNL     1       5.246   3.565  13.830  0.00  0.00    +0.000 HD
BRANCH  23  27
ATOM     27  C   UNL     1       6.701   3.622  12.288  0.00  0.00    +0.000 C 
BRANCH  27  28
ATOM     28  C   UNL     1       6.290   2.198  11.892  0.00  0.00    +0.000 C 
BRANCH  28  30
ATOM     29  C   UNL     1       4.234   3.502  11.238  0.00  0.00    +0.000 C 
ATOM     30  C   UNL     1       4.953   2.165  11.151  0.00  0.00    +0.000 C 
ENDBRANCH  28  30
ENDBRANCH  27  28
ENDBRANCH  23  27
ENDBRANCH  21  24
BRANCH  21  31
ATOM     31  C   UNL     1       6.707   6.225  16.487  0.00  0.00    +0.000 C 
ATOM     32  N   UNL     1       7.290   7.026  17.106  0.00  0.00    +0.000 NA
ENDBRANCH  21  31
ENDBRANCH   1  22
TORSDOF 9
ENDMDL
