MODEL 1
REMARK VINA RESULT:      -5.2      0.000      0.000
REMARK  Name = 
REMARK  5 active torsions:
REMARK  status: ('A' for Active; 'I' for Inactive)
REMARK    1  A    between atoms: O_1  and  C_2
REMARK    2  A    between atoms: C_2  and  C_3
REMARK    3  A    between atoms: C_3  and  O_4
REMARK    4  A    between atoms: O_4  and  C_5
REMARK    5  A    between atoms: C_5  and  N_6
REMARK                            x       y       z     vdW  Elec       q    Type
REMARK                         _______ _______ _______ _____ _____    ______ ____
ROOT
ATOM      1  N   UNL     1       5.370   4.817  16.813  0.00  0.00    +0.000 N 
ATOM      2  C   UNL     1       6.303   4.979  15.825  0.00  0.00    +0.000 A 
ATOM      3 CL   UNL     1       6.159   4.204  14.315  0.00  0.00    +0.000 Cl
ATOM      4  N   UNL     1       7.291   5.766  16.172  0.00  0.00    +0.000 NA
ATOM      5  C   UNL     1       7.018   6.114  17.471  0.00  0.00    +0.000 A 
ATOM      6 CL   UNL     1       8.043   7.126  18.376  0.00  0.00    +0.000 Cl
ATOM      7  C   UNL     1       5.843   5.530  17.881  0.00  0.00    +0.000 A 
ATOM      8 CL   UNL     1       5.017   5.568  19.368  0.00  0.00    +0.000 Cl
ENDROOT
BRANCH   1   9
ATOM      9  C   UNL     1       4.143   4.054  16.732  0.00  0.00    +0.000 C 
BRANCH   9  10
ATOM     10  O   UNL     1       4.369   2.803  17.371  0.00  0.00    +0.000 OA
BRANCH  10  11
ATOM     11  C   UNL     1       3.248   2.408  18.159  0.00  0.00    +0.000 C 
BRANCH  11  12
ATOM     12  C   UNL     1       3.682   2.287  19.616  0.00  0.00    +0.000 C 
BRANCH  12  13
ATOM     13  O   UNL     1       5.095   2.156  19.698  0.00  0.00    +0.000 OA
ATOM     14  H   UNL     1       5.429   2.139  18.782  0.00  0.00    +0.000 HD
ENDBRANCH  12  13
ENDBRANCH  11  12
ENDBRANCH  10  11
ENDBRANCH   9  10
ENDBRANCH   1   9
TORSDOF 5
ENDMDL
MODEL 2
REMARK VINA RESULT:      -5.2      2.865      4.603
REMARK  Name = 
REMARK  5 active torsions:
REMARK  status: ('A' for Active; 'I' for Inactive)
REMARK    1  A    between atoms: O_1  and  C_2
REMARK    2  A    between atoms: C_2  and  C_3
REMARK    3  A    between atoms: C_3  and  O_4
REMARK    4  A    between atoms: O_4  and  C_5
REMARK    5  A    between atoms: C_5  and  N_6
REMARK                            x       y       z     vdW  Elec       q    Type
REMARK                         _______ _______ _______ _____ _____    ______ ____
ROOT
ATOM      1  N   UNL     1       4.094   4.504  18.145  0.00  0.00    +0.000 N 
ATOM      2  C   UNL     1       3.449   5.710  18.147  0.00  0.00    +0.000 A 
ATOM      3 CL   UNL     1       4.113   7.089  17.400  0.00  0.00    +0.000 Cl
ATOM      4  N   UNL     1       2.302   5.681  18.780  0.00  0.00    +0.000 NA
ATOM      5  C   UNL     1       2.200   4.397  19.255  0.00  0.00    +0.000 A 
ATOM      6 CL   UNL     1       0.870   3.871  20.175  0.00  0.00    +0.000 Cl
ATOM      7  C   UNL     1       3.300   3.665  18.878  0.00  0.00    +0.000 A 
ATOM      8 CL   UNL     1       3.745   2.051  19.184  0.00  0.00    +0.000 Cl
ENDROOT
BRANCH   1   9
ATOM      9  C   UNL     1       5.349   4.191  17.495  0.00  0.00    +0.000 C 
BRANCH   9  10
ATOM     10  O   UNL     1       6.365   4.202  18.490  0.00  0.00    +0.000 OA
BRANCH  10  11
ATOM     11  C   UNL     1       7.520   4.915  18.052  0.00  0.00    +0.000 C 
BRANCH  11  12
ATOM     12  C   UNL     1       7.840   6.013  19.061  0.00  0.00    +0.000 C 
BRANCH  12  13
ATOM     13  O   UNL     1       7.910   5.469  20.372  0.00  0.00    +0.000 OA
ATOM     14  H   UNL     1       7.676   4.525  20.298  0.00  0.00    +0.000 HD
ENDBRANCH  12  13
ENDBRANCH  11  12
ENDBRANCH  10  11
ENDBRANCH   9  10
ENDBRANCH   1   9
TORSDOF 5
ENDMDL
MODEL 3
REMARK VINA RESULT:      -5.1      2.783      4.744
REMARK  Name = 
REMARK  5 active torsions:
REMARK  status: ('A' for Active; 'I' for Inactive)
REMARK    1  A    between atoms: O_1  and  C_2
REMARK    2  A    between atoms: C_2  and  C_3
REMARK    3  A    between atoms: C_3  and  O_4
REMARK    4  A    between atoms: O_4  and  C_5
REMARK    5  A    between atoms: C_5  and  N_6
REMARK                            x       y       z     vdW  Elec       q    Type
REMARK                         _______ _______ _______ _____ _____    ______ ____
ROOT
ATOM      1  N   UNL     1       4.350   4.751  18.836  0.00  0.00    +0.000 N 
ATOM      2  C   UNL     1       3.511   5.506  18.062  0.00  0.00    +0.000 A 
ATOM      3 CL   UNL     1       3.972   7.031  17.459  0.00  0.00    +0.000 Cl
ATOM      4  N   UNL     1       2.348   4.940  17.856  0.00  0.00    +0.000 NA
ATOM      5  C   UNL     1       2.404   3.765  18.563  0.00  0.00    +0.000 A 
ATOM      6 CL   UNL     1       1.099   2.676  18.621  0.00  0.00    +0.000 Cl
ATOM      7  C   UNL     1       3.627   3.640  19.177  0.00  0.00    +0.000 A 
ATOM      8 CL   UNL     1       4.267   2.434  20.192  0.00  0.00    +0.000 Cl
ENDROOT
BRANCH   1   9
ATOM      9  C   UNL     1       5.713   5.069  19.205  0.00  0.00    +0.000 C 
BRANCH   9  10
ATOM     10  O   UNL     1       6.569   4.178  18.501  0.00  0.00    +0.000 OA
BRANCH  10  11
ATOM     11  C   UNL     1       7.413   4.877  17.588  0.00  0.00    +0.000 C 
BRANCH  11  12
ATOM     12  C   UNL     1       6.902   4.658  16.168  0.00  0.00    +0.000 C 
BRANCH  12  13
ATOM     13  O   UNL     1       7.585   5.514  15.263  0.00  0.00    +0.000 OA
ATOM     14  H   UNL     1       8.313   5.928  15.763  0.00  0.00    +0.000 HD
ENDBRANCH  12  13
ENDBRANCH  11  12
ENDBRANCH  10  11
ENDBRANCH   9  10
ENDBRANCH   1   9
TORSDOF 5
ENDMDL
MODEL 4
REMARK VINA RESULT:      -5.1      1.886      3.116
REMARK  Name = 
REMARK  5 active torsions:
REMARK  status: ('A' for Active; 'I' for Inactive)
REMARK    1  A    between atoms: O_1  and  C_2
REMARK    2  A    between atoms: C_2  and  C_3
REMARK    3  A    between atoms: C_3  and  O_4
REMARK    4  A    between atoms: O_4  and  C_5
REMARK    5  A    between atoms: C_5  and  N_6
REMARK                            x       y       z     vdW  Elec       q    Type
REMARK                         _______ _______ _______ _____ _____    ______ ____
ROOT
ATOM      1  N   UNL     1       5.845   4.517  18.063  0.00  0.00    +0.000 N 
ATOM      2  C   UNL     1       7.129   4.936  17.845  0.00  0.00    +0.000 A 
ATOM      3 CL   UNL     1       8.091   5.576  19.097  0.00  0.00    +0.000 Cl
ATOM      4  N   UNL     1       7.513   4.801  16.600  0.00  0.00    +0.000 NA
ATOM      5  C   UNL     1       6.413   4.301  15.950  0.00  0.00    +0.000 A 
ATOM      6 CL   UNL     1       6.414   3.972  14.281  0.00  0.00    +0.000 Cl
ATOM      7  C   UNL     1       5.377   4.129  16.837  0.00  0.00    +0.000 A 
ATOM      8 CL   UNL     1       3.782   3.577  16.622  0.00  0.00    +0.000 Cl
ENDROOT
BRANCH   1   9
ATOM      9  C   UNL     1       5.143   4.488  19.328  0.00  0.00    +0.000 C 
BRANCH   9  10
ATOM     10  O   UNL     1       5.027   3.128  19.726  0.00  0.00    +0.000 OA
BRANCH  10  11
ATOM     11  C   UNL     1       3.694   2.809  20.120  0.00  0.00    +0.000 C 
BRANCH  11  12
ATOM     12  C   UNL     1       2.886   4.098  20.233  0.00  0.00    +0.000 C 
BRANCH  12  13
ATOM     13  O   UNL     1       1.991   4.021  21.335  0.00  0.00    +0.000 OA
ATOM     14  H   UNL     1       1.821   3.074  21.493  0.00  0.00    +0.000 HD
ENDBRANCH  12  13
ENDBRANCH  11  12
ENDBRANCH  10  11
ENDBRANCH   9  10
ENDBRANCH   1   9
TORSDOF 5
ENDMDL
MODEL 5
REMARK VINA RESULT:      -5.1      1.522      2.853
REMARK  Name = 
REMARK  5 active torsions:
REMARK  status: ('A' for Active; 'I' for Inactive)
REMARK    1  A    between atoms: O_1  and  C_2
REMARK    2  A    between atoms: C_2  and  C_3
REMARK    3  A    between atoms: C_3  and  O_4
REMARK    4  A    between atoms: O_4  and  C_5
REMARK    5  A    between atoms: C_5  and  N_6
REMARK                            x       y       z     vdW  Elec       q    Type
REMARK                         _______ _______ _______ _____ _____    ______ ____
ROOT
ATOM      1  N   UNL     1       6.003   5.382  17.515  0.00  0.00    +0.000 N 
ATOM      2  C   UNL     1       7.133   6.060  17.147  0.00  0.00    +0.000 A 
ATOM      3 CL   UNL     1       7.941   7.110  18.217  0.00  0.00    +0.000 Cl
ATOM      4  N   UNL     1       7.501   5.821  15.913  0.00  0.00    +0.000 NA
ATOM      5  C   UNL     1       6.542   4.968  15.424  0.00  0.00    +0.000 A 
ATOM      6 CL   UNL     1       6.575   4.382  13.828  0.00  0.00    +0.000 Cl
ATOM      7  C   UNL     1       5.610   4.697  16.397  0.00  0.00    +0.000 A 
ATOM      8 CL   UNL     1       4.199   3.747  16.380  0.00  0.00    +0.000 Cl
ENDROOT
BRANCH   1   9
ATOM      9  C   UNL     1       5.369   5.391  18.816  0.00  0.00    +0.000 C 
BRANCH   9  10
ATOM     10  O   UNL     1       5.493   4.085  19.365  0.00  0.00    +0.000 OA
BRANCH  10  11
ATOM     11  C   UNL     1       4.233   3.578  19.798  0.00  0.00    +0.000 C 
BRANCH  11  12
ATOM     12  C   UNL     1       4.368   2.086  20.086  0.00  0.00    +0.000 C 
BRANCH  12  13
ATOM     13  O   UNL     1       4.404   1.353  18.868  0.00  0.00    +0.000 OA
ATOM     14  H   UNL     1       4.984   0.585  19.019  0.00  0.00    +0.000 HD
ENDBRANCH  12  13
ENDBRANCH  11  12
ENDBRANCH  10  11
ENDBRANCH   9  10
ENDBRANCH   1   9
TORSDOF 5
ENDMDL
MODEL 6
REMARK VINA RESULT:      -5.1      2.419      3.043
REMARK  Name = 
REMARK  5 active torsions:
REMARK  status: ('A' for Active; 'I' for Inactive)
REMARK    1  A    between atoms: O_1  and  C_2
REMARK    2  A    between atoms: C_2  and  C_3
REMARK    3  A    between atoms: C_3  and  O_4
REMARK    4  A    between atoms: O_4  and  C_5
REMARK    5  A    between atoms: C_5  and  N_6
REMARK                            x       y       z     vdW  Elec       q    Type
REMARK                         _______ _______ _______ _____ _____    ______ ____
ROOT
ATOM      1  N   UNL     1       4.609   4.386  17.820  0.00  0.00    +0.000 N 
ATOM      2  C   UNL     1       5.180   3.930  18.977  0.00  0.00    +0.000 A 
ATOM      3 CL   UNL     1       4.493   2.661  19.880  0.00  0.00    +0.000 Cl
ATOM      4  N   UNL     1       6.275   4.572  19.301  0.00  0.00    +0.000 NA
ATOM      5  C   UNL     1       6.417   5.529  18.327  0.00  0.00    +0.000 A 
ATOM      6 CL   UNL     1       7.703   6.642  18.327  0.00  0.00    +0.000 Cl
ATOM      7  C   UNL     1       5.394   5.430  17.414  0.00  0.00    +0.000 A 
ATOM      8 CL   UNL     1       5.024   6.342  16.026  0.00  0.00    +0.000 Cl
ENDROOT
BRANCH   1   9
ATOM      9  C   UNL     1       3.428   3.861  17.168  0.00  0.00    +0.000 C 
BRANCH   9  10
ATOM     10  O   UNL     1       2.303   4.559  17.689  0.00  0.00    +0.000 OA
BRANCH  10  11
ATOM     11  C   UNL     1       1.378   3.669  18.311  0.00  0.00    +0.000 C 
BRANCH  11  12
ATOM     12  C   UNL     1       1.171   4.099  19.760  0.00  0.00    +0.000 C 
BRANCH  12  13
ATOM     13  O   UNL     1       0.664   3.014  20.525  0.00  0.00    +0.000 OA
ATOM     14  H   UNL     1      -0.287   2.944  20.319  0.00  0.00    +0.000 HD
ENDBRANCH  12  13
ENDBRANCH  11  12
ENDBRANCH  10  11
ENDBRANCH   9  10
ENDBRANCH   1   9
TORSDOF 5
ENDMDL
MODEL 7
REMARK VINA RESULT:      -5.1      3.361      5.219
REMARK  Name = 
REMARK  5 active torsions:
REMARK  status: ('A' for Active; 'I' for Inactive)
REMARK    1  A    between atoms: O_1  and  C_2
REMARK    2  A    between atoms: C_2  and  C_3
REMARK    3  A    between atoms: C_3  and  O_4
REMARK    4  A    between atoms: O_4  and  C_5
REMARK    5  A    between atoms: C_5  and  N_6
REMARK                            x       y       z     vdW  Elec       q    Type
REMARK                         _______ _______ _______ _____ _____    ______ ____
ROOT
ATOM      1  N   UNL     1       3.912   4.528  19.436  0.00  0.00    +0.000 N 
ATOM      2  C   UNL     1       2.871   5.409  19.543  0.00  0.00    +0.000 A 
ATOM      3 CL   UNL     1       2.938   6.970  18.865  0.00  0.00    +0.000 Cl
ATOM      4  N   UNL     1       1.854   4.928  20.215  0.00  0.00    +0.000 NA
ATOM      5  C   UNL     1       2.259   3.676  20.607  0.00  0.00    +0.000 A 
ATOM      6 CL   UNL     1       1.271   2.651  21.538  0.00  0.00    +0.000 Cl
ATOM      7  C   UNL     1       3.526   3.421  20.140  0.00  0.00    +0.000 A 
ATOM      8 CL   UNL     1       4.549   2.074  20.321  0.00  0.00    +0.000 Cl
ENDROOT
BRANCH   1   9
ATOM      9  C   UNL     1       5.153   4.734  18.720  0.00  0.00    +0.000 C 
BRANCH   9  10
ATOM     10  O   UNL     1       6.139   5.124  19.668  0.00  0.00    +0.000 OA
BRANCH  10  11
ATOM     11  C   UNL     1       7.332   5.571  19.029  0.00  0.00    +0.000 C 
BRANCH  11  12
ATOM     12  C   UNL     1       7.288   5.174  17.557  0.00  0.00    +0.000 C 
BRANCH  12  13
ATOM     13  O   UNL     1       8.191   4.104  17.311  0.00  0.00    +0.000 OA
ATOM     14  H   UNL     1       7.697   3.429  16.810  0.00  0.00    +0.000 HD
ENDBRANCH  12  13
ENDBRANCH  11  12
ENDBRANCH  10  11
ENDBRANCH   9  10
ENDBRANCH   1   9
TORSDOF 5
ENDMDL
MODEL 8
REMARK VINA RESULT:      -5.0      1.790      3.107
REMARK  Name = 
REMARK  5 active torsions:
REMARK  status: ('A' for Active; 'I' for Inactive)
REMARK    1  A    between atoms: O_1  and  C_2
REMARK    2  A    between atoms: C_2  and  C_3
REMARK    3  A    between atoms: C_3  and  O_4
REMARK    4  A    between atoms: O_4  and  C_5
REMARK    5  A    between atoms: C_5  and  N_6
REMARK                            x       y       z     vdW  Elec       q    Type
REMARK                         _______ _______ _______ _____ _____    ______ ____
ROOT
ATOM      1  N   UNL     1       5.964   5.394  17.578  0.00  0.00    +0.000 N 
ATOM      2  C   UNL     1       7.125   6.031  17.236  0.00  0.00    +0.000 A 
ATOM      3 CL   UNL     1       7.961   7.030  18.334  0.00  0.00    +0.000 Cl
ATOM      4  N   UNL     1       7.500   5.797  16.003  0.00  0.00    +0.000 NA
ATOM      5  C   UNL     1       6.514   4.992  15.488  0.00  0.00    +0.000 A 
ATOM      6 CL   UNL     1       6.545   4.430  13.883  0.00  0.00    +0.000 Cl
ATOM      7  C   UNL     1       5.558   4.743  16.445  0.00  0.00    +0.000 A 
ATOM      8 CL   UNL     1       4.111   3.851  16.394  0.00  0.00    +0.000 Cl
ENDROOT
BRANCH   1   9
ATOM      9  C   UNL     1       5.313   5.407  18.871  0.00  0.00    +0.000 C 
BRANCH   9  10
ATOM     10  O   UNL     1       5.393   4.093  19.408  0.00  0.00    +0.000 OA
BRANCH  10  11
ATOM     11  C   UNL     1       4.115   3.621  19.830  0.00  0.00    +0.000 C 
BRANCH  11  12
ATOM     12  C   UNL     1       3.135   4.789  19.849  0.00  0.00    +0.000 C 
BRANCH  12  13
ATOM     13  O   UNL     1       2.593   4.954  21.153  0.00  0.00    +0.000 OA
ATOM     14  H   UNL     1       2.661   5.902  21.368  0.00  0.00    +0.000 HD
ENDBRANCH  12  13
ENDBRANCH  11  12
ENDBRANCH  10  11
ENDBRANCH   9  10
ENDBRANCH   1   9
TORSDOF 5
ENDMDL
MODEL 9
REMARK VINA RESULT:      -5.0      2.769      4.719
REMARK  Name = 
REMARK  5 active torsions:
REMARK  status: ('A' for Active; 'I' for Inactive)
REMARK    1  A    between atoms: O_1  and  C_2
REMARK    2  A    between atoms: C_2  and  C_3
REMARK    3  A    between atoms: C_3  and  O_4
REMARK    4  A    between atoms: O_4  and  C_5
REMARK    5  A    between atoms: C_5  and  N_6
REMARK                            x       y       z     vdW  Elec       q    Type
REMARK                         _______ _______ _______ _____ _____    ______ ____
ROOT
ATOM      1  N   UNL     1       3.931   4.468  18.519  0.00  0.00    +0.000 N 
ATOM      2  C   UNL     1       3.774   3.902  17.283  0.00  0.00    +0.000 A 
ATOM      3 CL   UNL     1       4.866   4.201  16.011  0.00  0.00    +0.000 Cl
ATOM      4  N   UNL     1       2.714   3.138  17.195  0.00  0.00    +0.000 NA
ATOM      5  C   UNL     1       2.116   3.231  18.427  0.00  0.00    +0.000 A 
ATOM      6 CL   UNL     1       0.670   2.417  18.800  0.00  0.00    +0.000 Cl
ATOM      7  C   UNL     1       2.850   4.053  19.248  0.00  0.00    +0.000 A 
ATOM      8 CL   UNL     1       2.603   4.565  20.852  0.00  0.00    +0.000 Cl
ENDROOT
BRANCH   1   9
ATOM      9  C   UNL     1       5.018   5.318  18.953  0.00  0.00    +0.000 C 
BRANCH   9  10
ATOM     10  O   UNL     1       6.227   4.585  18.802  0.00  0.00    +0.000 OA
BRANCH  10  11
ATOM     11  C   UNL     1       7.358   5.450  18.717  0.00  0.00    +0.000 C 
BRANCH  11  12
ATOM     12  C   UNL     1       7.043   6.586  17.750  0.00  0.00    +0.000 C 
BRANCH  12  13
ATOM     13  O   UNL     1       7.554   6.286  16.458  0.00  0.00    +0.000 OA
ATOM     14  H   UNL     1       7.641   5.317  16.408  0.00  0.00    +0.000 HD
ENDBRANCH  12  13
ENDBRANCH  11  12
ENDBRANCH  10  11
ENDBRANCH   9  10
ENDBRANCH   1   9
TORSDOF 5
ENDMDL
