MODEL 1
REMARK VINA RESULT:      -7.8      0.000      0.000
REMARK  Name = 
REMARK  2 active torsions:
REMARK  status: ('A' for Active; 'I' for Inactive)
REMARK    1  A    between atoms: C_1  and  C_2
REMARK    2  A    between atoms: C_8  and  C_10
REMARK                            x       y       z     vdW  Elec       q    Type
REMARK                         _______ _______ _______ _____ _____    ______ ____
ROOT
ATOM      1  C   UNL     1       6.175   3.746  13.249  0.00  0.00    +0.000 C 
ATOM      2  C   UNL     1       6.080   4.305  14.641  0.00  0.00    +0.000 A 
ATOM      3  C   UNL     1       7.181   4.901  15.218  0.00  0.00    +0.000 A 
ATOM      4  C   UNL     1       6.997   5.408  16.478  0.00  0.00    +0.000 A 
ATOM      5  N   UNL     1       5.824   5.361  17.131  0.00  0.00    +0.000 NA
ATOM      6  C   UNL     1       4.800   4.775  16.505  0.00  0.00    +0.000 A 
ATOM      7  N   UNL     1       3.566   4.656  17.137  0.00  0.00    +0.000 N 
ATOM      8  C   UNL     1       3.186   5.325  18.280  0.00  0.00    +0.000 C 
ATOM      9  O   UNL     1       3.774   6.268  18.787  0.00  0.00    +0.000 OA
ATOM     10  N   UNL     1       4.885   4.212  15.284  0.00  0.00    +0.000 NA
ATOM     11  H   UNL     1       2.926   4.054  16.642  0.00  0.00    +0.000 HD
ENDROOT
BRANCH   8  12
ATOM     12  C   UNL     1       1.892   4.789  18.903  0.00  0.00    +0.000 C 
ATOM     13  C   UNL     1       1.754   5.187  20.380  0.00  0.00    +0.000 C 
ATOM     14  C   UNL     1       2.427   4.212  21.341  0.00  0.00    +0.000 C 
ATOM     15  C   UNL     1       1.903   2.807  21.126  0.00  0.00    +0.000 C 
ATOM     16  F   UNL     1       0.563   2.788  21.348  0.00  0.00    +0.000 F 
ATOM     17  F   UNL     1       2.456   1.967  22.032  0.00  0.00    +0.000 F 
ATOM     18  C   UNL     1       2.191   2.318  19.724  0.00  0.00    +0.000 C 
ATOM     19  C   UNL     1       1.673   3.278  18.647  0.00  0.00    +0.000 C 
ENDBRANCH   8  12
TORSDOF 1
ENDMDL
MODEL 2
REMARK VINA RESULT:      -7.7      3.654      6.292
REMARK  Name = 
REMARK  2 active torsions:
REMARK  status: ('A' for Active; 'I' for Inactive)
REMARK    1  A    between atoms: C_1  and  C_2
REMARK    2  A    between atoms: C_8  and  C_10
REMARK                            x       y       z     vdW  Elec       q    Type
REMARK                         _______ _______ _______ _____ _____    ______ ____
ROOT
ATOM      1  C   UNL     1      -0.319  10.085  23.124  0.00  0.00    +0.000 C 
ATOM      2  C   UNL     1       0.224   9.637  21.796  0.00  0.00    +0.000 A 
ATOM      3  C   UNL     1       0.063  10.437  20.685  0.00  0.00    +0.000 A 
ATOM      4  C   UNL     1       0.615   9.964  19.522  0.00  0.00    +0.000 A 
ATOM      5  N   UNL     1       1.292   8.807  19.440  0.00  0.00    +0.000 NA
ATOM      6  C   UNL     1       1.412   8.090  20.560  0.00  0.00    +0.000 A 
ATOM      7  N   UNL     1       2.067   6.862  20.542  0.00  0.00    +0.000 N 
ATOM      8  C   UNL     1       2.862   6.396  19.518  0.00  0.00    +0.000 C 
ATOM      9  O   UNL     1       3.284   7.058  18.581  0.00  0.00    +0.000 OA
ATOM     10  N   UNL     1       0.876   8.446  21.745  0.00  0.00    +0.000 NA
ATOM     11  H   UNL     1       1.951   6.340  21.396  0.00  0.00    +0.000 HD
ENDROOT
BRANCH   8  12
ATOM     12  C   UNL     1       3.217   4.910  19.644  0.00  0.00    +0.000 C 
ATOM     13  C   UNL     1       3.199   4.195  18.285  0.00  0.00    +0.000 C 
ATOM     14  C   UNL     1       1.825   3.664  17.891  0.00  0.00    +0.000 C 
ATOM     15  C   UNL     1       1.279   2.753  18.970  0.00  0.00    +0.000 C 
ATOM     16  F   UNL     1       2.122   1.702  19.140  0.00  0.00    +0.000 F 
ATOM     17  F   UNL     1       0.092   2.234  18.575  0.00  0.00    +0.000 F 
ATOM     18  C   UNL     1       1.111   3.486  20.282  0.00  0.00    +0.000 C 
ATOM     19  C   UNL     1       2.400   4.179  20.737  0.00  0.00    +0.000 C 
ENDBRANCH   8  12
TORSDOF 1
ENDMDL
MODEL 3
REMARK VINA RESULT:      -7.3      3.538      6.253
REMARK  Name = 
REMARK  2 active torsions:
REMARK  status: ('A' for Active; 'I' for Inactive)
REMARK    1  A    between atoms: C_1  and  C_2
REMARK    2  A    between atoms: C_8  and  C_10
REMARK                            x       y       z     vdW  Elec       q    Type
REMARK                         _______ _______ _______ _____ _____    ______ ____
ROOT
ATOM      1  C   UNL     1       0.572   2.103  18.877  0.00  0.00    +0.000 C 
ATOM      2  C   UNL     1       1.529   3.169  19.335  0.00  0.00    +0.000 A 
ATOM      3  C   UNL     1       1.283   3.855  20.505  0.00  0.00    +0.000 A 
ATOM      4  C   UNL     1       2.223   4.788  20.861  0.00  0.00    +0.000 A 
ATOM      5  N   UNL     1       3.334   5.030  20.146  0.00  0.00    +0.000 NA
ATOM      6  C   UNL     1       3.507   4.321  19.028  0.00  0.00    +0.000 A 
ATOM      7  N   UNL     1       4.615   4.546  18.217  0.00  0.00    +0.000 N 
ATOM      8  C   UNL     1       5.734   5.265  18.576  0.00  0.00    +0.000 C 
ATOM      9  O   UNL     1       6.020   5.628  19.708  0.00  0.00    +0.000 OA
ATOM     10  N   UNL     1       2.627   3.408  18.570  0.00  0.00    +0.000 NA
ATOM     11  H   UNL     1       4.554   4.079  17.327  0.00  0.00    +0.000 HD
ENDROOT
BRANCH   8  12
ATOM     12  C   UNL     1       6.661   5.587  17.399  0.00  0.00    +0.000 C 
ATOM     13  C   UNL     1       6.007   6.547  16.394  0.00  0.00    +0.000 C 
ATOM     14  C   UNL     1       5.171   5.843  15.331  0.00  0.00    +0.000 C 
ATOM     15  C   UNL     1       6.001   4.808  14.601  0.00  0.00    +0.000 C 
ATOM     16  F   UNL     1       7.053   5.420  13.998  0.00  0.00    +0.000 F 
ATOM     17  F   UNL     1       5.267   4.242  13.614  0.00  0.00    +0.000 F 
ATOM     18  C   UNL     1       6.509   3.741  15.544  0.00  0.00    +0.000 C 
ATOM     19  C   UNL     1       7.270   4.325  16.740  0.00  0.00    +0.000 C 
ENDBRANCH   8  12
TORSDOF 1
ENDMDL
MODEL 4
REMARK VINA RESULT:      -7.3      2.054      3.105
REMARK  Name = 
REMARK  2 active torsions:
REMARK  status: ('A' for Active; 'I' for Inactive)
REMARK    1  A    between atoms: C_1  and  C_2
REMARK    2  A    between atoms: C_8  and  C_10
REMARK                            x       y       z     vdW  Elec       q    Type
REMARK                         _______ _______ _______ _____ _____    ______ ____
ROOT
ATOM      1  C   UNL     1       5.442   2.621  11.661  0.00  0.00    +0.000 C 
ATOM      2  C   UNL     1       6.096   3.591  12.605  0.00  0.00    +0.000 A 
ATOM      3  C   UNL     1       7.264   4.225  12.237  0.00  0.00    +0.000 A 
ATOM      4  C   UNL     1       7.775   5.115  13.147  0.00  0.00    +0.000 A 
ATOM      5  N   UNL     1       7.190   5.388  14.324  0.00  0.00    +0.000 NA
ATOM      6  C   UNL     1       6.057   4.740  14.608  0.00  0.00    +0.000 A 
ATOM      7  N   UNL     1       5.416   4.945  15.826  0.00  0.00    +0.000 N 
ATOM      8  C   UNL     1       5.685   5.969  16.707  0.00  0.00    +0.000 C 
ATOM      9  O   UNL     1       6.358   6.961  16.469  0.00  0.00    +0.000 OA
ATOM     10  N   UNL     1       5.492   3.820  13.801  0.00  0.00    +0.000 NA
ATOM     11  H   UNL     1       4.674   4.286  15.997  0.00  0.00    +0.000 HD
ENDROOT
BRANCH   8  12
ATOM     12  C   UNL     1       5.032   5.784  18.082  0.00  0.00    +0.000 C 
ATOM     13  C   UNL     1       5.235   4.363  18.630  0.00  0.00    +0.000 C 
ATOM     14  C   UNL     1       4.168   3.373  18.172  0.00  0.00    +0.000 C 
ATOM     15  C   UNL     1       2.786   3.880  18.528  0.00  0.00    +0.000 C 
ATOM     16  F   UNL     1       2.696   4.031  19.875  0.00  0.00    +0.000 F 
ATOM     17  F   UNL     1       1.856   2.960  18.180  0.00  0.00    +0.000 F 
ATOM     18  C   UNL     1       2.488   5.198  17.849  0.00  0.00    +0.000 C 
ATOM     19  C   UNL     1       3.559   6.259  18.127  0.00  0.00    +0.000 C 
ENDBRANCH   8  12
TORSDOF 1
ENDMDL
MODEL 5
REMARK VINA RESULT:      -7.2      0.954      1.139
REMARK  Name = 
REMARK  2 active torsions:
REMARK  status: ('A' for Active; 'I' for Inactive)
REMARK    1  A    between atoms: C_1  and  C_2
REMARK    2  A    between atoms: C_8  and  C_10
REMARK                            x       y       z     vdW  Elec       q    Type
REMARK                         _______ _______ _______ _____ _____    ______ ____
ROOT
ATOM      1  C   UNL     1       6.463   3.713  12.461  0.00  0.00    +0.000 C 
ATOM      2  C   UNL     1       6.338   4.150  13.894  0.00  0.00    +0.000 A 
ATOM      3  C   UNL     1       7.322   4.932  14.461  0.00  0.00    +0.000 A 
ATOM      4  C   UNL     1       7.112   5.308  15.763  0.00  0.00    +0.000 A 
ATOM      5  N   UNL     1       6.019   4.969  16.465  0.00  0.00    +0.000 NA
ATOM      6  C   UNL     1       5.106   4.216  15.847  0.00  0.00    +0.000 A 
ATOM      7  N   UNL     1       3.966   3.794  16.525  0.00  0.00    +0.000 N 
ATOM      8  C   UNL     1       3.525   4.292  17.731  0.00  0.00    +0.000 C 
ATOM      9  O   UNL     1       3.930   5.307  18.279  0.00  0.00    +0.000 OA
ATOM     10  N   UNL     1       5.232   3.762  14.584  0.00  0.00    +0.000 NA
ATOM     11  H   UNL     1       3.439   3.101  16.018  0.00  0.00    +0.000 HD
ENDROOT
BRANCH   8  12
ATOM     12  C   UNL     1       2.414   3.452  18.373  0.00  0.00    +0.000 C 
ATOM     13  C   UNL     1       1.385   4.322  19.110  0.00  0.00    +0.000 C 
ATOM     14  C   UNL     1       1.765   4.627  20.555  0.00  0.00    +0.000 C 
ATOM     15  C   UNL     1       2.011   3.344  21.321  0.00  0.00    +0.000 C 
ATOM     16  F   UNL     1       0.880   2.592  21.314  0.00  0.00    +0.000 F 
ATOM     17  F   UNL     1       2.277   3.627  22.618  0.00  0.00    +0.000 F 
ATOM     18  C   UNL     1       3.150   2.551  20.722  0.00  0.00    +0.000 C 
ATOM     19  C   UNL     1       2.955   2.279  19.226  0.00  0.00    +0.000 C 
ENDBRANCH   8  12
TORSDOF 1
ENDMDL
MODEL 6
REMARK VINA RESULT:      -7.1      2.160      3.166
REMARK  Name = 
REMARK  2 active torsions:
REMARK  status: ('A' for Active; 'I' for Inactive)
REMARK    1  A    between atoms: C_1  and  C_2
REMARK    2  A    between atoms: C_8  and  C_10
REMARK                            x       y       z     vdW  Elec       q    Type
REMARK                         _______ _______ _______ _____ _____    ______ ____
ROOT
ATOM      1  C   UNL     1       8.548   5.484  20.562  0.00  0.00    +0.000 C 
ATOM      2  C   UNL     1       7.655   5.663  19.365  0.00  0.00    +0.000 A 
ATOM      3  C   UNL     1       7.963   6.614  18.416  0.00  0.00    +0.000 A 
ATOM      4  C   UNL     1       7.111   6.688  17.344  0.00  0.00    +0.000 A 
ATOM      5  N   UNL     1       6.043   5.889  17.190  0.00  0.00    +0.000 NA
ATOM      6  C   UNL     1       5.813   4.986  18.148  0.00  0.00    +0.000 A 
ATOM      7  N   UNL     1       4.703   4.150  18.074  0.00  0.00    +0.000 N 
ATOM      8  C   UNL     1       3.921   3.959  16.956  0.00  0.00    +0.000 C 
ATOM      9  O   UNL     1       4.196   4.315  15.819  0.00  0.00    +0.000 OA
ATOM     10  N   UNL     1       6.566   4.856  19.258  0.00  0.00    +0.000 NA
ATOM     11  H   UNL     1       4.540   3.634  18.924  0.00  0.00    +0.000 HD
ENDROOT
BRANCH   8  12
ATOM     12  C   UNL     1       2.614   3.211  17.242  0.00  0.00    +0.000 C 
ATOM     13  C   UNL     1       1.478   4.166  17.640  0.00  0.00    +0.000 C 
ATOM     14  C   UNL     1       1.436   4.476  19.133  0.00  0.00    +0.000 C 
ATOM     15  C   UNL     1       1.352   3.196  19.939  0.00  0.00    +0.000 C 
ATOM     16  F   UNL     1       0.222   2.524  19.599  0.00  0.00    +0.000 F 
ATOM     17  F   UNL     1       1.244   3.490  21.257  0.00  0.00    +0.000 F 
ATOM     18  C   UNL     1       2.557   2.314  19.704  0.00  0.00    +0.000 C 
ATOM     19  C   UNL     1       2.793   2.023  18.217  0.00  0.00    +0.000 C 
ENDBRANCH   8  12
TORSDOF 1
ENDMDL
MODEL 7
REMARK VINA RESULT:      -7.1      1.371      2.085
REMARK  Name = 
REMARK  2 active torsions:
REMARK  status: ('A' for Active; 'I' for Inactive)
REMARK    1  A    between atoms: C_1  and  C_2
REMARK    2  A    between atoms: C_8  and  C_10
REMARK                            x       y       z     vdW  Elec       q    Type
REMARK                         _______ _______ _______ _____ _____    ______ ____
ROOT
ATOM      1  C   UNL     1       6.359   3.466  12.174  0.00  0.00    +0.000 C 
ATOM      2  C   UNL     1       6.459   3.957  13.592  0.00  0.00    +0.000 A 
ATOM      3  C   UNL     1       7.377   4.933  13.916  0.00  0.00    +0.000 A 
ATOM      4  C   UNL     1       7.380   5.340  15.226  0.00  0.00    +0.000 A 
ATOM      5  N   UNL     1       6.542   4.853  16.155  0.00  0.00    +0.000 NA
ATOM      6  C   UNL     1       5.676   3.915  15.764  0.00  0.00    +0.000 A 
ATOM      7  N   UNL     1       4.804   3.336  16.681  0.00  0.00    +0.000 N 
ATOM      8  C   UNL     1       4.541   3.817  17.945  0.00  0.00    +0.000 C 
ATOM      9  O   UNL     1       4.856   4.918  18.373  0.00  0.00    +0.000 OA
ATOM     10  N   UNL     1       5.616   3.418  14.512  0.00  0.00    +0.000 NA
ATOM     11  H   UNL     1       4.321   2.532  16.314  0.00  0.00    +0.000 HD
ENDROOT
BRANCH   8  12
ATOM     12  C   UNL     1       3.768   2.832  18.829  0.00  0.00    +0.000 C 
ATOM     13  C   UNL     1       2.386   2.497  18.248  0.00  0.00    +0.000 C 
ATOM     14  C   UNL     1       1.293   3.475  18.667  0.00  0.00    +0.000 C 
ATOM     15  C   UNL     1       1.217   3.572  20.176  0.00  0.00    +0.000 C 
ATOM     16  F   UNL     1       0.931   2.349  20.691  0.00  0.00    +0.000 F 
ATOM     17  F   UNL     1       0.198   4.389  20.533  0.00  0.00    +0.000 F 
ATOM     18  C   UNL     1       2.515   4.079  20.764  0.00  0.00    +0.000 C 
ATOM     19  C   UNL     1       3.726   3.252  20.318  0.00  0.00    +0.000 C 
ENDBRANCH   8  12
TORSDOF 1
ENDMDL
MODEL 8
REMARK VINA RESULT:      -7.1      1.396      2.062
REMARK  Name = 
REMARK  2 active torsions:
REMARK  status: ('A' for Active; 'I' for Inactive)
REMARK    1  A    between atoms: C_1  and  C_2
REMARK    2  A    between atoms: C_8  and  C_10
REMARK                            x       y       z     vdW  Elec       q    Type
REMARK                         _______ _______ _______ _____ _____    ______ ____
ROOT
ATOM      1  C   UNL     1       5.276   3.696  12.954  0.00  0.00    +0.000 C 
ATOM      2  C   UNL     1       5.813   4.101  14.299  0.00  0.00    +0.000 A 
ATOM      3  C   UNL     1       7.041   4.720  14.389  0.00  0.00    +0.000 A 
ATOM      4  C   UNL     1       7.439   5.082  15.651  0.00  0.00    +0.000 A 
ATOM      5  N   UNL     1       6.695   4.876  16.749  0.00  0.00    +0.000 NA
ATOM      6  C   UNL     1       5.513   4.277  16.582  0.00  0.00    +0.000 A 
ATOM      7  N   UNL     1       4.705   3.998  17.680  0.00  0.00    +0.000 N 
ATOM      8  C   UNL     1       4.871   4.515  18.946  0.00  0.00    +0.000 C 
ATOM      9  O   UNL     1       5.603   5.446  19.249  0.00  0.00    +0.000 OA
ATOM     10  N   UNL     1       5.045   3.850  15.392  0.00  0.00    +0.000 NA
ATOM     11  H   UNL     1       3.925   3.401  17.454  0.00  0.00    +0.000 HD
ENDROOT
BRANCH   8  12
ATOM     12  C   UNL     1       4.017   3.819  20.011  0.00  0.00    +0.000 C 
ATOM     13  C   UNL     1       3.822   2.325  19.709  0.00  0.00    +0.000 C 
ATOM     14  C   UNL     1       2.632   2.035  18.800  0.00  0.00    +0.000 C 
ATOM     15  C   UNL     1       1.363   2.622  19.383  0.00  0.00    +0.000 C 
ATOM     16  F   UNL     1       1.130   2.068  20.601  0.00  0.00    +0.000 F 
ATOM     17  F   UNL     1       0.306   2.296  18.602  0.00  0.00    +0.000 F 
ATOM     18  C   UNL     1       1.460   4.125  19.520  0.00  0.00    +0.000 C 
ATOM     19  C   UNL     1       2.694   4.565  20.315  0.00  0.00    +0.000 C 
ENDBRANCH   8  12
TORSDOF 1
ENDMDL
MODEL 9
REMARK VINA RESULT:      -7.0      3.019      5.309
REMARK  Name = 
REMARK  2 active torsions:
REMARK  status: ('A' for Active; 'I' for Inactive)
REMARK    1  A    between atoms: C_1  and  C_2
REMARK    2  A    between atoms: C_8  and  C_10
REMARK                            x       y       z     vdW  Elec       q    Type
REMARK                         _______ _______ _______ _____ _____    ______ ____
ROOT
ATOM      1  C   UNL     1       0.513   9.373  21.562  0.00  0.00    +0.000 C 
ATOM      2  C   UNL     1       1.105   9.024  20.224  0.00  0.00    +0.000 A 
ATOM      3  C   UNL     1       0.981   9.902  19.169  0.00  0.00    +0.000 A 
ATOM      4  C   UNL     1       1.576   9.515  17.995  0.00  0.00    +0.000 A 
ATOM      5  N   UNL     1       2.259   8.368  17.854  0.00  0.00    +0.000 NA
ATOM      6  C   UNL     1       2.343   7.572  18.923  0.00  0.00    +0.000 A 
ATOM      7  N   UNL     1       3.003   6.350  18.840  0.00  0.00    +0.000 N 
ATOM      8  C   UNL     1       3.835   5.960  17.813  0.00  0.00    +0.000 C 
ATOM      9  O   UNL     1       4.288   6.688  16.942  0.00  0.00    +0.000 OA
ATOM     10  N   UNL     1       1.764   7.840  20.110  0.00  0.00    +0.000 NA
ATOM     11  H   UNL     1       2.858   5.767  19.649  0.00  0.00    +0.000 HD
ENDROOT
BRANCH   8  12
ATOM     12  C   UNL     1       4.192   4.470  17.844  0.00  0.00    +0.000 C 
ATOM     13  C   UNL     1       3.139   3.609  17.129  0.00  0.00    +0.000 C 
ATOM     14  C   UNL     1       1.983   3.183  18.029  0.00  0.00    +0.000 C 
ATOM     15  C   UNL     1       2.504   2.463  19.256  0.00  0.00    +0.000 C 
ATOM     16  F   UNL     1       3.190   1.357  18.870  0.00  0.00    +0.000 F 
ATOM     17  F   UNL     1       1.465   2.030  20.008  0.00  0.00    +0.000 F 
ATOM     18  C   UNL     1       3.403   3.355  20.081  0.00  0.00    +0.000 C 
ATOM     19  C   UNL     1       4.549   3.958  19.260  0.00  0.00    +0.000 C 
ENDBRANCH   8  12
TORSDOF 1
ENDMDL
