MODEL 1
REMARK VINA RESULT:      -6.9      0.000      0.000
REMARK  Name = 
REMARK  11 active torsions:
REMARK  status: ('A' for Active; 'I' for Inactive)
REMARK    1  A    between atoms: C_1  and  C_2
REMARK    2  A    between atoms: C_2  and  C_3
REMARK    3  A    between atoms: C_3  and  C_4
REMARK    4  A    between atoms: C_4  and  C_5
REMARK    5  A    between atoms: C_5  and  C_6
REMARK    6  A    between atoms: C_6  and  C_7
REMARK    7  A    between atoms: C_7  and  C_8
REMARK    8  A    between atoms: C_8  and  C_9
REMARK    9  A    between atoms: C_9  and  C_10
REMARK   10  A    between atoms: C_10  and  N_11
REMARK   11  A    between atoms: C_17  and  O_18
REMARK                            x       y       z     vdW  Elec       q    Type
REMARK                         _______ _______ _______ _____ _____    ______ ____
ROOT
ATOM      1  N   UNL     1       3.982   4.688  17.904  0.00  0.00    +0.000 N 
ATOM      2  C   UNL     1       3.861   5.998  17.583  0.00  0.00    +0.000 A 
ATOM      3  C   UNL     1       3.077   6.855  18.327  0.00  0.00    +0.000 A 
ATOM      4  C   UNL     1       2.398   6.361  19.430  0.00  0.00    +0.000 A 
ATOM      5  C   UNL     1       2.516   5.011  19.774  0.00  0.00    +0.000 A 
ATOM      6  C   UNL     1       1.862   4.504  20.910  0.00  0.00    +0.000 A 
ATOM      7  C   UNL     1       2.007   3.167  21.258  0.00  0.00    +0.000 A 
ATOM      8  C   UNL     1       2.766   2.308  20.480  0.00  0.00    +0.000 A 
ATOM      9  C   UNL     1       3.398   2.790  19.333  0.00  0.00    +0.000 A 
ATOM     10  C   UNL     1       3.317   4.149  18.974  0.00  0.00    +0.000 A 
ENDROOT
BRANCH   7  11
ATOM     11  O   UNL     1       1.421   2.643  22.367  0.00  0.00    +0.000 OA
ATOM     12  H   UNL     1       0.462   2.804  22.353  0.00  0.00    +0.000 HD
ENDBRANCH   7  11
BRANCH   1  13
ATOM     13  C   UNL     1       4.914   3.885  17.085  0.00  0.00    +0.000 C 
BRANCH  13  14
ATOM     14  C   UNL     1       6.307   4.501  17.138  0.00  0.00    +0.000 C 
BRANCH  14  15
ATOM     15  C   UNL     1       7.056   4.299  15.825  0.00  0.00    +0.000 C 
BRANCH  15  16
ATOM     16  C   UNL     1       6.182   4.646  14.623  0.00  0.00    +0.000 C 
BRANCH  16  17
ATOM     17  C   UNL     1       7.020   4.875  13.377  0.00  0.00    +0.000 C 
BRANCH  17  18
ATOM     18  C   UNL     1       6.716   3.799  12.341  0.00  0.00    +0.000 C 
BRANCH  18  19
ATOM     19  C   UNL     1       5.309   3.257  12.543  0.00  0.00    +0.000 C 
BRANCH  19  20
ATOM     20  C   UNL     1       4.697   2.831  11.214  0.00  0.00    +0.000 C 
BRANCH  20  22
ATOM     21  C   UNL     1       3.133   4.029   9.663  0.00  0.00    +0.000 C 
ATOM     22  C   UNL     1       3.303   3.427  11.046  0.00  0.00    +0.000 C 
ENDBRANCH  20  22
ENDBRANCH  19  20
ENDBRANCH  18  19
ENDBRANCH  17  18
ENDBRANCH  16  17
ENDBRANCH  15  16
ENDBRANCH  14  15
ENDBRANCH  13  14
ENDBRANCH   1  13
TORSDOF 10
ENDMDL
MODEL 2
REMARK VINA RESULT:      -6.9      3.518      5.865
REMARK  Name = 
REMARK  11 active torsions:
REMARK  status: ('A' for Active; 'I' for Inactive)
REMARK    1  A    between atoms: C_1  and  C_2
REMARK    2  A    between atoms: C_2  and  C_3
REMARK    3  A    between atoms: C_3  and  C_4
REMARK    4  A    between atoms: C_4  and  C_5
REMARK    5  A    between atoms: C_5  and  C_6
REMARK    6  A    between atoms: C_6  and  C_7
REMARK    7  A    between atoms: C_7  and  C_8
REMARK    8  A    between atoms: C_8  and  C_9
REMARK    9  A    between atoms: C_9  and  C_10
REMARK   10  A    between atoms: C_10  and  N_11
REMARK   11  A    between atoms: C_17  and  O_18
REMARK                            x       y       z     vdW  Elec       q    Type
REMARK                         _______ _______ _______ _____ _____    ______ ____
ROOT
ATOM      1  N   UNL     1       4.228   4.979  17.812  0.00  0.00    +0.000 N 
ATOM      2  C   UNL     1       4.043   6.280  17.483  0.00  0.00    +0.000 A 
ATOM      3  C   UNL     1       3.219   7.102  18.224  0.00  0.00    +0.000 A 
ATOM      4  C   UNL     1       2.569   6.582  19.332  0.00  0.00    +0.000 A 
ATOM      5  C   UNL     1       2.753   5.241  19.684  0.00  0.00    +0.000 A 
ATOM      6  C   UNL     1       2.128   4.710  20.825  0.00  0.00    +0.000 A 
ATOM      7  C   UNL     1       2.339   3.383  21.181  0.00  0.00    +0.000 A 
ATOM      8  C   UNL     1       3.136   2.558  20.405  0.00  0.00    +0.000 A 
ATOM      9  C   UNL     1       3.741   3.064  19.253  0.00  0.00    +0.000 A 
ATOM     10  C   UNL     1       3.593   4.415  18.887  0.00  0.00    +0.000 A 
ENDROOT
BRANCH   7  11
ATOM     11  O   UNL     1       1.783   2.838  22.295  0.00  0.00    +0.000 OA
ATOM     12  H   UNL     1       2.461   2.691  22.976  0.00  0.00    +0.000 HD
ENDBRANCH   7  11
BRANCH   1  13
ATOM     13  C   UNL     1       5.195   4.218  16.994  0.00  0.00    +0.000 C 
BRANCH  13  14
ATOM     14  C   UNL     1       6.402   5.093  16.676  0.00  0.00    +0.000 C 
BRANCH  14  15
ATOM     15  C   UNL     1       7.493   4.943  17.732  0.00  0.00    +0.000 C 
BRANCH  15  16
ATOM     16  C   UNL     1       7.633   6.206  18.576  0.00  0.00    +0.000 C 
BRANCH  16  17
ATOM     17  C   UNL     1       7.714   7.447  17.706  0.00  0.00    +0.000 C 
BRANCH  17  18
ATOM     18  C   UNL     1       8.439   8.560  18.453  0.00  0.00    +0.000 C 
BRANCH  18  19
ATOM     19  C   UNL     1       8.431   9.839  17.629  0.00  0.00    +0.000 C 
BRANCH  19  20
ATOM     20  C   UNL     1       8.984  11.006  18.436  0.00  0.00    +0.000 C 
BRANCH  20  22
ATOM     21  C   UNL     1      10.372  11.551  20.453  0.00  0.00    +0.000 C 
ATOM     22  C   UNL     1       9.431  10.542  19.819  0.00  0.00    +0.000 C 
ENDBRANCH  20  22
ENDBRANCH  19  20
ENDBRANCH  18  19
ENDBRANCH  17  18
ENDBRANCH  16  17
ENDBRANCH  15  16
ENDBRANCH  14  15
ENDBRANCH  13  14
ENDBRANCH   1  13
TORSDOF 10
ENDMDL
MODEL 3
REMARK VINA RESULT:      -6.7      1.763      2.308
REMARK  Name = 
REMARK  11 active torsions:
REMARK  status: ('A' for Active; 'I' for Inactive)
REMARK    1  A    between atoms: C_1  and  C_2
REMARK    2  A    between atoms: C_2  and  C_3
REMARK    3  A    between atoms: C_3  and  C_4
REMARK    4  A    between atoms: C_4  and  C_5
REMARK    5  A    between atoms: C_5  and  C_6
REMARK    6  A    between atoms: C_6  and  C_7
REMARK    7  A    between atoms: C_7  and  C_8
REMARK    8  A    between atoms: C_8  and  C_9
REMARK    9  A    between atoms: C_9  and  C_10
REMARK   10  A    between atoms: C_10  and  N_11
REMARK   11  A    between atoms: C_17  and  O_18
REMARK                            x       y       z     vdW  Elec       q    Type
REMARK                         _______ _______ _______ _____ _____    ______ ____
ROOT
ATOM      1  N   UNL     1       3.637   6.099  17.722  0.00  0.00    +0.000 N 
ATOM      2  C   UNL     1       3.388   7.201  18.468  0.00  0.00    +0.000 A 
ATOM      3  C   UNL     1       2.486   7.179  19.512  0.00  0.00    +0.000 A 
ATOM      4  C   UNL     1       1.822   5.997  19.802  0.00  0.00    +0.000 A 
ATOM      5  C   UNL     1       2.072   4.851  19.041  0.00  0.00    +0.000 A 
ATOM      6  C   UNL     1       1.432   3.638  19.346  0.00  0.00    +0.000 A 
ATOM      7  C   UNL     1       1.708   2.498  18.600  0.00  0.00    +0.000 A 
ATOM      8  C   UNL     1       2.585   2.545  17.530  0.00  0.00    +0.000 A 
ATOM      9  C   UNL     1       3.207   3.749  17.196  0.00  0.00    +0.000 A 
ATOM     10  C   UNL     1       2.993   4.914  17.959  0.00  0.00    +0.000 A 
ENDROOT
BRANCH   7  11
ATOM     11  O   UNL     1       1.139   1.297  18.882  0.00  0.00    +0.000 OA
ATOM     12  H   UNL     1       1.079   0.752  18.079  0.00  0.00    +0.000 HD
ENDBRANCH   7  11
BRANCH   1  13
ATOM     13  C   UNL     1       4.683   6.221  16.684  0.00  0.00    +0.000 C 
BRANCH  13  14
ATOM     14  C   UNL     1       6.061   6.134  17.329  0.00  0.00    +0.000 C 
BRANCH  14  15
ATOM     15  C   UNL     1       7.035   5.347  16.458  0.00  0.00    +0.000 C 
BRANCH  15  16
ATOM     16  C   UNL     1       6.335   4.210  15.721  0.00  0.00    +0.000 C 
BRANCH  16  17
ATOM     17  C   UNL     1       6.769   4.143  14.267  0.00  0.00    +0.000 C 
BRANCH  17  18
ATOM     18  C   UNL     1       5.606   3.680  13.397  0.00  0.00    +0.000 C 
BRANCH  18  19
ATOM     19  C   UNL     1       6.084   3.410  11.979  0.00  0.00    +0.000 C 
BRANCH  19  20
ATOM     20  C   UNL     1       5.451   2.139  11.427  0.00  0.00    +0.000 C 
BRANCH  20  22
ATOM     21  C   UNL     1       6.138  -0.271  11.341  0.00  0.00    +0.000 C 
ATOM     22  C   UNL     1       6.524   1.152  10.979  0.00  0.00    +0.000 C 
ENDBRANCH  20  22
ENDBRANCH  19  20
ENDBRANCH  18  19
ENDBRANCH  17  18
ENDBRANCH  16  17
ENDBRANCH  15  16
ENDBRANCH  14  15
ENDBRANCH  13  14
ENDBRANCH   1  13
TORSDOF 10
ENDMDL
MODEL 4
REMARK VINA RESULT:      -6.6      4.311      6.668
REMARK  Name = 
REMARK  11 active torsions:
REMARK  status: ('A' for Active; 'I' for Inactive)
REMARK    1  A    between atoms: C_1  and  C_2
REMARK    2  A    between atoms: C_2  and  C_3
REMARK    3  A    between atoms: C_3  and  C_4
REMARK    4  A    between atoms: C_4  and  C_5
REMARK    5  A    between atoms: C_5  and  C_6
REMARK    6  A    between atoms: C_6  and  C_7
REMARK    7  A    between atoms: C_7  and  C_8
REMARK    8  A    between atoms: C_8  and  C_9
REMARK    9  A    between atoms: C_9  and  C_10
REMARK   10  A    between atoms: C_10  and  N_11
REMARK   11  A    between atoms: C_17  and  O_18
REMARK                            x       y       z     vdW  Elec       q    Type
REMARK                         _______ _______ _______ _____ _____    ______ ____
ROOT
ATOM      1  N   UNL     1       4.037   6.029  17.246  0.00  0.00    +0.000 N 
ATOM      2  C   UNL     1       3.657   7.240  17.718  0.00  0.00    +0.000 A 
ATOM      3  C   UNL     1       2.609   7.372  18.606  0.00  0.00    +0.000 A 
ATOM      4  C   UNL     1       1.935   6.236  19.025  0.00  0.00    +0.000 A 
ATOM      5  C   UNL     1       2.319   4.980  18.547  0.00  0.00    +0.000 A 
ATOM      6  C   UNL     1       1.666   3.817  18.991  0.00  0.00    +0.000 A 
ATOM      7  C   UNL     1       2.075   2.571  18.530  0.00  0.00    +0.000 A 
ATOM      8  C   UNL     1       3.101   2.456  17.608  0.00  0.00    +0.000 A 
ATOM      9  C   UNL     1       3.740   3.604  17.136  0.00  0.00    +0.000 A 
ATOM     10  C   UNL     1       3.390   4.880  17.617  0.00  0.00    +0.000 A 
ENDROOT
BRANCH   7  11
ATOM     11  O   UNL     1       1.495   1.419  18.959  0.00  0.00    +0.000 OA
ATOM     12  H   UNL     1       1.687   1.271  19.901  0.00  0.00    +0.000 HD
ENDBRANCH   7  11
BRANCH   1  13
ATOM     13  C   UNL     1       5.223   6.002  16.364  0.00  0.00    +0.000 C 
BRANCH  13  14
ATOM     14  C   UNL     1       6.259   7.003  16.863  0.00  0.00    +0.000 C 
BRANCH  14  15
ATOM     15  C   UNL     1       7.389   6.308  17.615  0.00  0.00    +0.000 C 
BRANCH  15  16
ATOM     16  C   UNL     1       8.140   7.279  18.522  0.00  0.00    +0.000 C 
BRANCH  16  17
ATOM     17  C   UNL     1       8.157   8.680  17.937  0.00  0.00    +0.000 C 
BRANCH  17  18
ATOM     18  C   UNL     1       8.901   9.626  18.873  0.00  0.00    +0.000 C 
BRANCH  18  19
ATOM     19  C   UNL     1       9.333  10.877  18.123  0.00  0.00    +0.000 C 
BRANCH  19  20
ATOM     20  C   UNL     1       9.945  11.895  19.077  0.00  0.00    +0.000 C 
BRANCH  20  22
ATOM     21  C   UNL     1       9.472  12.354  21.496  0.00  0.00    +0.000 C 
ATOM     22  C   UNL     1       9.999  11.340  20.496  0.00  0.00    +0.000 C 
ENDBRANCH  20  22
ENDBRANCH  19  20
ENDBRANCH  18  19
ENDBRANCH  17  18
ENDBRANCH  16  17
ENDBRANCH  15  16
ENDBRANCH  14  15
ENDBRANCH  13  14
ENDBRANCH   1  13
TORSDOF 10
ENDMDL
MODEL 5
REMARK VINA RESULT:      -6.5      2.867      6.884
REMARK  Name = 
REMARK  11 active torsions:
REMARK  status: ('A' for Active; 'I' for Inactive)
REMARK    1  A    between atoms: C_1  and  C_2
REMARK    2  A    between atoms: C_2  and  C_3
REMARK    3  A    between atoms: C_3  and  C_4
REMARK    4  A    between atoms: C_4  and  C_5
REMARK    5  A    between atoms: C_5  and  C_6
REMARK    6  A    between atoms: C_6  and  C_7
REMARK    7  A    between atoms: C_7  and  C_8
REMARK    8  A    between atoms: C_8  and  C_9
REMARK    9  A    between atoms: C_9  and  C_10
REMARK   10  A    between atoms: C_10  and  N_11
REMARK   11  A    between atoms: C_17  and  O_18
REMARK                            x       y       z     vdW  Elec       q    Type
REMARK                         _______ _______ _______ _____ _____    ______ ____
ROOT
ATOM      1  N   UNL     1       4.445   3.999  16.579  0.00  0.00    +0.000 N 
ATOM      2  C   UNL     1       4.659   3.789  15.258  0.00  0.00    +0.000 A 
ATOM      3  C   UNL     1       5.847   4.144  14.653  0.00  0.00    +0.000 A 
ATOM      4  C   UNL     1       6.845   4.726  15.419  0.00  0.00    +0.000 A 
ATOM      5  C   UNL     1       6.639   4.946  16.784  0.00  0.00    +0.000 A 
ATOM      6  C   UNL     1       7.655   5.503  17.579  0.00  0.00    +0.000 A 
ATOM      7  C   UNL     1       7.449   5.692  18.940  0.00  0.00    +0.000 A 
ATOM      8  C   UNL     1       6.237   5.369  19.527  0.00  0.00    +0.000 A 
ATOM      9  C   UNL     1       5.208   4.841  18.745  0.00  0.00    +0.000 A 
ATOM     10  C   UNL     1       5.394   4.587  17.373  0.00  0.00    +0.000 A 
ENDROOT
BRANCH   7  11
ATOM     11  O   UNL     1       8.416   6.195  19.753  0.00  0.00    +0.000 OA
ATOM     12  H   UNL     1       9.187   6.473  19.231  0.00  0.00    +0.000 HD
ENDBRANCH   7  11
BRANCH   1  13
ATOM     13  C   UNL     1       3.168   3.504  17.133  0.00  0.00    +0.000 C 
BRANCH  13  14
ATOM     14  C   UNL     1       3.333   2.063  17.600  0.00  0.00    +0.000 C 
BRANCH  14  15
ATOM     15  C   UNL     1       2.564   1.803  18.892  0.00  0.00    +0.000 C 
BRANCH  15  16
ATOM     16  C   UNL     1       1.105   2.232  18.771  0.00  0.00    +0.000 C 
BRANCH  16  17
ATOM     17  C   UNL     1       0.720   3.202  19.874  0.00  0.00    +0.000 C 
BRANCH  17  18
ATOM     18  C   UNL     1       1.843   3.297  20.899  0.00  0.00    +0.000 C 
BRANCH  18  19
ATOM     19  C   UNL     1       2.290   4.743  21.058  0.00  0.00    +0.000 C 
BRANCH  19  20
ATOM     20  C   UNL     1       1.638   5.630  20.005  0.00  0.00    +0.000 C 
BRANCH  20  22
ATOM     21  C   UNL     1       1.510   8.038  20.692  0.00  0.00    +0.000 C 
ATOM     22  C   UNL     1       2.321   6.992  19.949  0.00  0.00    +0.000 C 
ENDBRANCH  20  22
ENDBRANCH  19  20
ENDBRANCH  18  19
ENDBRANCH  17  18
ENDBRANCH  16  17
ENDBRANCH  15  16
ENDBRANCH  14  15
ENDBRANCH  13  14
ENDBRANCH   1  13
TORSDOF 10
ENDMDL
MODEL 6
REMARK VINA RESULT:      -6.5      4.541      6.587
REMARK  Name = 
REMARK  11 active torsions:
REMARK  status: ('A' for Active; 'I' for Inactive)
REMARK    1  A    between atoms: C_1  and  C_2
REMARK    2  A    between atoms: C_2  and  C_3
REMARK    3  A    between atoms: C_3  and  C_4
REMARK    4  A    between atoms: C_4  and  C_5
REMARK    5  A    between atoms: C_5  and  C_6
REMARK    6  A    between atoms: C_6  and  C_7
REMARK    7  A    between atoms: C_7  and  C_8
REMARK    8  A    between atoms: C_8  and  C_9
REMARK    9  A    between atoms: C_9  and  C_10
REMARK   10  A    between atoms: C_10  and  N_11
REMARK   11  A    between atoms: C_17  and  O_18
REMARK                            x       y       z     vdW  Elec       q    Type
REMARK                         _______ _______ _______ _____ _____    ______ ____
ROOT
ATOM      1  N   UNL     1       5.400   4.667  18.385  0.00  0.00    +0.000 N 
ATOM      2  C   UNL     1       5.729   4.463  17.088  0.00  0.00    +0.000 A 
ATOM      3  C   UNL     1       4.809   3.992  16.174  0.00  0.00    +0.000 A 
ATOM      4  C   UNL     1       3.516   3.725  16.597  0.00  0.00    +0.000 A 
ATOM      5  C   UNL     1       3.162   3.934  17.933  0.00  0.00    +0.000 A 
ATOM      6  C   UNL     1       1.846   3.701  18.368  0.00  0.00    +0.000 A 
ATOM      7  C   UNL     1       1.499   3.937  19.692  0.00  0.00    +0.000 A 
ATOM      8  C   UNL     1       2.442   4.371  20.608  0.00  0.00    +0.000 A 
ATOM      9  C   UNL     1       3.760   4.580  20.198  0.00  0.00    +0.000 A 
ATOM     10  C   UNL     1       4.140   4.401  18.854  0.00  0.00    +0.000 A 
ENDROOT
BRANCH   7  11
ATOM     11  O   UNL     1       0.230   3.759  20.147  0.00  0.00    +0.000 OA
ATOM     12  H   UNL     1       0.158   2.920  20.635  0.00  0.00    +0.000 HD
ENDBRANCH   7  11
BRANCH   1  13
ATOM     13  C   UNL     1       6.444   5.251  19.253  0.00  0.00    +0.000 C 
BRANCH  13  14
ATOM     14  C   UNL     1       7.641   5.672  18.407  0.00  0.00    +0.000 C 
BRANCH  14  15
ATOM     15  C   UNL     1       8.075   7.098  18.727  0.00  0.00    +0.000 C 
BRANCH  15  16
ATOM     16  C   UNL     1       7.870   8.026  17.533  0.00  0.00    +0.000 C 
BRANCH  16  17
ATOM     17  C   UNL     1       8.085   9.479  17.918  0.00  0.00    +0.000 C 
BRANCH  17  18
ATOM     18  C   UNL     1       9.149   9.577  19.004  0.00  0.00    +0.000 C 
BRANCH  18  19
ATOM     19  C   UNL     1       9.507  11.034  19.261  0.00  0.00    +0.000 C 
BRANCH  19  20
ATOM     20  C   UNL     1      10.582  11.506  18.290  0.00  0.00    +0.000 C 
BRANCH  20  22
ATOM     21  C   UNL     1      11.206  13.410  16.783  0.00  0.00    +0.000 C 
ATOM     22  C   UNL     1      10.060  12.643  17.418  0.00  0.00    +0.000 C 
ENDBRANCH  20  22
ENDBRANCH  19  20
ENDBRANCH  18  19
ENDBRANCH  17  18
ENDBRANCH  16  17
ENDBRANCH  15  16
ENDBRANCH  14  15
ENDBRANCH  13  14
ENDBRANCH   1  13
TORSDOF 10
ENDMDL
MODEL 7
REMARK VINA RESULT:      -6.5      1.768      3.157
REMARK  Name = 
REMARK  11 active torsions:
REMARK  status: ('A' for Active; 'I' for Inactive)
REMARK    1  A    between atoms: C_1  and  C_2
REMARK    2  A    between atoms: C_2  and  C_3
REMARK    3  A    between atoms: C_3  and  C_4
REMARK    4  A    between atoms: C_4  and  C_5
REMARK    5  A    between atoms: C_5  and  C_6
REMARK    6  A    between atoms: C_6  and  C_7
REMARK    7  A    between atoms: C_7  and  C_8
REMARK    8  A    between atoms: C_8  and  C_9
REMARK    9  A    between atoms: C_9  and  C_10
REMARK   10  A    between atoms: C_10  and  N_11
REMARK   11  A    between atoms: C_17  and  O_18
REMARK                            x       y       z     vdW  Elec       q    Type
REMARK                         _______ _______ _______ _____ _____    ______ ____
ROOT
ATOM      1  N   UNL     1       2.596   3.928  18.441  0.00  0.00    +0.000 N 
ATOM      2  C   UNL     1       2.369   2.784  19.128  0.00  0.00    +0.000 A 
ATOM      3  C   UNL     1       1.880   2.800  20.417  0.00  0.00    +0.000 A 
ATOM      4  C   UNL     1       1.613   4.019  21.021  0.00  0.00    +0.000 A 
ATOM      5  C   UNL     1       1.840   5.208  20.322  0.00  0.00    +0.000 A 
ATOM      6  C   UNL     1       1.540   6.449  20.909  0.00  0.00    +0.000 A 
ATOM      7  C   UNL     1       1.744   7.624  20.195  0.00  0.00    +0.000 A 
ATOM      8  C   UNL     1       2.274   7.595  18.916  0.00  0.00    +0.000 A 
ATOM      9  C   UNL     1       2.603   6.372  18.331  0.00  0.00    +0.000 A 
ATOM     10  C   UNL     1       2.364   5.157  19.001  0.00  0.00    +0.000 A 
ENDROOT
BRANCH   7  11
ATOM     11  O   UNL     1       1.435   8.843  20.711  0.00  0.00    +0.000 OA
ATOM     12  H   UNL     1       0.613   8.796  21.228  0.00  0.00    +0.000 HD
ENDBRANCH   7  11
BRANCH   1  13
ATOM     13  C   UNL     1       3.043   3.786  17.039  0.00  0.00    +0.000 C 
BRANCH  13  14
ATOM     14  C   UNL     1       4.491   3.310  17.006  0.00  0.00    +0.000 C 
BRANCH  14  15
ATOM     15  C   UNL     1       5.406   4.254  17.780  0.00  0.00    +0.000 C 
BRANCH  15  16
ATOM     16  C   UNL     1       6.557   4.754  16.913  0.00  0.00    +0.000 C 
BRANCH  16  17
ATOM     17  C   UNL     1       6.048   5.399  15.636  0.00  0.00    +0.000 C 
BRANCH  17  18
ATOM     18  C   UNL     1       6.901   4.956  14.453  0.00  0.00    +0.000 C 
BRANCH  18  19
ATOM     19  C   UNL     1       6.341   3.675  13.851  0.00  0.00    +0.000 C 
BRANCH  19  20
ATOM     20  C   UNL     1       5.125   3.972  12.983  0.00  0.00    +0.000 C 
BRANCH  20  22
ATOM     21  C   UNL     1       3.790   3.191  11.010  0.00  0.00    +0.000 C 
ATOM     22  C   UNL     1       5.109   3.074  11.751  0.00  0.00    +0.000 C 
ENDBRANCH  20  22
ENDBRANCH  19  20
ENDBRANCH  18  19
ENDBRANCH  17  18
ENDBRANCH  16  17
ENDBRANCH  15  16
ENDBRANCH  14  15
ENDBRANCH  13  14
ENDBRANCH   1  13
TORSDOF 10
ENDMDL
MODEL 8
REMARK VINA RESULT:      -6.4      4.299      6.778
REMARK  Name = 
REMARK  11 active torsions:
REMARK  status: ('A' for Active; 'I' for Inactive)
REMARK    1  A    between atoms: C_1  and  C_2
REMARK    2  A    between atoms: C_2  and  C_3
REMARK    3  A    between atoms: C_3  and  C_4
REMARK    4  A    between atoms: C_4  and  C_5
REMARK    5  A    between atoms: C_5  and  C_6
REMARK    6  A    between atoms: C_6  and  C_7
REMARK    7  A    between atoms: C_7  and  C_8
REMARK    8  A    between atoms: C_8  and  C_9
REMARK    9  A    between atoms: C_9  and  C_10
REMARK   10  A    between atoms: C_10  and  N_11
REMARK   11  A    between atoms: C_17  and  O_18
REMARK                            x       y       z     vdW  Elec       q    Type
REMARK                         _______ _______ _______ _____ _____    ______ ____
ROOT
ATOM      1  N   UNL     1       1.868   8.203  19.342  0.00  0.00    +0.000 N 
ATOM      2  C   UNL     1       2.164   8.770  18.149  0.00  0.00    +0.000 A 
ATOM      3  C   UNL     1       1.786  10.062  17.849  0.00  0.00    +0.000 A 
ATOM      4  C   UNL     1       1.088  10.796  18.796  0.00  0.00    +0.000 A 
ATOM      5  C   UNL     1       0.779  10.224  20.033  0.00  0.00    +0.000 A 
ATOM      6  C   UNL     1       0.103  10.968  21.015  0.00  0.00    +0.000 A 
ATOM      7  C   UNL     1      -0.176  10.398  22.251  0.00  0.00    +0.000 A 
ATOM      8  C   UNL     1       0.174   9.087  22.524  0.00  0.00    +0.000 A 
ATOM      9  C   UNL     1       0.820   8.326  21.549  0.00  0.00    +0.000 A 
ATOM     10  C   UNL     1       1.166   8.882  20.303  0.00  0.00    +0.000 A 
ENDROOT
BRANCH   7  11
ATOM     11  O   UNL     1      -0.796  11.093  23.242  0.00  0.00    +0.000 OA
ATOM     12  H   UNL     1      -0.154  11.367  23.919  0.00  0.00    +0.000 HD
ENDBRANCH   7  11
BRANCH   1  13
ATOM     13  C   UNL     1       2.396   6.843  19.582  0.00  0.00    +0.000 C 
BRANCH  13  14
ATOM     14  C   UNL     1       2.903   6.249  18.273  0.00  0.00    +0.000 C 
BRANCH  14  15
ATOM     15  C   UNL     1       2.020   5.097  17.805  0.00  0.00    +0.000 C 
BRANCH  15  16
ATOM     16  C   UNL     1       2.832   3.824  17.583  0.00  0.00    +0.000 C 
BRANCH  16  17
ATOM     17  C   UNL     1       4.289   4.024  17.958  0.00  0.00    +0.000 C 
BRANCH  17  18
ATOM     18  C   UNL     1       4.584   3.337  19.286  0.00  0.00    +0.000 C 
BRANCH  18  19
ATOM     19  C   UNL     1       3.428   2.430  19.678  0.00  0.00    +0.000 C 
BRANCH  19  20
ATOM     20  C   UNL     1       3.166   2.504  21.177  0.00  0.00    +0.000 C 
BRANCH  20  22
ATOM     21  C   UNL     1       0.860   3.312  20.613  0.00  0.00    +0.000 C 
ATOM     22  C   UNL     1       2.083   3.533  21.485  0.00  0.00    +0.000 C 
ENDBRANCH  20  22
ENDBRANCH  19  20
ENDBRANCH  18  19
ENDBRANCH  17  18
ENDBRANCH  16  17
ENDBRANCH  15  16
ENDBRANCH  14  15
ENDBRANCH  13  14
ENDBRANCH   1  13
TORSDOF 10
ENDMDL
MODEL 9
REMARK VINA RESULT:      -6.4      1.249      2.423
REMARK  Name = 
REMARK  11 active torsions:
REMARK  status: ('A' for Active; 'I' for Inactive)
REMARK    1  A    between atoms: C_1  and  C_2
REMARK    2  A    between atoms: C_2  and  C_3
REMARK    3  A    between atoms: C_3  and  C_4
REMARK    4  A    between atoms: C_4  and  C_5
REMARK    5  A    between atoms: C_5  and  C_6
REMARK    6  A    between atoms: C_6  and  C_7
REMARK    7  A    between atoms: C_7  and  C_8
REMARK    8  A    between atoms: C_8  and  C_9
REMARK    9  A    between atoms: C_9  and  C_10
REMARK   10  A    between atoms: C_10  and  N_11
REMARK   11  A    between atoms: C_17  and  O_18
REMARK                            x       y       z     vdW  Elec       q    Type
REMARK                         _______ _______ _______ _____ _____    ______ ____
ROOT
ATOM      1  N   UNL     1       3.398   4.802  18.288  0.00  0.00    +0.000 N 
ATOM      2  C   UNL     1       3.374   4.231  17.060  0.00  0.00    +0.000 A 
ATOM      3  C   UNL     1       2.794   2.997  16.848  0.00  0.00    +0.000 A 
ATOM      4  C   UNL     1       2.220   2.330  17.919  0.00  0.00    +0.000 A 
ATOM      5  C   UNL     1       2.236   2.908  19.191  0.00  0.00    +0.000 A 
ATOM      6  C   UNL     1       1.627   2.259  20.278  0.00  0.00    +0.000 A 
ATOM      7  C   UNL     1       1.624   2.856  21.533  0.00  0.00    +0.000 A 
ATOM      8  C   UNL     1       2.245   4.076  21.741  0.00  0.00    +0.000 A 
ATOM      9  C   UNL     1       2.879   4.720  20.677  0.00  0.00    +0.000 A 
ATOM     10  C   UNL     1       2.860   4.173  19.380  0.00  0.00    +0.000 A 
ENDROOT
BRANCH   7  11
ATOM     11  O   UNL     1       1.017   2.279  22.604  0.00  0.00    +0.000 OA
ATOM     12  H   UNL     1       0.104   2.029  22.383  0.00  0.00    +0.000 HD
ENDBRANCH   7  11
BRANCH   1  13
ATOM     13  C   UNL     1       3.972   6.160  18.380  0.00  0.00    +0.000 C 
BRANCH  13  14
ATOM     14  C   UNL     1       4.610   6.540  17.049  0.00  0.00    +0.000 C 
BRANCH  14  15
ATOM     15  C   UNL     1       6.070   6.945  17.225  0.00  0.00    +0.000 C 
BRANCH  15  16
ATOM     16  C   UNL     1       7.015   5.910  16.622  0.00  0.00    +0.000 C 
BRANCH  16  17
ATOM     17  C   UNL     1       6.248   4.796  15.933  0.00  0.00    +0.000 C 
BRANCH  17  18
ATOM     18  C   UNL     1       6.456   4.876  14.425  0.00  0.00    +0.000 C 
BRANCH  18  19
ATOM     19  C   UNL     1       6.231   3.512  13.790  0.00  0.00    +0.000 C 
BRANCH  19  20
ATOM     20  C   UNL     1       6.460   3.572  12.285  0.00  0.00    +0.000 C 
BRANCH  20  22
ATOM     21  C   UNL     1       4.143   3.276  11.372  0.00  0.00    +0.000 C 
ATOM     22  C   UNL     1       5.505   2.632  11.556  0.00  0.00    +0.000 C 
ENDBRANCH  20  22
ENDBRANCH  19  20
ENDBRANCH  18  19
ENDBRANCH  17  18
ENDBRANCH  16  17
ENDBRANCH  15  16
ENDBRANCH  14  15
ENDBRANCH  13  14
ENDBRANCH   1  13
TORSDOF 10
ENDMDL
