MODEL 1
REMARK VINA RESULT:      -7.5      0.000      0.000
REMARK  Name = 
REMARK  9 active torsions:
REMARK  status: ('A' for Active; 'I' for Inactive)
REMARK    1  A    between atoms: C_1  and  O_2
REMARK    2  A    between atoms: O_2  and  C_3
REMARK    3  A    between atoms: C_6  and  C_7
REMARK    4  A    between atoms: N_9  and  C_10
REMARK    5  A    between atoms: N_9  and  C_18
REMARK    6  A    between atoms: C_14  and  O_15
REMARK    7  A    between atoms: O_15  and  C_16
REMARK    8  A    between atoms: N_21  and  C_22
REMARK    9  A    between atoms: C_22  and  C_23
REMARK                            x       y       z     vdW  Elec       q    Type
REMARK                         _______ _______ _______ _____ _____    ______ ____
ROOT
ATOM      1  C   UNL     1      -1.590  13.489  20.440  0.00  0.00    +0.000 C 
ATOM      2  O   UNL     1      -1.296  14.682  20.528  0.00  0.00    +0.000 OA
ATOM      3  N   UNL     1      -0.661  12.459  20.169  0.00  0.00    +0.000 N 
ENDROOT
BRANCH   1   7
ATOM      4  C   UNL     1      -5.626  12.385  21.261  0.00  0.00    +0.000 A 
ATOM      5  C   UNL     1      -5.173  12.398  19.935  0.00  0.00    +0.000 A 
ATOM      6  C   UNL     1      -3.869  12.796  19.634  0.00  0.00    +0.000 A 
ATOM      7  C   UNL     1      -3.014  13.167  20.673  0.00  0.00    +0.000 A 
ATOM      8  C   UNL     1      -3.492  13.240  21.988  0.00  0.00    +0.000 A 
ATOM      9  C   UNL     1      -4.796  12.843  22.285  0.00  0.00    +0.000 A 
BRANCH   4  11
ATOM     10  C   UNL     1      -7.458  11.208  20.351  0.00  0.00    +0.000 C 
ATOM     11  O   UNL     1      -6.911  11.949  21.438  0.00  0.00    +0.000 OA
ENDBRANCH   4  11
ENDBRANCH   1   7
BRANCH   3  12
ATOM     12  C   UNL     1       0.650  12.900  19.810  0.00  0.00    +0.000 A 
ATOM     13  C   UNL     1       1.027  13.057  18.476  0.00  0.00    +0.000 A 
ATOM     14  C   UNL     1       2.308  13.525  18.166  0.00  0.00    +0.000 A 
ATOM     15  C   UNL     1       3.211  13.819  19.193  0.00  0.00    +0.000 A 
ATOM     16  C   UNL     1       2.836  13.663  20.529  0.00  0.00    +0.000 A 
ATOM     17  C   UNL     1       1.551  13.223  20.828  0.00  0.00    +0.000 A 
BRANCH  16  18
ATOM     18  O   UNL     1       3.799  13.968  21.455  0.00  0.00    +0.000 OA
ATOM     19  C   UNL     1       3.751  15.285  21.995  0.00  0.00    +0.000 C 
ENDBRANCH  16  18
ENDBRANCH   3  12
BRANCH   3  20
ATOM     20  C   UNL     1      -0.894  10.988  20.383  0.00  0.00    +0.000 C 
ATOM     21  C   UNL     1       0.325  10.243  20.969  0.00  0.00    +0.000 C 
ATOM     22  C   UNL     1       1.428  10.041  19.942  0.00  0.00    +0.000 C 
ATOM     23  N   UNL     1       0.958   9.277  18.781  0.00  0.00    +0.000 NA
ATOM     24  C   UNL     1      -0.216   9.899  18.154  0.00  0.00    +0.000 C 
ATOM     25  C   UNL     1      -1.343  10.154  19.159  0.00  0.00    +0.000 C 
BRANCH  23  26
ATOM     26  C   UNL     1       2.067   9.174  17.820  0.00  0.00    +0.000 C 
BRANCH  26  27
ATOM     27  C   UNL     1       2.831   7.874  17.861  0.00  0.00    +0.000 A 
ATOM     28  C   UNL     1       2.213   6.696  18.313  0.00  0.00    +0.000 A 
ATOM     29  C   UNL     1       2.802   5.453  18.071  0.00  0.00    +0.000 A 
ATOM     30  C   UNL     1       3.984   5.388  17.339  0.00  0.00    +0.000 A 
ATOM     31  C   UNL     1       4.646   6.566  16.984  0.00  0.00    +0.000 A 
ATOM     32  C   UNL     1       4.102   7.807  17.281  0.00  0.00    +0.000 A 
ATOM     33  O   UNL     1       5.776   6.554  16.207  0.00  0.00    +0.000 OA
ATOM     34  C   UNL     1       5.588   5.525  15.234  0.00  0.00    +0.000 C 
ATOM     35  C   UNL     1       5.425   4.180  15.930  0.00  0.00    +0.000 C 
ATOM     36  O   UNL     1       4.382   4.149  16.916  0.00  0.00    +0.000 OA
ENDBRANCH  26  27
ENDBRANCH  23  26
ENDBRANCH   3  20
TORSDOF 7
ENDMDL
MODEL 2
REMARK VINA RESULT:      -7.4      1.028      1.732
REMARK  Name = 
REMARK  9 active torsions:
REMARK  status: ('A' for Active; 'I' for Inactive)
REMARK    1  A    between atoms: C_1  and  O_2
REMARK    2  A    between atoms: O_2  and  C_3
REMARK    3  A    between atoms: C_6  and  C_7
REMARK    4  A    between atoms: N_9  and  C_10
REMARK    5  A    between atoms: N_9  and  C_18
REMARK    6  A    between atoms: C_14  and  O_15
REMARK    7  A    between atoms: O_15  and  C_16
REMARK    8  A    between atoms: N_21  and  C_22
REMARK    9  A    between atoms: C_22  and  C_23
REMARK                            x       y       z     vdW  Elec       q    Type
REMARK                         _______ _______ _______ _____ _____    ______ ____
ROOT
ATOM      1  C   UNL     1      -1.988  13.295  20.178  0.00  0.00    +0.000 C 
ATOM      2  O   UNL     1      -1.738  14.489  20.348  0.00  0.00    +0.000 OA
ATOM      3  N   UNL     1      -1.009  12.301  19.958  0.00  0.00    +0.000 N 
ENDROOT
BRANCH   1   7
ATOM      4  C   UNL     1      -6.058  12.083  20.563  0.00  0.00    +0.000 A 
ATOM      5  C   UNL     1      -5.429  11.992  19.314  0.00  0.00    +0.000 A 
ATOM      6  C   UNL     1      -4.110  12.421  19.151  0.00  0.00    +0.000 A 
ATOM      7  C   UNL     1      -3.418  12.929  20.251  0.00  0.00    +0.000 A 
ATOM      8  C   UNL     1      -4.074  13.103  21.477  0.00  0.00    +0.000 A 
ATOM      9  C   UNL     1      -5.392  12.675  21.637  0.00  0.00    +0.000 A 
BRANCH   4  11
ATOM     10  C   UNL     1      -7.903  11.501  21.915  0.00  0.00    +0.000 C 
ATOM     11  O   UNL     1      -7.340  11.604  20.611  0.00  0.00    +0.000 OA
ENDBRANCH   4  11
ENDBRANCH   1   7
BRANCH   3  12
ATOM     12  C   UNL     1       0.319  12.789  19.753  0.00  0.00    +0.000 A 
ATOM     13  C   UNL     1       0.834  12.989  18.472  0.00  0.00    +0.000 A 
ATOM     14  C   UNL     1       2.125  13.501  18.313  0.00  0.00    +0.000 A 
ATOM     15  C   UNL     1       2.902  13.797  19.439  0.00  0.00    +0.000 A 
ATOM     16  C   UNL     1       2.389  13.599  20.723  0.00  0.00    +0.000 A 
ATOM     17  C   UNL     1       1.094  13.114  20.870  0.00  0.00    +0.000 A 
BRANCH  16  18
ATOM     18  O   UNL     1       3.235  13.910  21.754  0.00  0.00    +0.000 OA
ATOM     19  C   UNL     1       4.512  14.422  21.382  0.00  0.00    +0.000 C 
ENDBRANCH  16  18
ENDBRANCH   3  12
BRANCH   3  20
ATOM     20  C   UNL     1      -1.220  10.817  20.083  0.00  0.00    +0.000 C 
ATOM     21  C   UNL     1      -0.083  10.086  20.829  0.00  0.00    +0.000 C 
ATOM     22  C   UNL     1       1.174   9.956  19.983  0.00  0.00    +0.000 C 
ATOM     23  N   UNL     1       0.920   9.225  18.738  0.00  0.00    +0.000 NA
ATOM     24  C   UNL     1      -0.162   9.835  17.954  0.00  0.00    +0.000 C 
ATOM     25  C   UNL     1      -1.441  10.017  18.776  0.00  0.00    +0.000 C 
BRANCH  23  26
ATOM     26  C   UNL     1       2.170   9.192  17.961  0.00  0.00    +0.000 C 
BRANCH  26  27
ATOM     27  C   UNL     1       2.764   7.819  17.764  0.00  0.00    +0.000 A 
ATOM     28  C   UNL     1       4.056   7.669  17.234  0.00  0.00    +0.000 A 
ATOM     29  C   UNL     1       4.721   6.445  17.332  0.00  0.00    +0.000 A 
ATOM     30  C   UNL     1       4.109   5.387  17.998  0.00  0.00    +0.000 A 
ATOM     31  C   UNL     1       2.785   5.510  18.429  0.00  0.00    +0.000 A 
ATOM     32  C   UNL     1       2.093   6.703  18.274  0.00  0.00    +0.000 A 
ATOM     33  O   UNL     1       2.163   4.521  19.147  0.00  0.00    +0.000 OA
ATOM     34  C   UNL     1       3.148   3.980  20.029  0.00  0.00    +0.000 C 
ATOM     35  C   UNL     1       4.296   3.388  19.220  0.00  0.00    +0.000 C 
ATOM     36  O   UNL     1       4.891   4.301  18.285  0.00  0.00    +0.000 OA
ENDBRANCH  26  27
ENDBRANCH  23  26
ENDBRANCH   3  20
TORSDOF 7
ENDMDL
MODEL 3
REMARK VINA RESULT:      -7.2      0.987      1.895
REMARK  Name = 
REMARK  9 active torsions:
REMARK  status: ('A' for Active; 'I' for Inactive)
REMARK    1  A    between atoms: C_1  and  O_2
REMARK    2  A    between atoms: O_2  and  C_3
REMARK    3  A    between atoms: C_6  and  C_7
REMARK    4  A    between atoms: N_9  and  C_10
REMARK    5  A    between atoms: N_9  and  C_18
REMARK    6  A    between atoms: C_14  and  O_15
REMARK    7  A    between atoms: O_15  and  C_16
REMARK    8  A    between atoms: N_21  and  C_22
REMARK    9  A    between atoms: C_22  and  C_23
REMARK                            x       y       z     vdW  Elec       q    Type
REMARK                         _______ _______ _______ _____ _____    ______ ____
ROOT
ATOM      1  C   UNL     1      -1.728  13.387  20.708  0.00  0.00    +0.000 C 
ATOM      2  O   UNL     1      -1.381  14.545  20.940  0.00  0.00    +0.000 OA
ATOM      3  N   UNL     1      -0.860  12.375  20.241  0.00  0.00    +0.000 N 
ENDROOT
BRANCH   1   7
ATOM      4  C   UNL     1      -5.884  12.702  21.377  0.00  0.00    +0.000 A 
ATOM      5  C   UNL     1      -5.018  12.801  22.475  0.00  0.00    +0.000 A 
ATOM      6  C   UNL     1      -3.647  12.983  22.283  0.00  0.00    +0.000 A 
ATOM      7  C   UNL     1      -3.148  13.081  20.984  0.00  0.00    +0.000 A 
ATOM      8  C   UNL     1      -3.999  12.892  19.886  0.00  0.00    +0.000 A 
ATOM      9  C   UNL     1      -5.368  12.709  20.081  0.00  0.00    +0.000 A 
BRANCH   4  11
ATOM     10  C   UNL     1      -7.517  12.586  23.077  0.00  0.00    +0.000 C 
ATOM     11  O   UNL     1      -7.209  12.554  21.687  0.00  0.00    +0.000 OA
ENDBRANCH   4  11
ENDBRANCH   1   7
BRANCH   3  12
ATOM     12  C   UNL     1       0.445  12.818  19.864  0.00  0.00    +0.000 A 
ATOM     13  C   UNL     1       0.787  13.030  18.528  0.00  0.00    +0.000 A 
ATOM     14  C   UNL     1       2.063  13.499  18.202  0.00  0.00    +0.000 A 
ATOM     15  C   UNL     1       2.998  13.739  19.215  0.00  0.00    +0.000 A 
ATOM     16  C   UNL     1       2.659  13.529  20.553  0.00  0.00    +0.000 A 
ATOM     17  C   UNL     1       1.378  13.088  20.869  0.00  0.00    +0.000 A 
BRANCH  16  18
ATOM     18  O   UNL     1       3.651  13.784  21.463  0.00  0.00    +0.000 OA
ATOM     19  C   UNL     1       3.553  15.020  22.164  0.00  0.00    +0.000 C 
ENDBRANCH  16  18
ENDBRANCH   3  12
BRANCH   3  20
ATOM     20  C   UNL     1      -1.140  10.896  20.266  0.00  0.00    +0.000 C 
ATOM     21  C   UNL     1      -0.051  10.068  20.980  0.00  0.00    +0.000 C 
ATOM     22  C   UNL     1       1.215   9.936  20.148  0.00  0.00    +0.000 C 
ATOM     23  N   UNL     1       0.952   9.298  18.853  0.00  0.00    +0.000 NA
ATOM     24  C   UNL     1      -0.088  10.006  18.094  0.00  0.00    +0.000 C 
ATOM     25  C   UNL     1      -1.373  10.194  18.907  0.00  0.00    +0.000 C 
BRANCH  23  26
ATOM     26  C   UNL     1       2.212   9.258  18.096  0.00  0.00    +0.000 C 
BRANCH  26  27
ATOM     27  C   UNL     1       2.751   7.875  17.823  0.00  0.00    +0.000 A 
ATOM     28  C   UNL     1       4.005   7.703  17.214  0.00  0.00    +0.000 A 
ATOM     29  C   UNL     1       4.635   6.458  17.236  0.00  0.00    +0.000 A 
ATOM     30  C   UNL     1       4.030   5.398  17.906  0.00  0.00    +0.000 A 
ATOM     31  C   UNL     1       2.739   5.547  18.418  0.00  0.00    +0.000 A 
ATOM     32  C   UNL     1       2.077   6.763  18.340  0.00  0.00    +0.000 A 
ATOM     33  O   UNL     1       2.130   4.555  19.143  0.00  0.00    +0.000 OA
ATOM     34  C   UNL     1       3.147   3.957  19.948  0.00  0.00    +0.000 C 
ATOM     35  C   UNL     1       4.226   3.358  19.055  0.00  0.00    +0.000 C 
ATOM     36  O   UNL     1       4.794   4.281  18.114  0.00  0.00    +0.000 OA
ENDBRANCH  26  27
ENDBRANCH  23  26
ENDBRANCH   3  20
TORSDOF 7
ENDMDL
MODEL 4
REMARK VINA RESULT:      -7.0      1.165      1.886
REMARK  Name = 
REMARK  9 active torsions:
REMARK  status: ('A' for Active; 'I' for Inactive)
REMARK    1  A    between atoms: C_1  and  O_2
REMARK    2  A    between atoms: O_2  and  C_3
REMARK    3  A    between atoms: C_6  and  C_7
REMARK    4  A    between atoms: N_9  and  C_10
REMARK    5  A    between atoms: N_9  and  C_18
REMARK    6  A    between atoms: C_14  and  O_15
REMARK    7  A    between atoms: O_15  and  C_16
REMARK    8  A    between atoms: N_21  and  C_22
REMARK    9  A    between atoms: C_22  and  C_23
REMARK                            x       y       z     vdW  Elec       q    Type
REMARK                         _______ _______ _______ _____ _____    ______ ____
ROOT
ATOM      1  C   UNL     1      -1.524  13.636  21.105  0.00  0.00    +0.000 C 
ATOM      2  O   UNL     1      -1.133  14.791  21.283  0.00  0.00    +0.000 OA
ATOM      3  N   UNL     1      -0.738  12.610  20.534  0.00  0.00    +0.000 N 
ENDROOT
BRANCH   1   7
ATOM      4  C   UNL     1      -5.412  12.612  22.525  0.00  0.00    +0.000 A 
ATOM      5  C   UNL     1      -5.228  12.889  21.164  0.00  0.00    +0.000 A 
ATOM      6  C   UNL     1      -3.975  13.268  20.680  0.00  0.00    +0.000 A 
ATOM      7  C   UNL     1      -2.900  13.353  21.565  0.00  0.00    +0.000 A 
ATOM      8  C   UNL     1      -3.102  13.164  22.939  0.00  0.00    +0.000 A 
ATOM      9  C   UNL     1      -4.356  12.788  23.420  0.00  0.00    +0.000 A 
BRANCH   4  11
ATOM     10  C   UNL     1      -7.367  13.116  23.748  0.00  0.00    +0.000 C 
ATOM     11  O   UNL     1      -6.676  12.222  22.880  0.00  0.00    +0.000 OA
ENDBRANCH   4  11
ENDBRANCH   1   7
BRANCH   3  12
ATOM     12  C   UNL     1       0.512  13.033  19.988  0.00  0.00    +0.000 A 
ATOM     13  C   UNL     1       0.703  13.156  18.611  0.00  0.00    +0.000 A 
ATOM     14  C   UNL     1       1.931  13.607  18.116  0.00  0.00    +0.000 A 
ATOM     15  C   UNL     1       2.968  13.919  19.002  0.00  0.00    +0.000 A 
ATOM     16  C   UNL     1       2.780  13.797  20.381  0.00  0.00    +0.000 A 
ATOM     17  C   UNL     1       1.546  13.373  20.864  0.00  0.00    +0.000 A 
BRANCH  16  18
ATOM     18  O   UNL     1       3.862  14.117  21.157  0.00  0.00    +0.000 OA
ATOM     19  C   UNL     1       4.642  15.225  20.717  0.00  0.00    +0.000 C 
ENDBRANCH  16  18
ENDBRANCH   3  12
BRANCH   3  20
ATOM     20  C   UNL     1      -1.034  11.136  20.604  0.00  0.00    +0.000 C 
ATOM     21  C   UNL     1       0.114  10.299  21.210  0.00  0.00    +0.000 C 
ATOM     22  C   UNL     1       1.284  10.141  20.251  0.00  0.00    +0.000 C 
ATOM     23  N   UNL     1       0.879   9.495  18.998  0.00  0.00    +0.000 NA
ATOM     24  C   UNL     1      -0.225  10.211  18.344  0.00  0.00    +0.000 C 
ATOM     25  C   UNL     1      -1.415  10.424  19.284  0.00  0.00    +0.000 C 
BRANCH  23  26
ATOM     26  C   UNL     1       2.053   9.431  18.114  0.00  0.00    +0.000 C 
BRANCH  26  27
ATOM     27  C   UNL     1       2.583   8.042  17.855  0.00  0.00    +0.000 A 
ATOM     28  C   UNL     1       3.831   7.856  17.239  0.00  0.00    +0.000 A 
ATOM     29  C   UNL     1       4.455   6.608  17.272  0.00  0.00    +0.000 A 
ATOM     30  C   UNL     1       3.850   5.559  17.960  0.00  0.00    +0.000 A 
ATOM     31  C   UNL     1       2.564   5.721  18.480  0.00  0.00    +0.000 A 
ATOM     32  C   UNL     1       1.907   6.940  18.391  0.00  0.00    +0.000 A 
ATOM     33  O   UNL     1       1.955   4.742  19.222  0.00  0.00    +0.000 OA
ATOM     34  C   UNL     1       2.975   4.149  20.027  0.00  0.00    +0.000 C 
ATOM     35  C   UNL     1       4.045   3.533  19.134  0.00  0.00    +0.000 C 
ATOM     36  O   UNL     1       4.610   4.442  18.176  0.00  0.00    +0.000 OA
ENDBRANCH  26  27
ENDBRANCH  23  26
ENDBRANCH   3  20
TORSDOF 7
ENDMDL
MODEL 5
REMARK VINA RESULT:      -6.9      0.714      1.110
REMARK  Name = 
REMARK  9 active torsions:
REMARK  status: ('A' for Active; 'I' for Inactive)
REMARK    1  A    between atoms: C_1  and  O_2
REMARK    2  A    between atoms: O_2  and  C_3
REMARK    3  A    between atoms: C_6  and  C_7
REMARK    4  A    between atoms: N_9  and  C_10
REMARK    5  A    between atoms: N_9  and  C_18
REMARK    6  A    between atoms: C_14  and  O_15
REMARK    7  A    between atoms: O_15  and  C_16
REMARK    8  A    between atoms: N_21  and  C_22
REMARK    9  A    between atoms: C_22  and  C_23
REMARK                            x       y       z     vdW  Elec       q    Type
REMARK                         _______ _______ _______ _____ _____    ______ ____
ROOT
ATOM      1  C   UNL     1      -1.302  13.578  20.925  0.00  0.00    +0.000 C 
ATOM      2  O   UNL     1      -0.963  14.761  20.986  0.00  0.00    +0.000 OA
ATOM      3  N   UNL     1      -0.458  12.530  20.494  0.00  0.00    +0.000 N 
ENDROOT
BRANCH   1   7
ATOM      4  C   UNL     1      -5.349  12.945  22.111  0.00  0.00    +0.000 A 
ATOM      5  C   UNL     1      -4.343  12.968  23.086  0.00  0.00    +0.000 A 
ATOM      6  C   UNL     1      -3.005  13.131  22.721  0.00  0.00    +0.000 A 
ATOM      7  C   UNL     1      -2.681  13.288  21.373  0.00  0.00    +0.000 A 
ATOM      8  C   UNL     1      -3.675  13.176  20.391  0.00  0.00    +0.000 A 
ATOM      9  C   UNL     1      -5.010  13.011  20.759  0.00  0.00    +0.000 A 
BRANCH   4  11
ATOM     10  C   UNL     1      -7.460  13.952  22.426  0.00  0.00    +0.000 C 
ATOM     11  O   UNL     1      -6.625  12.809  22.587  0.00  0.00    +0.000 OA
ENDBRANCH   4  11
ENDBRANCH   1   7
BRANCH   3  12
ATOM     12  C   UNL     1       0.793  12.944  19.941  0.00  0.00    +0.000 A 
ATOM     13  C   UNL     1       1.013  12.959  18.564  0.00  0.00    +0.000 A 
ATOM     14  C   UNL     1       2.239  13.405  18.060  0.00  0.00    +0.000 A 
ATOM     15  C   UNL     1       3.245  13.819  18.939  0.00  0.00    +0.000 A 
ATOM     16  C   UNL     1       3.028  13.806  20.318  0.00  0.00    +0.000 A 
ATOM     17  C   UNL     1       1.796  13.386  20.808  0.00  0.00    +0.000 A 
BRANCH  16  18
ATOM     18  O   UNL     1       4.082  14.220  21.089  0.00  0.00    +0.000 OA
ATOM     19  C   UNL     1       3.746  14.941  22.270  0.00  0.00    +0.000 C 
ENDBRANCH  16  18
ENDBRANCH   3  12
BRANCH   3  20
ATOM     20  C   UNL     1      -0.698  11.061  20.716  0.00  0.00    +0.000 C 
ATOM     21  C   UNL     1       0.551  10.293  21.200  0.00  0.00    +0.000 C 
ATOM     22  C   UNL     1       1.566  10.081  20.088  0.00  0.00    +0.000 C 
ATOM     23  N   UNL     1       0.995   9.333  18.962  0.00  0.00    +0.000 NA
ATOM     24  C   UNL     1      -0.215   9.978  18.434  0.00  0.00    +0.000 C 
ATOM     25  C   UNL     1      -1.255  10.244  19.527  0.00  0.00    +0.000 C 
BRANCH  23  26
ATOM     26  C   UNL     1       2.023   9.220  17.916  0.00  0.00    +0.000 C 
BRANCH  26  27
ATOM     27  C   UNL     1       2.802   7.928  17.923  0.00  0.00    +0.000 A 
ATOM     28  C   UNL     1       2.213   6.741  18.387  0.00  0.00    +0.000 A 
ATOM     29  C   UNL     1       2.807   5.506  18.116  0.00  0.00    +0.000 A 
ATOM     30  C   UNL     1       3.964   5.459  17.345  0.00  0.00    +0.000 A 
ATOM     31  C   UNL     1       4.601   6.647  16.975  0.00  0.00    +0.000 A 
ATOM     32  C   UNL     1       4.053   7.880  17.299  0.00  0.00    +0.000 A 
ATOM     33  O   UNL     1       5.704   6.654  16.160  0.00  0.00    +0.000 OA
ATOM     34  C   UNL     1       5.495   5.629  15.187  0.00  0.00    +0.000 C 
ATOM     35  C   UNL     1       5.370   4.277  15.878  0.00  0.00    +0.000 C 
ATOM     36  O   UNL     1       4.362   4.227  16.900  0.00  0.00    +0.000 OA
ENDBRANCH  26  27
ENDBRANCH  23  26
ENDBRANCH   3  20
TORSDOF 7
ENDMDL
MODEL 6
REMARK VINA RESULT:      -6.9      2.032      5.415
REMARK  Name = 
REMARK  9 active torsions:
REMARK  status: ('A' for Active; 'I' for Inactive)
REMARK    1  A    between atoms: C_1  and  O_2
REMARK    2  A    between atoms: O_2  and  C_3
REMARK    3  A    between atoms: C_6  and  C_7
REMARK    4  A    between atoms: N_9  and  C_10
REMARK    5  A    between atoms: N_9  and  C_18
REMARK    6  A    between atoms: C_14  and  O_15
REMARK    7  A    between atoms: O_15  and  C_16
REMARK    8  A    between atoms: N_21  and  C_22
REMARK    9  A    between atoms: C_22  and  C_23
REMARK                            x       y       z     vdW  Elec       q    Type
REMARK                         _______ _______ _______ _____ _____    ______ ____
ROOT
ATOM      1  C   UNL     1      -0.117  14.203  19.402  0.00  0.00    +0.000 C 
ATOM      2  O   UNL     1      -0.616  14.834  18.469  0.00  0.00    +0.000 OA
ATOM      3  N   UNL     1      -0.466  12.876  19.742  0.00  0.00    +0.000 N 
ENDROOT
BRANCH   1   7
ATOM      4  C   UNL     1       3.061  16.079  21.539  0.00  0.00    +0.000 A 
ATOM      5  C   UNL     1       1.860  15.796  22.202  0.00  0.00    +0.000 A 
ATOM      6  C   UNL     1       0.789  15.220  21.516  0.00  0.00    +0.000 A 
ATOM      7  C   UNL     1       0.932  14.915  20.162  0.00  0.00    +0.000 A 
ATOM      8  C   UNL     1       2.100  15.280  19.477  0.00  0.00    +0.000 A 
ATOM      9  C   UNL     1       3.167  15.856  20.165  0.00  0.00    +0.000 A 
BRANCH   4  11
ATOM     10  C   UNL     1       3.604  17.271  23.502  0.00  0.00    +0.000 C 
ATOM     11  O   UNL     1       4.050  16.615  22.319  0.00  0.00    +0.000 OA
ENDBRANCH   4  11
ENDBRANCH   1   7
BRANCH   3  12
ATOM     12  C   UNL     1      -1.593  12.345  19.042  0.00  0.00    +0.000 A 
ATOM     13  C   UNL     1      -2.873  12.367  19.597  0.00  0.00    +0.000 A 
ATOM     14  C   UNL     1      -3.957  11.870  18.867  0.00  0.00    +0.000 A 
ATOM     15  C   UNL     1      -3.752  11.339  17.589  0.00  0.00    +0.000 A 
ATOM     16  C   UNL     1      -2.472  11.316  17.030  0.00  0.00    +0.000 A 
ATOM     17  C   UNL     1      -1.405  11.838  17.754  0.00  0.00    +0.000 A 
BRANCH  16  18
ATOM     18  O   UNL     1      -2.381  10.765  15.779  0.00  0.00    +0.000 OA
ATOM     19  C   UNL     1      -3.610  10.592  15.082  0.00  0.00    +0.000 C 
ENDBRANCH  16  18
ENDBRANCH   3  12
BRANCH   3  20
ATOM     20  C   UNL     1       0.330  11.958  20.629  0.00  0.00    +0.000 C 
ATOM     21  C   UNL     1       1.804  11.796  20.195  0.00  0.00    +0.000 C 
ATOM     22  C   UNL     1       1.950  10.923  18.959  0.00  0.00    +0.000 C 
ATOM     23  N   UNL     1       1.400   9.580  19.171  0.00  0.00    +0.000 NA
ATOM     24  C   UNL     1      -0.003   9.624  19.603  0.00  0.00    +0.000 C 
ATOM     25  C   UNL     1      -0.205  10.521  20.828  0.00  0.00    +0.000 C 
BRANCH  23  26
ATOM     26  C   UNL     1       1.535   8.824  17.916  0.00  0.00    +0.000 C 
BRANCH  26  27
ATOM     27  C   UNL     1       2.491   7.659  17.971  0.00  0.00    +0.000 A 
ATOM     28  C   UNL     1       2.081   6.421  18.493  0.00  0.00    +0.000 A 
ATOM     29  C   UNL     1       2.844   5.273  18.270  0.00  0.00    +0.000 A 
ATOM     30  C   UNL     1       3.994   5.358  17.490  0.00  0.00    +0.000 A 
ATOM     31  C   UNL     1       4.452   6.607  17.063  0.00  0.00    +0.000 A 
ATOM     32  C   UNL     1       3.735   7.762  17.338  0.00  0.00    +0.000 A 
ATOM     33  O   UNL     1       5.540   6.735  16.238  0.00  0.00    +0.000 OA
ATOM     34  C   UNL     1       5.476   5.649  15.312  0.00  0.00    +0.000 C 
ATOM     35  C   UNL     1       5.549   4.325  16.063  0.00  0.00    +0.000 C 
ATOM     36  O   UNL     1       4.562   4.177  17.095  0.00  0.00    +0.000 OA
ENDBRANCH  26  27
ENDBRANCH  23  26
ENDBRANCH   3  20
TORSDOF 7
ENDMDL
MODEL 7
REMARK VINA RESULT:      -6.8      2.272      5.486
REMARK  Name = 
REMARK  9 active torsions:
REMARK  status: ('A' for Active; 'I' for Inactive)
REMARK    1  A    between atoms: C_1  and  O_2
REMARK    2  A    between atoms: O_2  and  C_3
REMARK    3  A    between atoms: C_6  and  C_7
REMARK    4  A    between atoms: N_9  and  C_10
REMARK    5  A    between atoms: N_9  and  C_18
REMARK    6  A    between atoms: C_14  and  O_15
REMARK    7  A    between atoms: O_15  and  C_16
REMARK    8  A    between atoms: N_21  and  C_22
REMARK    9  A    between atoms: C_22  and  C_23
REMARK                            x       y       z     vdW  Elec       q    Type
REMARK                         _______ _______ _______ _____ _____    ______ ____
ROOT
ATOM      1  C   UNL     1      -0.437  14.411  19.529  0.00  0.00    +0.000 C 
ATOM      2  O   UNL     1      -0.839  14.935  18.489  0.00  0.00    +0.000 OA
ATOM      3  N   UNL     1      -0.812  13.120  19.965  0.00  0.00    +0.000 N 
ENDROOT
BRANCH   1   7
ATOM      4  C   UNL     1       2.484  16.550  21.781  0.00  0.00    +0.000 A 
ATOM      5  C   UNL     1       1.225  16.305  22.346  0.00  0.00    +0.000 A 
ATOM      6  C   UNL     1       0.236  15.644  21.615  0.00  0.00    +0.000 A 
ATOM      7  C   UNL     1       0.520  15.214  20.318  0.00  0.00    +0.000 A 
ATOM      8  C   UNL     1       1.747  15.537  19.721  0.00  0.00    +0.000 A 
ATOM      9  C   UNL     1       2.732  16.199  20.454  0.00  0.00    +0.000 A 
BRANCH   4  11
ATOM     10  C   UNL     1       4.064  16.330  23.521  0.00  0.00    +0.000 C 
ATOM     11  O   UNL     1       3.383  17.178  22.601  0.00  0.00    +0.000 OA
ENDBRANCH   4  11
ENDBRANCH   1   7
BRANCH   3  12
ATOM     12  C   UNL     1      -1.856  12.501  19.209  0.00  0.00    +0.000 A 
ATOM     13  C   UNL     1      -3.174  12.481  19.666  0.00  0.00    +0.000 A 
ATOM     14  C   UNL     1      -4.173  11.898  18.881  0.00  0.00    +0.000 A 
ATOM     15  C   UNL     1      -3.845  11.322  17.648  0.00  0.00    +0.000 A 
ATOM     16  C   UNL     1      -2.527  11.341  17.188  0.00  0.00    +0.000 A 
ATOM     17  C   UNL     1      -1.545  11.948  17.964  0.00  0.00    +0.000 A 
BRANCH  16  18
ATOM     18  O   UNL     1      -2.313  10.741  15.975  0.00  0.00    +0.000 OA
ATOM     19  C   UNL     1      -3.452  10.622  15.128  0.00  0.00    +0.000 C 
ENDBRANCH  16  18
ENDBRANCH   3  12
BRANCH   3  20
ATOM     20  C   UNL     1      -0.109  12.311  21.021  0.00  0.00    +0.000 C 
ATOM     21  C   UNL     1       1.403  12.132  20.764  0.00  0.00    +0.000 C 
ATOM     22  C   UNL     1       1.687  11.141  19.645  0.00  0.00    +0.000 C 
ATOM     23  N   UNL     1       1.127   9.817  19.935  0.00  0.00    +0.000 NA
ATOM     24  C   UNL     1      -0.314   9.879  20.209  0.00  0.00    +0.000 C 
ATOM     25  C   UNL     1      -0.653  10.891  21.308  0.00  0.00    +0.000 C 
BRANCH  23  26
ATOM     26  C   UNL     1       1.401   8.941  18.785  0.00  0.00    +0.000 C 
BRANCH  26  27
ATOM     27  C   UNL     1       2.161   7.679  19.109  0.00  0.00    +0.000 A 
ATOM     28  C   UNL     1       1.886   6.959  20.283  0.00  0.00    +0.000 A 
ATOM     29  C   UNL     1       2.356   5.654  20.438  0.00  0.00    +0.000 A 
ATOM     30  C   UNL     1       3.065   5.056  19.400  0.00  0.00    +0.000 A 
ATOM     31  C   UNL     1       3.425   5.811  18.280  0.00  0.00    +0.000 A 
ATOM     32  C   UNL     1       3.019   7.131  18.149  0.00  0.00    +0.000 A 
ATOM     33  O   UNL     1       4.064   5.249  17.204  0.00  0.00    +0.000 OA
ATOM     34  C   UNL     1       3.498   3.949  17.031  0.00  0.00    +0.000 C 
ATOM     35  C   UNL     1       3.746   3.107  18.276  0.00  0.00    +0.000 C 
ATOM     36  O   UNL     1       3.284   3.708  19.496  0.00  0.00    +0.000 OA
ENDBRANCH  26  27
ENDBRANCH  23  26
ENDBRANCH   3  20
TORSDOF 7
ENDMDL
MODEL 8
REMARK VINA RESULT:      -6.8      1.836      5.921
REMARK  Name = 
REMARK  9 active torsions:
REMARK  status: ('A' for Active; 'I' for Inactive)
REMARK    1  A    between atoms: C_1  and  O_2
REMARK    2  A    between atoms: O_2  and  C_3
REMARK    3  A    between atoms: C_6  and  C_7
REMARK    4  A    between atoms: N_9  and  C_10
REMARK    5  A    between atoms: N_9  and  C_18
REMARK    6  A    between atoms: C_14  and  O_15
REMARK    7  A    between atoms: O_15  and  C_16
REMARK    8  A    between atoms: N_21  and  C_22
REMARK    9  A    between atoms: C_22  and  C_23
REMARK                            x       y       z     vdW  Elec       q    Type
REMARK                         _______ _______ _______ _____ _____    ______ ____
ROOT
ATOM      1  C   UNL     1       0.337  14.566  21.082  0.00  0.00    +0.000 C 
ATOM      2  O   UNL     1       0.122  15.221  22.103  0.00  0.00    +0.000 OA
ATOM      3  N   UNL     1      -0.487  13.513  20.624  0.00  0.00    +0.000 N 
ENDROOT
BRANCH   1   7
ATOM      4  C   UNL     1       3.668  15.644  18.648  0.00  0.00    +0.000 A 
ATOM      5  C   UNL     1       3.870  14.824  19.766  0.00  0.00    +0.000 A 
ATOM      6  C   UNL     1       2.804  14.490  20.604  0.00  0.00    +0.000 A 
ATOM      7  C   UNL     1       1.528  14.970  20.306  0.00  0.00    +0.000 A 
ATOM      8  C   UNL     1       1.341  15.862  19.241  0.00  0.00    +0.000 A 
ATOM      9  C   UNL     1       2.409  16.195  18.407  0.00  0.00    +0.000 A 
BRANCH   4  11
ATOM     10  C   UNL     1       5.722  14.812  17.836  0.00  0.00    +0.000 C 
ATOM     11  O   UNL     1       4.779  15.879  17.883  0.00  0.00    +0.000 OA
ENDBRANCH   4  11
ENDBRANCH   1   7
BRANCH   3  12
ATOM     12  C   UNL     1      -1.518  13.110  21.529  0.00  0.00    +0.000 A 
ATOM     13  C   UNL     1      -1.245  12.300  22.631  0.00  0.00    +0.000 A 
ATOM     14  C   UNL     1      -2.274  11.956  23.513  0.00  0.00    +0.000 A 
ATOM     15  C   UNL     1      -3.576  12.411  23.279  0.00  0.00    +0.000 A 
ATOM     16  C   UNL     1      -3.852  13.223  22.176  0.00  0.00    +0.000 A 
ATOM     17  C   UNL     1      -2.816  13.582  21.320  0.00  0.00    +0.000 A 
BRANCH  16  18
ATOM     18  O   UNL     1      -5.160  13.604  22.033  0.00  0.00    +0.000 OA
ATOM     19  C   UNL     1      -6.095  12.961  22.894  0.00  0.00    +0.000 C 
ENDBRANCH  16  18
ENDBRANCH   3  12
BRANCH   3  20
ATOM     20  C   UNL     1      -0.467  12.920  19.242  0.00  0.00    +0.000 C 
ATOM     21  C   UNL     1      -1.319  11.639  19.102  0.00  0.00    +0.000 C 
ATOM     22  C   UNL     1      -0.665  10.434  19.759  0.00  0.00    +0.000 C 
ATOM     23  N   UNL     1       0.656  10.152  19.187  0.00  0.00    +0.000 NA
ATOM     24  C   UNL     1       1.546  11.319  19.259  0.00  0.00    +0.000 C 
ATOM     25  C   UNL     1       0.914  12.569  18.639  0.00  0.00    +0.000 C 
BRANCH  23  26
ATOM     26  C   UNL     1       1.236   9.010  19.912  0.00  0.00    +0.000 C 
BRANCH  26  27
ATOM     27  C   UNL     1       1.987   8.022  19.053  0.00  0.00    +0.000 A 
ATOM     28  C   UNL     1       2.469   8.396  17.788  0.00  0.00    +0.000 A 
ATOM     29  C   UNL     1       3.411   7.602  17.130  0.00  0.00    +0.000 A 
ATOM     30  C   UNL     1       3.899   6.459  17.757  0.00  0.00    +0.000 A 
ATOM     31  C   UNL     1       3.340   6.038  18.966  0.00  0.00    +0.000 A 
ATOM     32  C   UNL     1       2.354   6.786  19.594  0.00  0.00    +0.000 A 
ATOM     33  O   UNL     1       3.832   4.959  19.654  0.00  0.00    +0.000 OA
ATOM     34  C   UNL     1       5.252   4.997  19.505  0.00  0.00    +0.000 C 
ATOM     35  C   UNL     1       5.621   4.884  18.031  0.00  0.00    +0.000 C 
ATOM     36  O   UNL     1       4.991   5.861  17.189  0.00  0.00    +0.000 OA
ENDBRANCH  26  27
ENDBRANCH  23  26
ENDBRANCH   3  20
TORSDOF 7
ENDMDL
MODEL 9
REMARK VINA RESULT:      -6.8      2.814      6.726
REMARK  Name = 
REMARK  9 active torsions:
REMARK  status: ('A' for Active; 'I' for Inactive)
REMARK    1  A    between atoms: C_1  and  O_2
REMARK    2  A    between atoms: O_2  and  C_3
REMARK    3  A    between atoms: C_6  and  C_7
REMARK    4  A    between atoms: N_9  and  C_10
REMARK    5  A    between atoms: N_9  and  C_18
REMARK    6  A    between atoms: C_14  and  O_15
REMARK    7  A    between atoms: O_15  and  C_16
REMARK    8  A    between atoms: N_21  and  C_22
REMARK    9  A    between atoms: C_22  and  C_23
REMARK                            x       y       z     vdW  Elec       q    Type
REMARK                         _______ _______ _______ _____ _____    ______ ____
ROOT
ATOM      1  C   UNL     1      -2.589  10.755  18.653  0.00  0.00    +0.000 C 
ATOM      2  O   UNL     1      -2.609   9.701  18.016  0.00  0.00    +0.000 OA
ATOM      3  N   UNL     1      -1.479  11.213  19.398  0.00  0.00    +0.000 N 
ENDROOT
BRANCH   1   7
ATOM      4  C   UNL     1      -6.038  13.231  18.257  0.00  0.00    +0.000 A 
ATOM      5  C   UNL     1      -5.423  13.105  19.510  0.00  0.00    +0.000 A 
ATOM      6  C   UNL     1      -4.318  12.268  19.676  0.00  0.00    +0.000 A 
ATOM      7  C   UNL     1      -3.821  11.568  18.576  0.00  0.00    +0.000 A 
ATOM      8  C   UNL     1      -4.489  11.624  17.345  0.00  0.00    +0.000 A 
ATOM      9  C   UNL     1      -5.594  12.460  17.182  0.00  0.00    +0.000 A 
BRANCH   4  11
ATOM     10  C   UNL     1      -6.978  15.248  19.044  0.00  0.00    +0.000 C 
ATOM     11  O   UNL     1      -7.094  14.102  18.206  0.00  0.00    +0.000 OA
ENDBRANCH   4  11
ENDBRANCH   1   7
BRANCH   3  12
ATOM     12  C   UNL     1      -0.406  10.279  19.528  0.00  0.00    +0.000 A 
ATOM     13  C   UNL     1      -0.210   9.553  20.703  0.00  0.00    +0.000 A 
ATOM     14  C   UNL     1       0.830   8.621  20.779  0.00  0.00    +0.000 A 
ATOM     15  C   UNL     1       1.680   8.432  19.684  0.00  0.00    +0.000 A 
ATOM     16  C   UNL     1       1.486   9.157  18.506  0.00  0.00    +0.000 A 
ATOM     17  C   UNL     1       0.432  10.062  18.431  0.00  0.00    +0.000 A 
BRANCH  16  18
ATOM     18  O   UNL     1       2.380   8.904  17.499  0.00  0.00    +0.000 OA
ATOM     19  C   UNL     1       3.198   7.750  17.666  0.00  0.00    +0.000 C 
ENDBRANCH  16  18
ENDBRANCH   3  12
BRANCH   3  20
ATOM     20  C   UNL     1      -1.279  12.617  19.902  0.00  0.00    +0.000 C 
ATOM     21  C   UNL     1      -0.899  13.627  18.798  0.00  0.00    +0.000 C 
ATOM     22  C   UNL     1       0.539  13.462  18.332  0.00  0.00    +0.000 C 
ATOM     23  N   UNL     1       1.492  13.631  19.434  0.00  0.00    +0.000 NA
ATOM     24  C   UNL     1       1.208  12.718  20.550  0.00  0.00    +0.000 C 
ATOM     25  C   UNL     1      -0.242  12.825  21.032  0.00  0.00    +0.000 C 
BRANCH  23  26
ATOM     26  C   UNL     1       2.847  13.404  18.909  0.00  0.00    +0.000 C 
BRANCH  26  27
ATOM     27  C   UNL     1       3.671  14.651  18.702  0.00  0.00    +0.000 A 
ATOM     28  C   UNL     1       3.306  15.859  19.319  0.00  0.00    +0.000 A 
ATOM     29  C   UNL     1       4.211  16.920  19.383  0.00  0.00    +0.000 A 
ATOM     30  C   UNL     1       5.493  16.756  18.868  0.00  0.00    +0.000 A 
ATOM     31  C   UNL     1       5.815  15.592  18.165  0.00  0.00    +0.000 A 
ATOM     32  C   UNL     1       4.898  14.560  18.037  0.00  0.00    +0.000 A 
ATOM     33  O   UNL     1       7.083  15.356  17.698  0.00  0.00    +0.000 OA
ATOM     34  C   UNL     1       7.980  15.855  18.692  0.00  0.00    +0.000 C 
ATOM     35  C   UNL     1       7.767  17.352  18.876  0.00  0.00    +0.000 C 
ATOM     36  O   UNL     1       6.412  17.723  19.176  0.00  0.00    +0.000 OA
ENDBRANCH  26  27
ENDBRANCH  23  26
ENDBRANCH   3  20
TORSDOF 7
ENDMDL
