MODEL 1
REMARK VINA RESULT:      -8.6      0.000      0.000
REMARK  Name = 
REMARK  2 active torsions:
REMARK  status: ('A' for Active; 'I' for Inactive)
REMARK    1  A    between atoms: C_12  and  O_13
REMARK    2  A    between atoms: O_13  and  C_14
REMARK                            x       y       z     vdW  Elec       q    Type
REMARK                         _______ _______ _______ _____ _____    ______ ____
ROOT
ATOM      1  O   UNL     1       2.177   7.393  19.024  0.00  0.00    +0.000 OA
ATOM      2  N   UNL     1       2.783   6.273  19.080  0.00  0.00    +0.000 N 
ATOM      3  N   UNL     1       2.456   5.386  19.945  0.00  0.00    +0.000 NA
ATOM      4  C   UNL     1       3.120   4.197  20.004  0.00  0.00    +0.000 A 
ATOM      5  C   UNL     1       2.970   3.075  20.786  0.00  0.00    +0.000 A 
ATOM      6 CL   UNL     1       1.822   2.783  21.996  0.00  0.00    +0.000 Cl
ATOM      7  C   UNL     1       3.977   2.188  20.365  0.00  0.00    +0.000 A 
ATOM      8  N   UNL     1       4.737   2.702  19.391  0.00  0.00    +0.000 NA
ATOM      9  N   UNL     1       4.197   3.921  19.186  0.00  0.00    +0.000 N 
ATOM     10  C   UNL     1       4.627   4.837  18.220  0.00  0.00    +0.000 A 
ATOM     11  C   UNL     1       5.720   4.602  17.380  0.00  0.00    +0.000 A 
ATOM     12  C   UNL     1       6.061   5.572  16.432  0.00  0.00    +0.000 A 
ATOM     13  C   UNL     1       5.247   6.705  16.271  0.00  0.00    +0.000 A 
ATOM     14  C   UNL     1       4.187   6.954  17.143  0.00  0.00    +0.000 A 
ATOM     15  C   UNL     1       3.883   6.021  18.134  0.00  0.00    +0.000 A 
ENDROOT
BRANCH  12  16
ATOM     16  O   UNL     1       7.191   5.334  15.672  0.00  0.00    +0.000 OA
BRANCH  16  17
ATOM     17  C   UNL     1       7.035   4.884  14.376  0.00  0.00    +0.000 A 
ATOM     18  C   UNL     1       6.123   3.888  14.010  0.00  0.00    +0.000 A 
ATOM     19  C   UNL     1       6.099   3.403  12.702  0.00  0.00    +0.000 A 
ATOM     20  C   UNL     1       6.932   3.965  11.737  0.00  0.00    +0.000 A 
ATOM     21  C   UNL     1       7.777   5.023  12.077  0.00  0.00    +0.000 A 
ATOM     22  C   UNL     1       7.830   5.483  13.395  0.00  0.00    +0.000 A 
ENDBRANCH  16  17
ENDBRANCH  12  16
TORSDOF 2
ENDMDL
MODEL 2
REMARK VINA RESULT:      -8.5      0.199      1.043
REMARK  Name = 
REMARK  2 active torsions:
REMARK  status: ('A' for Active; 'I' for Inactive)
REMARK    1  A    between atoms: C_12  and  O_13
REMARK    2  A    between atoms: O_13  and  C_14
REMARK                            x       y       z     vdW  Elec       q    Type
REMARK                         _______ _______ _______ _____ _____    ______ ____
ROOT
ATOM      1  O   UNL     1       2.178   7.452  19.159  0.00  0.00    +0.000 OA
ATOM      2  N   UNL     1       2.780   6.329  19.182  0.00  0.00    +0.000 N 
ATOM      3  N   UNL     1       2.446   5.414  20.014  0.00  0.00    +0.000 NA
ATOM      4  C   UNL     1       3.106   4.223  20.037  0.00  0.00    +0.000 A 
ATOM      5  C   UNL     1       2.948   3.075  20.780  0.00  0.00    +0.000 A 
ATOM      6 CL   UNL     1       1.792   2.746  21.972  0.00  0.00    +0.000 Cl
ATOM      7  C   UNL     1       3.956   2.200  20.337  0.00  0.00    +0.000 A 
ATOM      8  N   UNL     1       4.724   2.745  19.386  0.00  0.00    +0.000 NA
ATOM      9  N   UNL     1       4.188   3.971  19.218  0.00  0.00    +0.000 N 
ATOM     10  C   UNL     1       4.627   4.918  18.287  0.00  0.00    +0.000 A 
ATOM     11  C   UNL     1       5.726   4.708  17.446  0.00  0.00    +0.000 A 
ATOM     12  C   UNL     1       6.075   5.708  16.533  0.00  0.00    +0.000 A 
ATOM     13  C   UNL     1       5.265   6.849  16.405  0.00  0.00    +0.000 A 
ATOM     14  C   UNL     1       4.200   7.071  17.278  0.00  0.00    +0.000 A 
ATOM     15  C   UNL     1       3.887   6.106  18.235  0.00  0.00    +0.000 A 
ENDROOT
BRANCH  12  16
ATOM     16  O   UNL     1       7.210   5.494  15.774  0.00  0.00    +0.000 OA
BRANCH  16  17
ATOM     17  C   UNL     1       7.069   4.954  14.510  0.00  0.00    +0.000 A 
ATOM     18  C   UNL     1       7.840   5.350  13.412  0.00  0.00    +0.000 A 
ATOM     19  C   UNL     1       7.566   4.843  12.141  0.00  0.00    +0.000 A 
ATOM     20  C   UNL     1       6.572   3.882  11.976  0.00  0.00    +0.000 A 
ATOM     21  C   UNL     1       5.863   3.415  13.084  0.00  0.00    +0.000 A 
ATOM     22  C   UNL     1       6.110   3.950  14.352  0.00  0.00    +0.000 A 
ENDBRANCH  16  17
ENDBRANCH  12  16
TORSDOF 2
ENDMDL
MODEL 3
REMARK VINA RESULT:      -8.3      5.774      7.447
REMARK  Name = 
REMARK  2 active torsions:
REMARK  status: ('A' for Active; 'I' for Inactive)
REMARK    1  A    between atoms: C_12  and  O_13
REMARK    2  A    between atoms: O_13  and  C_14
REMARK                            x       y       z     vdW  Elec       q    Type
REMARK                         _______ _______ _______ _____ _____    ______ ____
ROOT
ATOM      1  O   UNL     1       0.291  12.154  18.171  0.00  0.00    +0.000 OA
ATOM      2  N   UNL     1       0.221  11.438  19.222  0.00  0.00    +0.000 N 
ATOM      3  N   UNL     1      -0.390  11.854  20.269  0.00  0.00    +0.000 NA
ATOM      4  C   UNL     1      -0.447  11.084  21.391  0.00  0.00    +0.000 A 
ATOM      5  C   UNL     1      -1.045  11.254  22.619  0.00  0.00    +0.000 A 
ATOM      6 CL   UNL     1      -1.982  12.557  23.159  0.00  0.00    +0.000 Cl
ATOM      7  C   UNL     1      -0.726  10.099  23.354  0.00  0.00    +0.000 A 
ATOM      8  N   UNL     1       0.037   9.246  22.661  0.00  0.00    +0.000 NA
ATOM      9  N   UNL     1       0.191   9.863  21.472  0.00  0.00    +0.000 N 
ATOM     10  C   UNL     1       0.890   9.337  20.380  0.00  0.00    +0.000 A 
ATOM     11  C   UNL     1       1.560   8.110  20.423  0.00  0.00    +0.000 A 
ATOM     12  C   UNL     1       2.214   7.659  19.272  0.00  0.00    +0.000 A 
ATOM     13  C   UNL     1       2.102   8.387  18.076  0.00  0.00    +0.000 A 
ATOM     14  C   UNL     1       1.471   9.631  18.054  0.00  0.00    +0.000 A 
ATOM     15  C   UNL     1       0.873  10.117  19.217  0.00  0.00    +0.000 A 
ENDROOT
BRANCH  12  16
ATOM     16  O   UNL     1       2.926   6.479  19.378  0.00  0.00    +0.000 OA
BRANCH  16  17
ATOM     17  C   UNL     1       2.232   5.285  19.390  0.00  0.00    +0.000 A 
ATOM     18  C   UNL     1       1.757   4.680  20.559  0.00  0.00    +0.000 A 
ATOM     19  C   UNL     1       1.163   3.419  20.507  0.00  0.00    +0.000 A 
ATOM     20  C   UNL     1       0.972   2.792  19.278  0.00  0.00    +0.000 A 
ATOM     21  C   UNL     1       1.358   3.433  18.101  0.00  0.00    +0.000 A 
ATOM     22  C   UNL     1       1.989   4.680  18.155  0.00  0.00    +0.000 A 
ENDBRANCH  16  17
ENDBRANCH  12  16
TORSDOF 2
ENDMDL
MODEL 4
REMARK VINA RESULT:      -8.1      5.752      7.488
REMARK  Name = 
REMARK  2 active torsions:
REMARK  status: ('A' for Active; 'I' for Inactive)
REMARK    1  A    between atoms: C_12  and  O_13
REMARK    2  A    between atoms: O_13  and  C_14
REMARK                            x       y       z     vdW  Elec       q    Type
REMARK                         _______ _______ _______ _____ _____    ______ ____
ROOT
ATOM      1  O   UNL     1      -0.157  12.056  18.097  0.00  0.00    +0.000 OA
ATOM      2  N   UNL     1      -0.103  11.375  19.173  0.00  0.00    +0.000 N 
ATOM      3  N   UNL     1      -0.663  11.789  20.248  0.00  0.00    +0.000 NA
ATOM      4  C   UNL     1      -0.587  11.059  21.395  0.00  0.00    +0.000 A 
ATOM      5  C   UNL     1      -1.106  11.234  22.658  0.00  0.00    +0.000 A 
ATOM      6 CL   UNL     1      -2.088  12.492  23.224  0.00  0.00    +0.000 Cl
ATOM      7  C   UNL     1      -0.658  10.130  23.404  0.00  0.00    +0.000 A 
ATOM      8  N   UNL     1       0.109   9.303  22.684  0.00  0.00    +0.000 NA
ATOM      9  N   UNL     1       0.135   9.885  21.468  0.00  0.00    +0.000 N 
ATOM     10  C   UNL     1       0.787   9.366  20.344  0.00  0.00    +0.000 A 
ATOM     11  C   UNL     1       1.540   8.187  20.376  0.00  0.00    +0.000 A 
ATOM     12  C   UNL     1       2.139   7.738  19.195  0.00  0.00    +0.000 A 
ATOM     13  C   UNL     1       1.892   8.413  17.988  0.00  0.00    +0.000 A 
ATOM     14  C   UNL     1       1.179   9.612  17.973  0.00  0.00    +0.000 A 
ATOM     15  C   UNL     1       0.635  10.100  19.161  0.00  0.00    +0.000 A 
ENDROOT
BRANCH  12  16
ATOM     16  O   UNL     1       2.934   6.612  19.285  0.00  0.00    +0.000 OA
BRANCH  16  17
ATOM     17  C   UNL     1       2.327   5.370  19.286  0.00  0.00    +0.000 A 
ATOM     18  C   UNL     1       2.039   4.652  18.120  0.00  0.00    +0.000 A 
ATOM     19  C   UNL     1       1.323   3.457  18.190  0.00  0.00    +0.000 A 
ATOM     20  C   UNL     1       0.960   2.936  19.431  0.00  0.00    +0.000 A 
ATOM     21  C   UNL     1       1.328   3.602  20.601  0.00  0.00    +0.000 A 
ATOM     22  C   UNL     1       2.012   4.819  20.530  0.00  0.00    +0.000 A 
ENDBRANCH  16  17
ENDBRANCH  12  16
TORSDOF 2
ENDMDL
MODEL 5
REMARK VINA RESULT:      -7.7      5.007      6.737
REMARK  Name = 
REMARK  2 active torsions:
REMARK  status: ('A' for Active; 'I' for Inactive)
REMARK    1  A    between atoms: C_12  and  O_13
REMARK    2  A    between atoms: O_13  and  C_14
REMARK                            x       y       z     vdW  Elec       q    Type
REMARK                         _______ _______ _______ _____ _____    ______ ____
ROOT
ATOM      1  O   UNL     1      -0.667  11.658  18.107  0.00  0.00    +0.000 OA
ATOM      2  N   UNL     1      -0.419  11.025  19.185  0.00  0.00    +0.000 N 
ATOM      3  N   UNL     1      -0.935  11.387  20.301  0.00  0.00    +0.000 NA
ATOM      4  C   UNL     1      -0.651  10.709  21.448  0.00  0.00    +0.000 A 
ATOM      5  C   UNL     1      -1.074  10.847  22.750  0.00  0.00    +0.000 A 
ATOM      6 CL   UNL     1      -2.173  11.968  23.385  0.00  0.00    +0.000 Cl
ATOM      7  C   UNL     1      -0.406   9.840  23.470  0.00  0.00    +0.000 A 
ATOM      8  N   UNL     1       0.405   9.110  22.695  0.00  0.00    +0.000 NA
ATOM      9  N   UNL     1       0.238   9.653  21.472  0.00  0.00    +0.000 N 
ATOM     10  C   UNL     1       0.854   9.198  20.302  0.00  0.00    +0.000 A 
ATOM     11  C   UNL     1       1.770   8.141  20.283  0.00  0.00    +0.000 A 
ATOM     12  C   UNL     1       2.318   7.747  19.059  0.00  0.00    +0.000 A 
ATOM     13  C   UNL     1       1.868   8.343  17.869  0.00  0.00    +0.000 A 
ATOM     14  C   UNL     1       0.991   9.427  17.900  0.00  0.00    +0.000 A 
ATOM     15  C   UNL     1       0.491   9.868  19.126  0.00  0.00    +0.000 A 
ENDROOT
BRANCH  12  16
ATOM     16  O   UNL     1       3.273   6.748  19.093  0.00  0.00    +0.000 OA
BRANCH  16  17
ATOM     17  C   UNL     1       2.997   5.545  18.472  0.00  0.00    +0.000 A 
ATOM     18  C   UNL     1       1.817   4.822  18.682  0.00  0.00    +0.000 A 
ATOM     19  C   UNL     1       1.654   3.561  18.109  0.00  0.00    +0.000 A 
ATOM     20  C   UNL     1       2.637   3.050  17.263  0.00  0.00    +0.000 A 
ATOM     21  C   UNL     1       3.772   3.809  16.977  0.00  0.00    +0.000 A 
ATOM     22  C   UNL     1       3.954   5.056  17.581  0.00  0.00    +0.000 A 
ENDBRANCH  16  17
ENDBRANCH  12  16
TORSDOF 2
ENDMDL
MODEL 6
REMARK VINA RESULT:      -7.5      1.182      1.367
REMARK  Name = 
REMARK  2 active torsions:
REMARK  status: ('A' for Active; 'I' for Inactive)
REMARK    1  A    between atoms: C_12  and  O_13
REMARK    2  A    between atoms: O_13  and  C_14
REMARK                            x       y       z     vdW  Elec       q    Type
REMARK                         _______ _______ _______ _____ _____    ______ ____
ROOT
ATOM      1  O   UNL     1       2.807   7.518  18.815  0.00  0.00    +0.000 OA
ATOM      2  N   UNL     1       3.012   6.274  18.629  0.00  0.00    +0.000 N 
ATOM      3  N   UNL     1       2.459   5.393  19.377  0.00  0.00    +0.000 NA
ATOM      4  C   UNL     1       2.697   4.066  19.177  0.00  0.00    +0.000 A 
ATOM      5  C   UNL     1       2.229   2.925  19.787  0.00  0.00    +0.000 A 
ATOM      6 CL   UNL     1       1.116   2.793  21.057  0.00  0.00    +0.000 Cl
ATOM      7  C   UNL     1       2.863   1.859  19.125  0.00  0.00    +0.000 A 
ATOM      8  N   UNL     1       3.695   2.276  18.164  0.00  0.00    +0.000 NA
ATOM      9  N   UNL     1       3.576   3.619  18.212  0.00  0.00    +0.000 N 
ATOM     10  C   UNL     1       4.230   4.513  17.358  0.00  0.00    +0.000 A 
ATOM     11  C   UNL     1       5.138   4.103  16.375  0.00  0.00    +0.000 A 
ATOM     12  C   UNL     1       5.727   5.073  15.557  0.00  0.00    +0.000 A 
ATOM     13  C   UNL     1       5.324   6.414  15.665  0.00  0.00    +0.000 A 
ATOM     14  C   UNL     1       4.455   6.820  16.677  0.00  0.00    +0.000 A 
ATOM     15  C   UNL     1       3.915   5.866  17.539  0.00  0.00    +0.000 A 
ENDROOT
BRANCH  12  16
ATOM     16  O   UNL     1       6.672   4.635  14.649  0.00  0.00    +0.000 OA
BRANCH  16  17
ATOM     17  C   UNL     1       6.242   4.012  13.493  0.00  0.00    +0.000 A 
ATOM     18  C   UNL     1       4.893   3.870  13.150  0.00  0.00    +0.000 A 
ATOM     19  C   UNL     1       4.528   3.130  12.024  0.00  0.00    +0.000 A 
ATOM     20  C   UNL     1       5.513   2.595  11.196  0.00  0.00    +0.000 A 
ATOM     21  C   UNL     1       6.860   2.814  11.484  0.00  0.00    +0.000 A 
ATOM     22  C   UNL     1       7.227   3.522  12.632  0.00  0.00    +0.000 A 
ENDBRANCH  16  17
ENDBRANCH  12  16
TORSDOF 2
ENDMDL
MODEL 7
REMARK VINA RESULT:      -7.4      3.884      7.210
REMARK  Name = 
REMARK  2 active torsions:
REMARK  status: ('A' for Active; 'I' for Inactive)
REMARK    1  A    between atoms: C_12  and  O_13
REMARK    2  A    between atoms: O_13  and  C_14
REMARK                            x       y       z     vdW  Elec       q    Type
REMARK                         _______ _______ _______ _____ _____    ______ ____
ROOT
ATOM      1  O   UNL     1       2.836   1.885  18.472  0.00  0.00    +0.000 OA
ATOM      2  N   UNL     1       3.258   3.020  18.074  0.00  0.00    +0.000 N 
ATOM      3  N   UNL     1       4.069   3.117  17.087  0.00  0.00    +0.000 NA
ATOM      4  C   UNL     1       4.522   4.335  16.679  0.00  0.00    +0.000 A 
ATOM      5  C   UNL     1       5.351   4.736  15.656  0.00  0.00    +0.000 A 
ATOM      6 CL   UNL     1       6.110   3.778  14.484  0.00  0.00    +0.000 Cl
ATOM      7  C   UNL     1       5.439   6.134  15.771  0.00  0.00    +0.000 A 
ATOM      8  N   UNL     1       4.732   6.609  16.803  0.00  0.00    +0.000 NA
ATOM      9  N   UNL     1       4.182   5.499  17.338  0.00  0.00    +0.000 N 
ATOM     10  C   UNL     1       3.310   5.484  18.432  0.00  0.00    +0.000 A 
ATOM     11  C   UNL     1       2.949   6.638  19.135  0.00  0.00    +0.000 A 
ATOM     12  C   UNL     1       2.054   6.523  20.204  0.00  0.00    +0.000 A 
ATOM     13  C   UNL     1       1.461   5.281  20.485  0.00  0.00    +0.000 A 
ATOM     14  C   UNL     1       1.862   4.128  19.810  0.00  0.00    +0.000 A 
ATOM     15  C   UNL     1       2.804   4.227  18.786  0.00  0.00    +0.000 A 
ENDROOT
BRANCH  12  16
ATOM     16  O   UNL     1       1.781   7.674  20.918  0.00  0.00    +0.000 OA
BRANCH  16  17
ATOM     17  C   UNL     1       1.109   8.702  20.285  0.00  0.00    +0.000 A 
ATOM     18  C   UNL     1       1.429   9.157  19.001  0.00  0.00    +0.000 A 
ATOM     19  C   UNL     1       0.784  10.274  18.469  0.00  0.00    +0.000 A 
ATOM     20  C   UNL     1      -0.237  10.893  19.187  0.00  0.00    +0.000 A 
ATOM     21  C   UNL     1      -0.624  10.385  20.428  0.00  0.00    +0.000 A 
ATOM     22  C   UNL     1       0.049   9.290  20.979  0.00  0.00    +0.000 A 
ENDBRANCH  16  17
ENDBRANCH  12  16
TORSDOF 2
ENDMDL
MODEL 8
REMARK VINA RESULT:      -7.4      2.107      3.297
REMARK  Name = 
REMARK  2 active torsions:
REMARK  status: ('A' for Active; 'I' for Inactive)
REMARK    1  A    between atoms: C_12  and  O_13
REMARK    2  A    between atoms: O_13  and  C_14
REMARK                            x       y       z     vdW  Elec       q    Type
REMARK                         _______ _______ _______ _____ _____    ______ ____
ROOT
ATOM      1  O   UNL     1       3.284   4.033  20.251  0.00  0.00    +0.000 OA
ATOM      2  N   UNL     1       3.311   5.106  19.564  0.00  0.00    +0.000 N 
ATOM      3  N   UNL     1       2.455   6.039  19.759  0.00  0.00    +0.000 NA
ATOM      4  C   UNL     1       2.486   7.177  19.009  0.00  0.00    +0.000 A 
ATOM      5  C   UNL     1       1.735   8.329  19.018  0.00  0.00    +0.000 A 
ATOM      6 CL   UNL     1       0.453   8.740  20.046  0.00  0.00    +0.000 Cl
ATOM      7  C   UNL     1       2.259   9.126  17.985  0.00  0.00    +0.000 A 
ATOM      8  N   UNL     1       3.269   8.529  17.341  0.00  0.00    +0.000 NA
ATOM      9  N   UNL     1       3.391   7.349  17.981  0.00  0.00    +0.000 N 
ATOM     10  C   UNL     1       4.354   6.376  17.693  0.00  0.00    +0.000 A 
ATOM     11  C   UNL     1       5.280   6.505  16.653  0.00  0.00    +0.000 A 
ATOM     12  C   UNL     1       6.217   5.486  16.456  0.00  0.00    +0.000 A 
ATOM     13  C   UNL     1       6.279   4.411  17.358  0.00  0.00    +0.000 A 
ATOM     14  C   UNL     1       5.322   4.267  18.364  0.00  0.00    +0.000 A 
ATOM     15  C   UNL     1       4.344   5.248  18.524  0.00  0.00    +0.000 A 
ENDROOT
BRANCH  12  16
ATOM     16  O   UNL     1       7.066   5.617  15.373  0.00  0.00    +0.000 OA
BRANCH  16  17
ATOM     17  C   UNL     1       6.769   4.929  14.212  0.00  0.00    +0.000 A 
ATOM     18  C   UNL     1       5.611   4.162  14.045  0.00  0.00    +0.000 A 
ATOM     19  C   UNL     1       5.431   3.403  12.887  0.00  0.00    +0.000 A 
ATOM     20  C   UNL     1       6.371   3.469  11.861  0.00  0.00    +0.000 A 
ATOM     21  C   UNL     1       7.480   4.306  11.985  0.00  0.00    +0.000 A 
ATOM     22  C   UNL     1       7.682   5.036  13.160  0.00  0.00    +0.000 A 
ENDBRANCH  16  17
ENDBRANCH  12  16
TORSDOF 2
ENDMDL
MODEL 9
REMARK VINA RESULT:      -7.3      2.266      2.866
REMARK  Name = 
REMARK  2 active torsions:
REMARK  status: ('A' for Active; 'I' for Inactive)
REMARK    1  A    between atoms: C_12  and  O_13
REMARK    2  A    between atoms: O_13  and  C_14
REMARK                            x       y       z     vdW  Elec       q    Type
REMARK                         _______ _______ _______ _____ _____    ______ ____
ROOT
ATOM      1  O   UNL     1       7.474   4.756  19.056  0.00  0.00    +0.000 OA
ATOM      2  N   UNL     1       6.335   4.382  18.622  0.00  0.00    +0.000 N 
ATOM      3  N   UNL     1       5.451   3.898  19.413  0.00  0.00    +0.000 NA
ATOM      4  C   UNL     1       4.242   3.490  18.935  0.00  0.00    +0.000 A 
ATOM      5  C   UNL     1       3.118   2.975  19.539  0.00  0.00    +0.000 A 
ATOM      6 CL   UNL     1       2.852   2.679  21.185  0.00  0.00    +0.000 Cl
ATOM      7  C   UNL     1       2.204   2.745  18.495  0.00  0.00    +0.000 A 
ATOM      8  N   UNL     1       2.703   3.072  17.297  0.00  0.00    +0.000 NA
ATOM      9  N   UNL     1       3.940   3.525  17.589  0.00  0.00    +0.000 N 
ATOM     10  C   UNL     1       4.850   4.029  16.655  0.00  0.00    +0.000 A 
ATOM     11  C   UNL     1       4.589   4.071  15.281  0.00  0.00    +0.000 A 
ATOM     12  C   UNL     1       5.556   4.612  14.428  0.00  0.00    +0.000 A 
ATOM     13  C   UNL     1       6.716   5.192  14.968  0.00  0.00    +0.000 A 
ATOM     14  C   UNL     1       6.990   5.104  16.333  0.00  0.00    +0.000 A 
ATOM     15  C   UNL     1       6.058   4.506  17.181  0.00  0.00    +0.000 A 
ENDROOT
BRANCH  12  16
ATOM     16  O   UNL     1       5.290   4.567  13.072  0.00  0.00    +0.000 OA
BRANCH  16  17
ATOM     17  C   UNL     1       5.809   3.523  12.330  0.00  0.00    +0.000 A 
ATOM     18  C   UNL     1       5.036   2.461  11.848  0.00  0.00    +0.000 A 
ATOM     19  C   UNL     1       5.645   1.384  11.203  0.00  0.00    +0.000 A 
ATOM     20  C   UNL     1       7.018   1.401  10.970  0.00  0.00    +0.000 A 
ATOM     21  C   UNL     1       7.779   2.502  11.366  0.00  0.00    +0.000 A 
ATOM     22  C   UNL     1       7.176   3.563  12.047  0.00  0.00    +0.000 A 
ENDBRANCH  16  17
ENDBRANCH  12  16
TORSDOF 2
ENDMDL
