MODEL 1
REMARK VINA RESULT:      -8.8      0.000      0.000
REMARK  Name = 
REMARK  5 active torsions:
REMARK  status: ('A' for Active; 'I' for Inactive)
REMARK    1  A    between atoms: N_3  and  C_4
REMARK    2  A    between atoms: C_4  and  C_6
REMARK    3  A    between atoms: C_13  and  N_14
REMARK    4  A    between atoms: N_15  and  C_16
REMARK    5  A    between atoms: C_16  and  C_17
REMARK                            x       y       z     vdW  Elec       q    Type
REMARK                         _______ _______ _______ _____ _____    ______ ____
ROOT
ATOM      1  N   UNL     1       8.146   5.976  19.762  0.00  0.00    +0.000 N 
ATOM      2  C   UNL     1       8.142   6.742  18.639  0.00  0.00    +0.000 C 
ATOM      3  N   UNL     1       7.764   6.403  17.451  0.00  0.00    +0.000 NA
ATOM      4  N   UNL     1       8.628   7.979  18.925  0.00  0.00    +0.000 N 
ATOM      5  H   UNL     1       7.548   5.148  19.657  0.00  0.00    +0.000 HD
ATOM      6  H   UNL     1       7.893   6.466  20.608  0.00  0.00    +0.000 HD
ATOM      7  H   UNL     1       9.163   8.092  19.774  0.00  0.00    +0.000 HD
ENDROOT
BRANCH   3   8
ATOM      8  C   UNL     1       7.246   5.131  17.256  0.00  0.00    +0.000 C 
ATOM      9  O   UNL     1       7.907   4.189  16.819  0.00  0.00    +0.000 OA
BRANCH   8  10
ATOM     10  C   UNL     1       5.828   4.913  17.675  0.00  0.00    +0.000 A 
ATOM     11  N   UNL     1       5.636   3.947  18.621  0.00  0.00    +0.000 NA
ATOM     12  C   UNL     1       4.356   3.784  19.009  0.00  0.00    +0.000 A 
ATOM     13 CL   UNL     1       4.132   2.544  20.181  0.00  0.00    +0.000 Cl
ATOM     14  C   UNL     1       3.278   4.520  18.486  0.00  0.00    +0.000 A 
ATOM     15  N   UNL     1       1.970   4.392  18.957  0.00  0.00    +0.000 N 
ATOM     16  N   UNL     1       3.489   5.469  17.545  0.00  0.00    +0.000 NA
ATOM     17  C   UNL     1       4.770   5.667  17.137  0.00  0.00    +0.000 A 
ATOM     18  H   UNL     1       1.688   3.429  19.104  0.00  0.00    +0.000 HD
ATOM     19  H   UNL     1       1.339   4.919  18.360  0.00  0.00    +0.000 HD
BRANCH  17  20
ATOM     20  N   UNL     1       4.914   6.561  16.076  0.00  0.00    +0.000 N 
ATOM     21  H   UNL     1       5.343   7.422  16.398  0.00  0.00    +0.000 HD
ATOM     22  H   UNL     1       5.370   6.139  15.267  0.00  0.00    +0.000 HD
ENDBRANCH  17  20
ENDBRANCH   8  10
ENDBRANCH   3   8
BRANCH   4  23
ATOM     23  C   UNL     1       8.278   9.181  18.208  0.00  0.00    +0.000 C 
BRANCH  23  24
ATOM     24  C   UNL     1       9.141  10.337  18.649  0.00  0.00    +0.000 A 
ATOM     25  C   UNL     1       9.382  10.583  20.007  0.00  0.00    +0.000 A 
ATOM     26  C   UNL     1      10.182  11.659  20.402  0.00  0.00    +0.000 A 
ATOM     27  C   UNL     1      10.757  12.500  19.444  0.00  0.00    +0.000 A 
ATOM     28 CL   UNL     1      11.739  13.806  20.006  0.00  0.00    +0.000 Cl
ATOM     29  C   UNL     1      10.525  12.263  18.087  0.00  0.00    +0.000 A 
ATOM     30 CL   UNL     1      11.192  13.261  16.844  0.00  0.00    +0.000 Cl
ATOM     31  C   UNL     1       9.724  11.186  17.694  0.00  0.00    +0.000 A 
ENDBRANCH  23  24
ENDBRANCH   4  23
TORSDOF 5
ENDMDL
MODEL 2
REMARK VINA RESULT:      -8.5      1.300      1.415
REMARK  Name = 
REMARK  5 active torsions:
REMARK  status: ('A' for Active; 'I' for Inactive)
REMARK    1  A    between atoms: N_3  and  C_4
REMARK    2  A    between atoms: C_4  and  C_6
REMARK    3  A    between atoms: C_13  and  N_14
REMARK    4  A    between atoms: N_15  and  C_16
REMARK    5  A    between atoms: C_16  and  C_17
REMARK                            x       y       z     vdW  Elec       q    Type
REMARK                         _______ _______ _______ _____ _____    ______ ____
ROOT
ATOM      1  N   UNL     1       8.213   5.932  19.758  0.00  0.00    +0.000 N 
ATOM      2  C   UNL     1       8.168   6.722  18.652  0.00  0.00    +0.000 C 
ATOM      3  N   UNL     1       7.782   6.398  17.463  0.00  0.00    +0.000 NA
ATOM      4  N   UNL     1       8.624   7.966  18.957  0.00  0.00    +0.000 N 
ATOM      5  H   UNL     1       7.637   5.090  19.644  0.00  0.00    +0.000 HD
ATOM      6  H   UNL     1       7.958   6.397  20.618  0.00  0.00    +0.000 HD
ATOM      7  H   UNL     1       9.168   8.077  19.801  0.00  0.00    +0.000 HD
ENDROOT
BRANCH   3   8
ATOM      8  C   UNL     1       7.298   5.115  17.248  0.00  0.00    +0.000 C 
ATOM      9  O   UNL     1       8.021   4.146  17.020  0.00  0.00    +0.000 OA
BRANCH   8  10
ATOM     10  C   UNL     1       5.820   4.926  17.377  0.00  0.00    +0.000 A 
ATOM     11  N   UNL     1       5.200   5.744  18.277  0.00  0.00    +0.000 NA
ATOM     12  C   UNL     1       3.865   5.581  18.360  0.00  0.00    +0.000 A 
ATOM     13 CL   UNL     1       3.105   6.601  19.518  0.00  0.00    +0.000 Cl
ATOM     14  C   UNL     1       3.142   4.639  17.607  0.00  0.00    +0.000 A 
ATOM     15  N   UNL     1       1.749   4.539  17.650  0.00  0.00    +0.000 N 
ATOM     16  N   UNL     1       3.776   3.833  16.725  0.00  0.00    +0.000 NA
ATOM     17  C   UNL     1       5.123   3.977  16.609  0.00  0.00    +0.000 A 
ATOM     18  H   UNL     1       1.371   4.591  18.589  0.00  0.00    +0.000 HD
ATOM     19  H   UNL     1       1.451   3.718  17.131  0.00  0.00    +0.000 HD
BRANCH  17  20
ATOM     20  N   UNL     1       5.743   3.037  15.786  0.00  0.00    +0.000 N 
ATOM     21  H   UNL     1       5.555   2.098  16.121  0.00  0.00    +0.000 HD
ATOM     22  H   UNL     1       5.534   3.183  14.798  0.00  0.00    +0.000 HD
ENDBRANCH  17  20
ENDBRANCH   8  10
ENDBRANCH   3   8
BRANCH   4  23
ATOM     23  C   UNL     1       8.227   9.173  18.272  0.00  0.00    +0.000 C 
BRANCH  23  24
ATOM     24  C   UNL     1       9.103  10.331  18.681  0.00  0.00    +0.000 A 
ATOM     25  C   UNL     1       9.351  10.609  20.032  0.00  0.00    +0.000 A 
ATOM     26  C   UNL     1      10.163  11.687  20.397  0.00  0.00    +0.000 A 
ATOM     27  C   UNL     1      10.742  12.498  19.417  0.00  0.00    +0.000 A 
ATOM     28 CL   UNL     1      11.738  13.808  19.942  0.00  0.00    +0.000 Cl
ATOM     29  C   UNL     1      10.503  12.230  18.066  0.00  0.00    +0.000 A 
ATOM     30 CL   UNL     1      11.174  13.190  16.796  0.00  0.00    +0.000 Cl
ATOM     31  C   UNL     1       9.690  11.150  17.703  0.00  0.00    +0.000 A 
ENDBRANCH  23  24
ENDBRANCH   4  23
TORSDOF 5
ENDMDL
MODEL 3
REMARK VINA RESULT:      -8.4      0.676      1.470
REMARK  Name = 
REMARK  5 active torsions:
REMARK  status: ('A' for Active; 'I' for Inactive)
REMARK    1  A    between atoms: N_3  and  C_4
REMARK    2  A    between atoms: C_4  and  C_6
REMARK    3  A    between atoms: C_13  and  N_14
REMARK    4  A    between atoms: N_15  and  C_16
REMARK    5  A    between atoms: C_16  and  C_17
REMARK                            x       y       z     vdW  Elec       q    Type
REMARK                         _______ _______ _______ _____ _____    ______ ____
ROOT
ATOM      1  N   UNL     1       8.165   6.017  19.707  0.00  0.00    +0.000 N 
ATOM      2  C   UNL     1       8.145   6.793  18.592  0.00  0.00    +0.000 C 
ATOM      3  N   UNL     1       7.746   6.467  17.407  0.00  0.00    +0.000 NA
ATOM      4  N   UNL     1       8.643   8.025  18.880  0.00  0.00    +0.000 N 
ATOM      5  H   UNL     1       7.560   5.193  19.606  0.00  0.00    +0.000 HD
ATOM      6  H   UNL     1       7.928   6.502  20.562  0.00  0.00    +0.000 HD
ATOM      7  H   UNL     1       9.192   8.128  19.720  0.00  0.00    +0.000 HD
ENDROOT
BRANCH   3   8
ATOM      8  C   UNL     1       7.218   5.199  17.210  0.00  0.00    +0.000 C 
ATOM      9  O   UNL     1       7.862   4.262  16.739  0.00  0.00    +0.000 OA
BRANCH   8  10
ATOM     10  C   UNL     1       5.812   4.979  17.670  0.00  0.00    +0.000 A 
ATOM     11  N   UNL     1       5.646   3.996  18.602  0.00  0.00    +0.000 NA
ATOM     12  C   UNL     1       4.378   3.831  19.028  0.00  0.00    +0.000 A 
ATOM     13 CL   UNL     1       4.185   2.570  20.182  0.00  0.00    +0.000 Cl
ATOM     14  C   UNL     1       3.288   4.582  18.554  0.00  0.00    +0.000 A 
ATOM     15  N   UNL     1       1.995   4.450  19.063  0.00  0.00    +0.000 N 
ATOM     16  N   UNL     1       3.473   5.548  17.625  0.00  0.00    +0.000 NA
ATOM     17  C   UNL     1       4.742   5.748  17.179  0.00  0.00    +0.000 A 
ATOM     18  H   UNL     1       1.713   3.486  19.201  0.00  0.00    +0.000 HD
ATOM     19  H   UNL     1       1.348   4.991  18.497  0.00  0.00    +0.000 HD
BRANCH  17  20
ATOM     20  N   UNL     1       4.857   6.661  16.132  0.00  0.00    +0.000 N 
ATOM     21  H   UNL     1       4.060   6.584  15.509  0.00  0.00    +0.000 HD
ATOM     22  H   UNL     1       5.049   7.608  16.457  0.00  0.00    +0.000 HD
ENDBRANCH  17  20
ENDBRANCH   8  10
ENDBRANCH   3   8
BRANCH   4  23
ATOM     23  C   UNL     1       8.287   9.235  18.179  0.00  0.00    +0.000 C 
BRANCH  23  24
ATOM     24  C   UNL     1       9.164  10.383  18.616  0.00  0.00    +0.000 A 
ATOM     25  C   UNL     1      10.086  10.965  17.735  0.00  0.00    +0.000 A 
ATOM     26  C   UNL     1      10.893  12.026  18.153  0.00  0.00    +0.000 A 
ATOM     27  C   UNL     1      10.786  12.525  19.455  0.00  0.00    +0.000 A 
ATOM     28 CL   UNL     1      11.812  13.842  19.900  0.00  0.00    +0.000 Cl
ATOM     29  C   UNL     1       9.869  11.953  20.341  0.00  0.00    +0.000 A 
ATOM     30 CL   UNL     1       9.683  12.506  21.968  0.00  0.00    +0.000 Cl
ATOM     31  C   UNL     1       9.061  10.891  19.921  0.00  0.00    +0.000 A 
ENDBRANCH  23  24
ENDBRANCH   4  23
TORSDOF 5
ENDMDL
MODEL 4
REMARK VINA RESULT:      -8.3      0.825      1.298
REMARK  Name = 
REMARK  5 active torsions:
REMARK  status: ('A' for Active; 'I' for Inactive)
REMARK    1  A    between atoms: N_3  and  C_4
REMARK    2  A    between atoms: C_4  and  C_6
REMARK    3  A    between atoms: C_13  and  N_14
REMARK    4  A    between atoms: N_15  and  C_16
REMARK    5  A    between atoms: C_16  and  C_17
REMARK                            x       y       z     vdW  Elec       q    Type
REMARK                         _______ _______ _______ _____ _____    ______ ____
ROOT
ATOM      1  N   UNL     1       8.366   6.289  19.654  0.00  0.00    +0.000 N 
ATOM      2  C   UNL     1       8.138   6.950  18.488  0.00  0.00    +0.000 C 
ATOM      3  N   UNL     1       7.653   6.474  17.389  0.00  0.00    +0.000 NA
ATOM      4  N   UNL     1       8.519   8.249  18.614  0.00  0.00    +0.000 N 
ATOM      5  H   UNL     1       7.852   5.401  19.691  0.00  0.00    +0.000 HD
ATOM      6  H   UNL     1       8.168   6.825  20.488  0.00  0.00    +0.000 HD
ATOM      7  H   UNL     1       9.140   8.488  19.374  0.00  0.00    +0.000 HD
ENDROOT
BRANCH   3   8
ATOM      8  C   UNL     1       7.256   5.144  17.359  0.00  0.00    +0.000 C 
ATOM      9  O   UNL     1       8.020   4.214  17.107  0.00  0.00    +0.000 OA
BRANCH   8  10
ATOM     10  C   UNL     1       5.835   4.862  17.727  0.00  0.00    +0.000 A 
ATOM     11  N   UNL     1       5.653   3.884  18.662  0.00  0.00    +0.000 NA
ATOM     12  C   UNL     1       4.369   3.662  19.004  0.00  0.00    +0.000 A 
ATOM     13 CL   UNL     1       4.159   2.408  20.163  0.00  0.00    +0.000 Cl
ATOM     14  C   UNL     1       3.278   4.352  18.446  0.00  0.00    +0.000 A 
ATOM     15  N   UNL     1       1.961   4.163  18.870  0.00  0.00    +0.000 N 
ATOM     16  N   UNL     1       3.479   5.313  17.516  0.00  0.00    +0.000 NA
ATOM     17  C   UNL     1       4.764   5.570  17.154  0.00  0.00    +0.000 A 
ATOM     18  H   UNL     1       1.718   3.188  19.004  0.00  0.00    +0.000 HD
ATOM     19  H   UNL     1       1.329   4.664  18.252  0.00  0.00    +0.000 HD
BRANCH  17  20
ATOM     20  N   UNL     1       4.906   6.474  16.102  0.00  0.00    +0.000 N 
ATOM     21  H   UNL     1       5.887   6.682  15.947  0.00  0.00    +0.000 HD
ATOM     22  H   UNL     1       4.398   6.186  15.266  0.00  0.00    +0.000 HD
ENDBRANCH  17  20
ENDBRANCH   8  10
ENDBRANCH   3   8
BRANCH   4  23
ATOM     23  C   UNL     1       7.954   9.344  17.863  0.00  0.00    +0.000 C 
BRANCH  23  24
ATOM     24  C   UNL     1       8.720  10.618  18.118  0.00  0.00    +0.000 A 
ATOM     25  C   UNL     1       8.276  11.844  17.603  0.00  0.00    +0.000 A 
ATOM     26  C   UNL     1       8.997  13.017  17.844  0.00  0.00    +0.000 A 
ATOM     27  C   UNL     1      10.167  12.982  18.610  0.00  0.00    +0.000 A 
ATOM     28 CL   UNL     1      11.002  14.471  18.872  0.00  0.00    +0.000 Cl
ATOM     29  C   UNL     1      10.618  11.765  19.130  0.00  0.00    +0.000 A 
ATOM     30 CL   UNL     1      12.058  11.638  20.076  0.00  0.00    +0.000 Cl
ATOM     31  C   UNL     1       9.895  10.593  18.886  0.00  0.00    +0.000 A 
ENDBRANCH  23  24
ENDBRANCH   4  23
TORSDOF 5
ENDMDL
MODEL 5
REMARK VINA RESULT:      -8.3      2.778      3.722
REMARK  Name = 
REMARK  5 active torsions:
REMARK  status: ('A' for Active; 'I' for Inactive)
REMARK    1  A    between atoms: N_3  and  C_4
REMARK    2  A    between atoms: C_4  and  C_6
REMARK    3  A    between atoms: C_13  and  N_14
REMARK    4  A    between atoms: N_15  and  C_16
REMARK    5  A    between atoms: C_16  and  C_17
REMARK                            x       y       z     vdW  Elec       q    Type
REMARK                         _______ _______ _______ _____ _____    ______ ____
ROOT
ATOM      1  N   UNL     1       8.184   6.036  19.843  0.00  0.00    +0.000 N 
ATOM      2  C   UNL     1       8.164   6.769  18.699  0.00  0.00    +0.000 C 
ATOM      3  N   UNL     1       7.752   6.402  17.530  0.00  0.00    +0.000 NA
ATOM      4  N   UNL     1       8.677   8.005  18.936  0.00  0.00    +0.000 N 
ATOM      5  H   UNL     1       7.570   5.215  19.777  0.00  0.00    +0.000 HD
ATOM      6  H   UNL     1       7.958   6.555  20.680  0.00  0.00    +0.000 HD
ATOM      7  H   UNL     1       9.234   8.134  19.769  0.00  0.00    +0.000 HD
ENDROOT
BRANCH   3   8
ATOM      8  C   UNL     1       7.210   5.133  17.385  0.00  0.00    +0.000 C 
ATOM      9  O   UNL     1       6.967   4.387  18.332  0.00  0.00    +0.000 OA
BRANCH   8  10
ATOM     10  C   UNL     1       6.850   4.714  15.995  0.00  0.00    +0.000 A 
ATOM     11  N   UNL     1       7.593   5.280  15.000  0.00  0.00    +0.000 NA
ATOM     12  C   UNL     1       7.276   4.869  13.756  0.00  0.00    +0.000 A 
ATOM     13 CL   UNL     1       8.205   5.612  12.514  0.00  0.00    +0.000 Cl
ATOM     14  C   UNL     1       6.252   3.948  13.472  0.00  0.00    +0.000 A 
ATOM     15  N   UNL     1       5.990   3.475  12.185  0.00  0.00    +0.000 N 
ATOM     16  N   UNL     1       5.523   3.403  14.473  0.00  0.00    +0.000 NA
ATOM     17  C   UNL     1       5.822   3.788  15.742  0.00  0.00    +0.000 A 
ATOM     18  H   UNL     1       6.002   4.203  11.479  0.00  0.00    +0.000 HD
ATOM     19  H   UNL     1       5.137   2.922  12.191  0.00  0.00    +0.000 HD
BRANCH  17  20
ATOM     20  N   UNL     1       4.958   3.299  16.721  0.00  0.00    +0.000 N 
ATOM     21  H   UNL     1       4.418   4.058  17.123  0.00  0.00    +0.000 HD
ATOM     22  H   UNL     1       4.401   2.511  16.394  0.00  0.00    +0.000 HD
ENDBRANCH  17  20
ENDBRANCH   8  10
ENDBRANCH   3   8
BRANCH   4  23
ATOM     23  C   UNL     1       8.329   9.192  18.193  0.00  0.00    +0.000 C 
BRANCH  23  24
ATOM     24  C   UNL     1       9.177  10.362  18.626  0.00  0.00    +0.000 A 
ATOM     25  C   UNL     1      10.080  10.967  17.741  0.00  0.00    +0.000 A 
ATOM     26  C   UNL     1      10.862  12.049  18.156  0.00  0.00    +0.000 A 
ATOM     27  C   UNL     1      10.747  12.545  19.458  0.00  0.00    +0.000 A 
ATOM     28 CL   UNL     1      11.740  13.888  19.899  0.00  0.00    +0.000 Cl
ATOM     29  C   UNL     1       9.848  11.950  20.348  0.00  0.00    +0.000 A 
ATOM     30 CL   UNL     1       9.654  12.499  21.976  0.00  0.00    +0.000 Cl
ATOM     31  C   UNL     1       9.067  10.868  19.931  0.00  0.00    +0.000 A 
ENDBRANCH  23  24
ENDBRANCH   4  23
TORSDOF 5
ENDMDL
MODEL 6
REMARK VINA RESULT:      -8.2      1.778      2.145
REMARK  Name = 
REMARK  5 active torsions:
REMARK  status: ('A' for Active; 'I' for Inactive)
REMARK    1  A    between atoms: N_3  and  C_4
REMARK    2  A    between atoms: C_4  and  C_6
REMARK    3  A    between atoms: C_13  and  N_14
REMARK    4  A    between atoms: N_15  and  C_16
REMARK    5  A    between atoms: C_16  and  C_17
REMARK                            x       y       z     vdW  Elec       q    Type
REMARK                         _______ _______ _______ _____ _____    ______ ____
ROOT
ATOM      1  N   UNL     1       8.323   6.725  19.133  0.00  0.00    +0.000 N 
ATOM      2  C   UNL     1       8.073   7.637  18.156  0.00  0.00    +0.000 C 
ATOM      3  N   UNL     1       7.392   7.467  17.071  0.00  0.00    +0.000 NA
ATOM      4  N   UNL     1       8.674   8.817  18.463  0.00  0.00    +0.000 N 
ATOM      5  H   UNL     1       7.679   5.927  19.080  0.00  0.00    +0.000 HD
ATOM      6  H   UNL     1       8.314   7.100  20.071  0.00  0.00    +0.000 HD
ATOM      7  H   UNL     1       9.409   8.807  19.154  0.00  0.00    +0.000 HD
ENDROOT
BRANCH   3   8
ATOM      8  C   UNL     1       6.782   6.240  16.853  0.00  0.00    +0.000 C 
ATOM      9  O   UNL     1       7.280   5.346  16.171  0.00  0.00    +0.000 OA
BRANCH   8  10
ATOM     10  C   UNL     1       5.485   6.002  17.559  0.00  0.00    +0.000 A 
ATOM     11  N   UNL     1       4.542   6.976  17.399  0.00  0.00    +0.000 NA
ATOM     12  C   UNL     1       3.370   6.733  18.017  0.00  0.00    +0.000 A 
ATOM     13 CL   UNL     1       2.204   7.983  17.827  0.00  0.00    +0.000 Cl
ATOM     14  C   UNL     1       3.114   5.586  18.790  0.00  0.00    +0.000 A 
ATOM     15  N   UNL     1       1.868   5.314  19.357  0.00  0.00    +0.000 N 
ATOM     16  N   UNL     1       4.064   4.635  18.941  0.00  0.00    +0.000 NA
ATOM     17  C   UNL     1       5.257   4.844  18.323  0.00  0.00    +0.000 A 
ATOM     18  H   UNL     1       1.439   6.123  19.793  0.00  0.00    +0.000 HD
ATOM     19  H   UNL     1       1.941   4.507  19.971  0.00  0.00    +0.000 HD
BRANCH  17  20
ATOM     20  N   UNL     1       6.241   3.901  18.617  0.00  0.00    +0.000 N 
ATOM     21  H   UNL     1       6.822   4.227  19.383  0.00  0.00    +0.000 HD
ATOM     22  H   UNL     1       5.861   2.964  18.744  0.00  0.00    +0.000 HD
ENDBRANCH  17  20
ENDBRANCH   8  10
ENDBRANCH   3   8
BRANCH   4  23
ATOM     23  C   UNL     1       8.212  10.109  18.019  0.00  0.00    +0.000 C 
BRANCH  23  24
ATOM     24  C   UNL     1       9.173  11.194  18.440  0.00  0.00    +0.000 A 
ATOM     25  C   UNL     1      10.242  10.917  19.303  0.00  0.00    +0.000 A 
ATOM     26  C   UNL     1      11.123  11.932  19.688  0.00  0.00    +0.000 A 
ATOM     27  C   UNL     1      10.952  13.235  19.210  0.00  0.00    +0.000 A 
ATOM     28 CL   UNL     1      12.083  14.435  19.723  0.00  0.00    +0.000 Cl
ATOM     29  C   UNL     1       9.890  13.521  18.348  0.00  0.00    +0.000 A 
ATOM     30 CL   UNL     1       9.605  15.107  17.723  0.00  0.00    +0.000 Cl
ATOM     31  C   UNL     1       9.008  12.505  17.965  0.00  0.00    +0.000 A 
ENDBRANCH  23  24
ENDBRANCH   4  23
TORSDOF 5
ENDMDL
MODEL 7
REMARK VINA RESULT:      -8.1      1.442      2.021
REMARK  Name = 
REMARK  5 active torsions:
REMARK  status: ('A' for Active; 'I' for Inactive)
REMARK    1  A    between atoms: N_3  and  C_4
REMARK    2  A    between atoms: C_4  and  C_6
REMARK    3  A    between atoms: C_13  and  N_14
REMARK    4  A    between atoms: N_15  and  C_16
REMARK    5  A    between atoms: C_16  and  C_17
REMARK                            x       y       z     vdW  Elec       q    Type
REMARK                         _______ _______ _______ _____ _____    ______ ____
ROOT
ATOM      1  N   UNL     1       8.205   5.986  19.818  0.00  0.00    +0.000 N 
ATOM      2  C   UNL     1       8.179   6.735  18.684  0.00  0.00    +0.000 C 
ATOM      3  N   UNL     1       7.814   6.368  17.500  0.00  0.00    +0.000 NA
ATOM      4  N   UNL     1       8.626   7.991  18.953  0.00  0.00    +0.000 N 
ATOM      5  H   UNL     1       7.633   5.138  19.724  0.00  0.00    +0.000 HD
ATOM      6  H   UNL     1       7.935   6.480  20.656  0.00  0.00    +0.000 HD
ATOM      7  H   UNL     1       9.155   8.133  19.801  0.00  0.00    +0.000 HD
ENDROOT
BRANCH   3   8
ATOM      8  C   UNL     1       7.337   5.077  17.323  0.00  0.00    +0.000 C 
ATOM      9  O   UNL     1       8.067   4.101  17.154  0.00  0.00    +0.000 OA
BRANCH   8  10
ATOM     10  C   UNL     1       5.857   4.891  17.418  0.00  0.00    +0.000 A 
ATOM     11  N   UNL     1       5.227   5.660  18.353  0.00  0.00    +0.000 NA
ATOM     12  C   UNL     1       3.890   5.502  18.406  0.00  0.00    +0.000 A 
ATOM     13 CL   UNL     1       3.118   6.459  19.609  0.00  0.00    +0.000 Cl
ATOM     14  C   UNL     1       3.173   4.610  17.589  0.00  0.00    +0.000 A 
ATOM     15  N   UNL     1       1.779   4.517  17.603  0.00  0.00    +0.000 N 
ATOM     16  N   UNL     1       3.817   3.852  16.671  0.00  0.00    +0.000 NA
ATOM     17  C   UNL     1       5.166   3.993  16.585  0.00  0.00    +0.000 A 
ATOM     18  H   UNL     1       1.386   4.518  18.538  0.00  0.00    +0.000 HD
ATOM     19  H   UNL     1       1.484   3.730  17.033  0.00  0.00    +0.000 HD
BRANCH  17  20
ATOM     20  N   UNL     1       5.793   3.098  15.719  0.00  0.00    +0.000 N 
ATOM     21  H   UNL     1       5.792   3.465  14.773  0.00  0.00    +0.000 HD
ATOM     22  H   UNL     1       6.709   2.802  16.055  0.00  0.00    +0.000 HD
ENDBRANCH  17  20
ENDBRANCH   8  10
ENDBRANCH   3   8
BRANCH   4  23
ATOM     23  C   UNL     1       8.239   9.171  18.218  0.00  0.00    +0.000 C 
BRANCH  23  24
ATOM     24  C   UNL     1       9.085  10.353  18.623  0.00  0.00    +0.000 A 
ATOM     25  C   UNL     1       9.941  10.978  17.706  0.00  0.00    +0.000 A 
ATOM     26  C   UNL     1      10.720  12.071  18.095  0.00  0.00    +0.000 A 
ATOM     27  C   UNL     1      10.650  12.559  19.404  0.00  0.00    +0.000 A 
ATOM     28 CL   UNL     1      11.637  13.916  19.812  0.00  0.00    +0.000 Cl
ATOM     29  C   UNL     1       9.798  11.944  20.326  0.00  0.00    +0.000 A 
ATOM     30 CL   UNL     1       9.661  12.480  21.964  0.00  0.00    +0.000 Cl
ATOM     31  C   UNL     1       9.019  10.850  19.935  0.00  0.00    +0.000 A 
ENDBRANCH  23  24
ENDBRANCH   4  23
TORSDOF 5
ENDMDL
MODEL 8
REMARK VINA RESULT:      -8.1      1.786      2.380
REMARK  Name = 
REMARK  5 active torsions:
REMARK  status: ('A' for Active; 'I' for Inactive)
REMARK    1  A    between atoms: N_3  and  C_4
REMARK    2  A    between atoms: C_4  and  C_6
REMARK    3  A    between atoms: C_13  and  N_14
REMARK    4  A    between atoms: N_15  and  C_16
REMARK    5  A    between atoms: C_16  and  C_17
REMARK                            x       y       z     vdW  Elec       q    Type
REMARK                         _______ _______ _______ _____ _____    ______ ____
ROOT
ATOM      1  N   UNL     1       8.408   6.890  19.132  0.00  0.00    +0.000 N 
ATOM      2  C   UNL     1       8.095   7.694  18.082  0.00  0.00    +0.000 C 
ATOM      3  N   UNL     1       7.414   7.389  17.027  0.00  0.00    +0.000 NA
ATOM      4  N   UNL     1       8.631   8.929  18.273  0.00  0.00    +0.000 N 
ATOM      5  H   UNL     1       7.810   6.055  19.161  0.00  0.00    +0.000 HD
ATOM      6  H   UNL     1       8.386   7.346  20.033  0.00  0.00    +0.000 HD
ATOM      7  H   UNL     1       9.373   9.022  18.951  0.00  0.00    +0.000 HD
ENDROOT
BRANCH   3   8
ATOM      8  C   UNL     1       6.873   6.115  16.929  0.00  0.00    +0.000 C 
ATOM      9  O   UNL     1       7.454   5.171  16.396  0.00  0.00    +0.000 OA
BRANCH   8  10
ATOM     10  C   UNL     1       5.545   5.900  17.580  0.00  0.00    +0.000 A 
ATOM     11  N   UNL     1       4.645   6.915  17.429  0.00  0.00    +0.000 NA
ATOM     12  C   UNL     1       3.443   6.693  17.996  0.00  0.00    +0.000 A 
ATOM     13 CL   UNL     1       2.332   7.994  17.818  0.00  0.00    +0.000 Cl
ATOM     14  C   UNL     1       3.117   5.527  18.712  0.00  0.00    +0.000 A 
ATOM     15  N   UNL     1       1.842   5.281  19.225  0.00  0.00    +0.000 N 
ATOM     16  N   UNL     1       4.026   4.535  18.855  0.00  0.00    +0.000 NA
ATOM     17  C   UNL     1       5.247   4.721  18.287  0.00  0.00    +0.000 A 
ATOM     18  H   UNL     1       1.429   6.088  19.679  0.00  0.00    +0.000 HD
ATOM     19  H   UNL     1       1.864   4.448  19.807  0.00  0.00    +0.000 HD
BRANCH  17  20
ATOM     20  N   UNL     1       6.184   3.731  18.576  0.00  0.00    +0.000 N 
ATOM     21  H   UNL     1       6.013   2.909  18.005  0.00  0.00    +0.000 HD
ATOM     22  H   UNL     1       7.142   4.076  18.543  0.00  0.00    +0.000 HD
ENDBRANCH  17  20
ENDBRANCH   8  10
ENDBRANCH   3   8
BRANCH   4  23
ATOM     23  C   UNL     1       8.090  10.148  17.722  0.00  0.00    +0.000 C 
BRANCH  23  24
ATOM     24  C   UNL     1       8.958  11.328  18.085  0.00  0.00    +0.000 A 
ATOM     25  C   UNL     1       8.638  12.622  17.651  0.00  0.00    +0.000 A 
ATOM     26  C   UNL     1       9.452  13.706  17.992  0.00  0.00    +0.000 A 
ATOM     27  C   UNL     1      10.593  13.513  18.777  0.00  0.00    +0.000 A 
ATOM     28 CL   UNL     1      11.548  14.899  19.164  0.00  0.00    +0.000 Cl
ATOM     29  C   UNL     1      10.921  12.227  19.216  0.00  0.00    +0.000 A 
ATOM     30 CL   UNL     1      12.319  11.905  20.180  0.00  0.00    +0.000 Cl
ATOM     31  C   UNL     1      10.106  11.143  18.873  0.00  0.00    +0.000 A 
ENDBRANCH  23  24
ENDBRANCH   4  23
TORSDOF 5
ENDMDL
MODEL 9
REMARK VINA RESULT:      -8.1      5.687      7.563
REMARK  Name = 
REMARK  5 active torsions:
REMARK  status: ('A' for Active; 'I' for Inactive)
REMARK    1  A    between atoms: N_3  and  C_4
REMARK    2  A    between atoms: C_4  and  C_6
REMARK    3  A    between atoms: C_13  and  N_14
REMARK    4  A    between atoms: N_15  and  C_16
REMARK    5  A    between atoms: C_16  and  C_17
REMARK                            x       y       z     vdW  Elec       q    Type
REMARK                         _______ _______ _______ _____ _____    ______ ____
ROOT
ATOM      1  N   UNL     1       3.296   4.984  20.239  0.00  0.00    +0.000 N 
ATOM      2  C   UNL     1       3.184   5.995  19.338  0.00  0.00    +0.000 C 
ATOM      3  N   UNL     1       3.519   5.983  18.090  0.00  0.00    +0.000 NA
ATOM      4  N   UNL     1       2.662   7.095  19.943  0.00  0.00    +0.000 N 
ATOM      5  H   UNL     1       3.424   4.076  19.776  0.00  0.00    +0.000 HD
ATOM      6  H   UNL     1       2.531   4.919  20.897  0.00  0.00    +0.000 HD
ATOM      7  H   UNL     1       2.690   7.138  20.951  0.00  0.00    +0.000 HD
ENDROOT
BRANCH   3   8
ATOM      8  C   UNL     1       4.011   4.806  17.545  0.00  0.00    +0.000 C 
ATOM      9  O   UNL     1       3.534   3.697  17.782  0.00  0.00    +0.000 OA
BRANCH   8  10
ATOM     10  C   UNL     1       5.135   4.939  16.568  0.00  0.00    +0.000 A 
ATOM     11  N   UNL     1       4.958   4.296  15.377  0.00  0.00    +0.000 NA
ATOM     12  C   UNL     1       5.967   4.450  14.497  0.00  0.00    +0.000 A 
ATOM     13 CL   UNL     1       5.737   3.611  13.013  0.00  0.00    +0.000 Cl
ATOM     14  C   UNL     1       7.132   5.192  14.762  0.00  0.00    +0.000 A 
ATOM     15  N   UNL     1       8.130   5.406  13.809  0.00  0.00    +0.000 N 
ATOM     16  N   UNL     1       7.291   5.818  15.951  0.00  0.00    +0.000 NA
ATOM     17  C   UNL     1       6.287   5.691  16.860  0.00  0.00    +0.000 A 
ATOM     18  H   UNL     1       8.367   4.573  13.281  0.00  0.00    +0.000 HD
ATOM     19  H   UNL     1       8.929   5.856  14.248  0.00  0.00    +0.000 HD
BRANCH  17  20
ATOM     20  N   UNL     1       6.558   6.243  18.111  0.00  0.00    +0.000 N 
ATOM     21  H   UNL     1       5.693   6.429  18.607  0.00  0.00    +0.000 HD
ATOM     22  H   UNL     1       7.240   5.700  18.640  0.00  0.00    +0.000 HD
ENDBRANCH  17  20
ENDBRANCH   8  10
ENDBRANCH   3   8
BRANCH   4  23
ATOM     23  C   UNL     1       1.899   8.116  19.266  0.00  0.00    +0.000 C 
BRANCH  23  24
ATOM     24  C   UNL     1       1.071   8.904  20.251  0.00  0.00    +0.000 A 
ATOM     25  C   UNL     1       1.112   8.619  21.622  0.00  0.00    +0.000 A 
ATOM     26  C   UNL     1       0.338   9.356  22.523  0.00  0.00    +0.000 A 
ATOM     27  C   UNL     1      -0.483  10.391  22.066  0.00  0.00    +0.000 A 
ATOM     28 CL   UNL     1      -1.407  11.263  23.237  0.00  0.00    +0.000 Cl
ATOM     29  C   UNL     1      -0.531  10.685  20.700  0.00  0.00    +0.000 A 
ATOM     30 CL   UNL     1      -1.527  11.942  20.056  0.00  0.00    +0.000 Cl
ATOM     31  C   UNL     1       0.244   9.946  19.800  0.00  0.00    +0.000 A 
ENDBRANCH  23  24
ENDBRANCH   4  23
TORSDOF 5
ENDMDL
