MODEL 1
REMARK VINA RESULT:      -7.7      0.000      0.000
REMARK  Name = 
REMARK  6 active torsions:
REMARK  status: ('A' for Active; 'I' for Inactive)
REMARK    1  A    between atoms: C_1  and  C_2
REMARK    2  A    between atoms: N_4  and  C_5
REMARK    3  A    between atoms: C_5  and  C_6
REMARK    4  A    between atoms: N_8  and  C_9
REMARK    5  A    between atoms: C_9  and  C_10
REMARK    6  A    between atoms: C_10  and  C_11
REMARK                            x       y       z     vdW  Elec       q    Type
REMARK                         _______ _______ _______ _____ _____    ______ ____
ROOT
ATOM      1  C   UNL     1       7.518   6.304  18.470  0.00  0.00    +0.000 C 
ENDROOT
BRANCH   1   5
ATOM      2  C   UNL     1       4.958   3.773  15.852  0.00  0.00    +0.000 C 
ATOM      3  C   UNL     1       4.800   3.792  17.373  0.00  0.00    +0.000 C 
ATOM      4  C   UNL     1       6.073   4.354  18.068  0.00  0.00    +0.000 C 
ATOM      5  N   UNL     1       6.286   5.803  17.817  0.00  0.00    +0.000 NA
ATOM      6  C   UNL     1       5.094   6.507  18.365  0.00  0.00    +0.000 C 
ATOM      7  C   UNL     1       3.766   6.040  17.721  0.00  0.00    +0.000 C 
ATOM      8  N   UNL     1       3.611   4.579  17.745  0.00  0.00    +0.000 N 
ATOM      9  C   UNL     1       2.598   4.012  18.461  0.00  0.00    +0.000 A 
ATOM     10  N   UNL     1       1.952   4.615  19.435  0.00  0.00    +0.000 NA
ATOM     11  C   UNL     1       0.977   3.793  19.964  0.00  0.00    +0.000 A 
ATOM     12  C   UNL     1       0.834   2.572  19.350  0.00  0.00    +0.000 A 
ATOM     13  S   UNL     1       1.982   2.429  18.094  0.00  0.00    +0.000 S 
ENDBRANCH   1   5
BRANCH   1  14
ATOM     14  C   UNL     1       7.904   7.722  18.001  0.00  0.00    +0.000 C 
ATOM     15  O   UNL     1       7.582   8.159  16.896  0.00  0.00    +0.000 OA
ATOM     16  N   UNL     1       8.665   8.469  18.886  0.00  0.00    +0.000 N 
ATOM     17  H   UNL     1       8.728   8.159  19.847  0.00  0.00    +0.000 HD
BRANCH  16  18
ATOM     18  C   UNL     1       8.961   9.859  18.562  0.00  0.00    +0.000 C 
BRANCH  18  19
ATOM     19  C   UNL     1       9.598  10.640  19.713  0.00  0.00    +0.000 C 
BRANCH  19  20
ATOM     20  C   UNL     1      10.576  11.676  19.205  0.00  0.00    +0.000 A 
ATOM     21  C   UNL     1      11.152  12.608  20.079  0.00  0.00    +0.000 A 
ATOM     22  C   UNL     1      12.028  13.585  19.598  0.00  0.00    +0.000 A 
ATOM     23  C   UNL     1      12.333  13.643  18.240  0.00  0.00    +0.000 A 
ATOM     24  C   UNL     1      11.763  12.726  17.360  0.00  0.00    +0.000 A 
ATOM     25  C   UNL     1      10.887  11.749  17.839  0.00  0.00    +0.000 A 
ENDBRANCH  19  20
ENDBRANCH  18  19
ENDBRANCH  16  18
ENDBRANCH   1  14
TORSDOF 5
ENDMDL
MODEL 2
REMARK VINA RESULT:      -7.6      0.378      1.052
REMARK  Name = 
REMARK  6 active torsions:
REMARK  status: ('A' for Active; 'I' for Inactive)
REMARK    1  A    between atoms: C_1  and  C_2
REMARK    2  A    between atoms: N_4  and  C_5
REMARK    3  A    between atoms: C_5  and  C_6
REMARK    4  A    between atoms: N_8  and  C_9
REMARK    5  A    between atoms: C_9  and  C_10
REMARK    6  A    between atoms: C_10  and  C_11
REMARK                            x       y       z     vdW  Elec       q    Type
REMARK                         _______ _______ _______ _____ _____    ______ ____
ROOT
ATOM      1  C   UNL     1       7.694   6.436  18.487  0.00  0.00    +0.000 C 
ENDROOT
BRANCH   1   5
ATOM      2  C   UNL     1       5.385   3.879  15.668  0.00  0.00    +0.000 C 
ATOM      3  C   UNL     1       5.140   3.854  17.177  0.00  0.00    +0.000 C 
ATOM      4  C   UNL     1       6.349   4.444  17.958  0.00  0.00    +0.000 C 
ATOM      5  N   UNL     1       6.520   5.906  17.753  0.00  0.00    +0.000 NA
ATOM      6  C   UNL     1       5.273   6.552  18.246  0.00  0.00    +0.000 C 
ATOM      7  C   UNL     1       4.004   6.053  17.516  0.00  0.00    +0.000 C 
ATOM      8  N   UNL     1       3.903   4.587  17.497  0.00  0.00    +0.000 N 
ATOM      9  C   UNL     1       2.872   3.966  18.140  0.00  0.00    +0.000 A 
ATOM     10  N   UNL     1       2.150   4.520  19.089  0.00  0.00    +0.000 NA
ATOM     11  C   UNL     1       1.178   3.650  19.541  0.00  0.00    +0.000 A 
ATOM     12  C   UNL     1       1.117   2.440  18.891  0.00  0.00    +0.000 A 
ATOM     13  S   UNL     1       2.339   2.371  17.702  0.00  0.00    +0.000 S 
ENDBRANCH   1   5
BRANCH   1  14
ATOM     14  C   UNL     1       8.038   7.886  18.091  0.00  0.00    +0.000 C 
ATOM     15  O   UNL     1       7.725   8.360  16.999  0.00  0.00    +0.000 OA
ATOM     16  N   UNL     1       8.750   8.619  19.027  0.00  0.00    +0.000 N 
ATOM     17  H   UNL     1       8.803   8.268  19.975  0.00  0.00    +0.000 HD
BRANCH  16  18
ATOM     18  C   UNL     1       9.003  10.031  18.772  0.00  0.00    +0.000 C 
BRANCH  18  19
ATOM     19  C   UNL     1      10.026  10.658  19.720  0.00  0.00    +0.000 C 
BRANCH  19  20
ATOM     20  C   UNL     1      10.730  11.832  19.078  0.00  0.00    +0.000 A 
ATOM     21  C   UNL     1      11.008  11.840  17.704  0.00  0.00    +0.000 A 
ATOM     22  C   UNL     1      11.690  12.911  17.123  0.00  0.00    +0.000 A 
ATOM     23  C   UNL     1      12.106  13.984  17.909  0.00  0.00    +0.000 A 
ATOM     24  C   UNL     1      11.841  13.987  19.276  0.00  0.00    +0.000 A 
ATOM     25  C   UNL     1      11.159  12.916  19.860  0.00  0.00    +0.000 A 
ENDBRANCH  19  20
ENDBRANCH  18  19
ENDBRANCH  16  18
ENDBRANCH   1  14
TORSDOF 5
ENDMDL
MODEL 3
REMARK VINA RESULT:      -7.3      1.454      1.835
REMARK  Name = 
REMARK  6 active torsions:
REMARK  status: ('A' for Active; 'I' for Inactive)
REMARK    1  A    between atoms: C_1  and  C_2
REMARK    2  A    between atoms: N_4  and  C_5
REMARK    3  A    between atoms: C_5  and  C_6
REMARK    4  A    between atoms: N_8  and  C_9
REMARK    5  A    between atoms: C_9  and  C_10
REMARK    6  A    between atoms: C_10  and  C_11
REMARK                            x       y       z     vdW  Elec       q    Type
REMARK                         _______ _______ _______ _____ _____    ______ ____
ROOT
ATOM      1  C   UNL     1       6.707   5.631  16.332  0.00  0.00    +0.000 C 
ENDROOT
BRANCH   1   5
ATOM      2  C   UNL     1       2.901   3.332  16.121  0.00  0.00    +0.000 C 
ATOM      3  C   UNL     1       3.709   3.452  17.413  0.00  0.00    +0.000 C 
ATOM      4  C   UNL     1       5.179   3.873  17.125  0.00  0.00    +0.000 C 
ATOM      5  N   UNL     1       5.300   5.266  16.622  0.00  0.00    +0.000 NA
ATOM      6  C   UNL     1       4.750   6.150  17.685  0.00  0.00    +0.000 C 
ATOM      7  C   UNL     1       3.276   5.832  18.034  0.00  0.00    +0.000 C 
ATOM      8  N   UNL     1       3.060   4.408  18.326  0.00  0.00    +0.000 N 
ATOM      9  C   UNL     1       2.659   4.020  19.570  0.00  0.00    +0.000 A 
ATOM     10  N   UNL     1       2.794   4.753  20.654  0.00  0.00    +0.000 NA
ATOM     11  C   UNL     1       2.289   4.098  21.759  0.00  0.00    +0.000 A 
ATOM     12  C   UNL     1       1.710   2.876  21.510  0.00  0.00    +0.000 A 
ATOM     13  S   UNL     1       1.833   2.516  19.846  0.00  0.00    +0.000 S 
ENDBRANCH   1   5
BRANCH   1  14
ATOM     14  C   UNL     1       7.362   6.429  17.478  0.00  0.00    +0.000 C 
ATOM     15  O   UNL     1       7.654   5.910  18.556  0.00  0.00    +0.000 OA
ATOM     16  N   UNL     1       7.577   7.776  17.235  0.00  0.00    +0.000 N 
ATOM     17  H   UNL     1       7.517   8.109  16.281  0.00  0.00    +0.000 HD
BRANCH  16  18
ATOM     18  C   UNL     1       8.302   8.563  18.224  0.00  0.00    +0.000 C 
BRANCH  18  19
ATOM     19  C   UNL     1       8.306  10.065  17.936  0.00  0.00    +0.000 C 
BRANCH  19  20
ATOM     20  C   UNL     1       9.444  10.763  18.647  0.00  0.00    +0.000 A 
ATOM     21  C   UNL     1       9.411  10.960  20.035  0.00  0.00    +0.000 A 
ATOM     22  C   UNL     1      10.449  11.636  20.681  0.00  0.00    +0.000 A 
ATOM     23  C   UNL     1      11.528  12.125  19.948  0.00  0.00    +0.000 A 
ATOM     24  C   UNL     1      11.571  11.940  18.568  0.00  0.00    +0.000 A 
ATOM     25  C   UNL     1      10.534  11.265  17.920  0.00  0.00    +0.000 A 
ENDBRANCH  19  20
ENDBRANCH  18  19
ENDBRANCH  16  18
ENDBRANCH   1  14
TORSDOF 5
ENDMDL
MODEL 4
REMARK VINA RESULT:      -7.2      1.251      1.902
REMARK  Name = 
REMARK  6 active torsions:
REMARK  status: ('A' for Active; 'I' for Inactive)
REMARK    1  A    between atoms: C_1  and  C_2
REMARK    2  A    between atoms: N_4  and  C_5
REMARK    3  A    between atoms: C_5  and  C_6
REMARK    4  A    between atoms: N_8  and  C_9
REMARK    5  A    between atoms: C_9  and  C_10
REMARK    6  A    between atoms: C_10  and  C_11
REMARK                            x       y       z     vdW  Elec       q    Type
REMARK                         _______ _______ _______ _____ _____    ______ ____
ROOT
ATOM      1  C   UNL     1       7.809   6.586  18.432  0.00  0.00    +0.000 C 
ENDROOT
BRANCH   1   5
ATOM      2  C   UNL     1       5.623   3.876  15.657  0.00  0.00    +0.000 C 
ATOM      3  C   UNL     1       5.323   3.922  17.156  0.00  0.00    +0.000 C 
ATOM      4  C   UNL     1       6.498   4.559  17.951  0.00  0.00    +0.000 C 
ATOM      5  N   UNL     1       6.667   6.011  17.682  0.00  0.00    +0.000 NA
ATOM      6  C   UNL     1       5.398   6.670  18.097  0.00  0.00    +0.000 C 
ATOM      7  C   UNL     1       4.160   6.125  17.346  0.00  0.00    +0.000 C 
ATOM      8  N   UNL     1       4.070   4.659  17.395  0.00  0.00    +0.000 N 
ATOM      9  C   UNL     1       3.021   4.061  18.029  0.00  0.00    +0.000 A 
ATOM     10  N   UNL     1       2.260   4.654  18.923  0.00  0.00    +0.000 NA
ATOM     11  C   UNL     1       1.277   3.798  19.381  0.00  0.00    +0.000 A 
ATOM     12  C   UNL     1       1.249   2.558  18.789  0.00  0.00    +0.000 A 
ATOM     13  S   UNL     1       2.515   2.442  17.650  0.00  0.00    +0.000 S 
ENDBRANCH   1   5
BRANCH   1  14
ATOM     14  C   UNL     1       8.084   8.057  18.060  0.00  0.00    +0.000 C 
ATOM     15  O   UNL     1       7.714   8.545  16.991  0.00  0.00    +0.000 OA
ATOM     16  N   UNL     1       8.802   8.795  18.987  0.00  0.00    +0.000 N 
ATOM     17  H   UNL     1       8.903   8.424  19.924  0.00  0.00    +0.000 HD
BRANCH  16  18
ATOM     18  C   UNL     1       8.993  10.221  18.758  0.00  0.00    +0.000 C 
BRANCH  18  19
ATOM     19  C   UNL     1      10.268  10.784  19.387  0.00  0.00    +0.000 C 
BRANCH  19  20
ATOM     20  C   UNL     1       9.957  11.856  20.408  0.00  0.00    +0.000 A 
ATOM     21  C   UNL     1       9.018  11.629  21.424  0.00  0.00    +0.000 A 
ATOM     22  C   UNL     1       8.710  12.635  22.343  0.00  0.00    +0.000 A 
ATOM     23  C   UNL     1       9.332  13.879  22.253  0.00  0.00    +0.000 A 
ATOM     24  C   UNL     1      10.263  14.118  21.246  0.00  0.00    +0.000 A 
ATOM     25  C   UNL     1      10.573  13.114  20.325  0.00  0.00    +0.000 A 
ENDBRANCH  19  20
ENDBRANCH  18  19
ENDBRANCH  16  18
ENDBRANCH   1  14
TORSDOF 5
ENDMDL
MODEL 5
REMARK VINA RESULT:      -7.0      2.420      3.274
REMARK  Name = 
REMARK  6 active torsions:
REMARK  status: ('A' for Active; 'I' for Inactive)
REMARK    1  A    between atoms: C_1  and  C_2
REMARK    2  A    between atoms: N_4  and  C_5
REMARK    3  A    between atoms: C_5  and  C_6
REMARK    4  A    between atoms: N_8  and  C_9
REMARK    5  A    between atoms: C_9  and  C_10
REMARK    6  A    between atoms: C_10  and  C_11
REMARK                            x       y       z     vdW  Elec       q    Type
REMARK                         _______ _______ _______ _____ _____    ______ ____
ROOT
ATOM      1  C   UNL     1       6.789   4.697  17.624  0.00  0.00    +0.000 C 
ENDROOT
BRANCH   1   5
ATOM      2  C   UNL     1       3.170   4.022  20.127  0.00  0.00    +0.000 C 
ATOM      3  C   UNL     1       3.723   5.422  19.856  0.00  0.00    +0.000 C 
ATOM      4  C   UNL     1       5.204   5.365  19.385  0.00  0.00    +0.000 C 
ATOM      5  N   UNL     1       5.367   4.763  18.036  0.00  0.00    +0.000 NA
ATOM      6  C   UNL     1       4.600   5.622  17.093  0.00  0.00    +0.000 C 
ATOM      7  C   UNL     1       3.099   5.729  17.456  0.00  0.00    +0.000 C 
ATOM      8  N   UNL     1       2.884   6.109  18.860  0.00  0.00    +0.000 N 
ATOM      9  C   UNL     1       2.276   7.292  19.160  0.00  0.00    +0.000 A 
ATOM     10  N   UNL     1       2.182   8.309  18.330  0.00  0.00    +0.000 NA
ATOM     11  C   UNL     1       1.507   9.362  18.914  0.00  0.00    +0.000 A 
ATOM     12  C   UNL     1       1.027   9.129  20.181  0.00  0.00    +0.000 A 
ATOM     13  S   UNL     1       1.466   7.555  20.675  0.00  0.00    +0.000 S 
ENDBRANCH   1   5
BRANCH   1  14
ATOM     14  C   UNL     1       7.333   6.059  17.147  0.00  0.00    +0.000 C 
ATOM     15  O   UNL     1       7.556   6.298  15.959  0.00  0.00    +0.000 OA
ATOM     16  N   UNL     1       7.587   6.994  18.138  0.00  0.00    +0.000 N 
ATOM     17  H   UNL     1       7.200   6.835  19.059  0.00  0.00    +0.000 HD
BRANCH  16  18
ATOM     18  C   UNL     1       7.985   8.341  17.751  0.00  0.00    +0.000 C 
BRANCH  18  19
ATOM     19  C   UNL     1       8.864   9.048  18.784  0.00  0.00    +0.000 C 
BRANCH  19  20
ATOM     20  C   UNL     1       9.077  10.502  18.429  0.00  0.00    +0.000 A 
ATOM     21  C   UNL     1       8.097  11.222  17.732  0.00  0.00    +0.000 A 
ATOM     22  C   UNL     1       8.314  12.556  17.376  0.00  0.00    +0.000 A 
ATOM     23  C   UNL     1       9.513  13.182  17.709  0.00  0.00    +0.000 A 
ATOM     24  C   UNL     1      10.497  12.476  18.397  0.00  0.00    +0.000 A 
ATOM     25  C   UNL     1      10.282  11.142  18.753  0.00  0.00    +0.000 A 
ENDBRANCH  19  20
ENDBRANCH  18  19
ENDBRANCH  16  18
ENDBRANCH   1  14
TORSDOF 5
ENDMDL
MODEL 6
REMARK VINA RESULT:      -7.0      2.413      3.115
REMARK  Name = 
REMARK  6 active torsions:
REMARK  status: ('A' for Active; 'I' for Inactive)
REMARK    1  A    between atoms: C_1  and  C_2
REMARK    2  A    between atoms: N_4  and  C_5
REMARK    3  A    between atoms: C_5  and  C_6
REMARK    4  A    between atoms: N_8  and  C_9
REMARK    5  A    between atoms: C_9  and  C_10
REMARK    6  A    between atoms: C_10  and  C_11
REMARK                            x       y       z     vdW  Elec       q    Type
REMARK                         _______ _______ _______ _____ _____    ______ ____
ROOT
ATOM      1  C   UNL     1       6.651   5.016  17.471  0.00  0.00    +0.000 C 
ENDROOT
BRANCH   1   5
ATOM      2  C   UNL     1       3.194   3.943  20.063  0.00  0.00    +0.000 C 
ATOM      3  C   UNL     1       3.664   5.387  19.888  0.00  0.00    +0.000 C 
ATOM      4  C   UNL     1       5.122   5.448  19.350  0.00  0.00    +0.000 C 
ATOM      5  N   UNL     1       5.249   4.971  17.949  0.00  0.00    +0.000 NA
ATOM      6  C   UNL     1       4.395   5.864  17.118  0.00  0.00    +0.000 C 
ATOM      7  C   UNL     1       2.911   5.860  17.554  0.00  0.00    +0.000 C 
ATOM      8  N   UNL     1       2.745   6.110  18.993  0.00  0.00    +0.000 N 
ATOM      9  C   UNL     1       2.094   7.230  19.420  0.00  0.00    +0.000 A 
ATOM     10  N   UNL     1       1.911   8.306  18.686  0.00  0.00    +0.000 NA
ATOM     11  C   UNL     1       1.213   9.269  19.387  0.00  0.00    +0.000 A 
ATOM     12  C   UNL     1       0.807   8.906  20.649  0.00  0.00    +0.000 A 
ATOM     13  S   UNL     1       1.347   7.322  20.986  0.00  0.00    +0.000 S 
ENDBRANCH   1   5
BRANCH   1  14
ATOM     14  C   UNL     1       7.536   5.956  18.314  0.00  0.00    +0.000 C 
ATOM     15  O   UNL     1       8.122   5.573  19.327  0.00  0.00    +0.000 OA
ATOM     16  N   UNL     1       7.611   7.270  17.882  0.00  0.00    +0.000 N 
ATOM     17  H   UNL     1       7.290   7.489  16.947  0.00  0.00    +0.000 HD
BRANCH  16  18
ATOM     18  C   UNL     1       8.523   8.183  18.558  0.00  0.00    +0.000 C 
BRANCH  18  19
ATOM     19  C   UNL     1       8.471   9.616  18.026  0.00  0.00    +0.000 C 
BRANCH  19  20
ATOM     20  C   UNL     1       9.481  10.503  18.720  0.00  0.00    +0.000 A 
ATOM     21  C   UNL     1       9.397  10.746  20.098  0.00  0.00    +0.000 A 
ATOM     22  C   UNL     1      10.312  11.593  20.727  0.00  0.00    +0.000 A 
ATOM     23  C   UNL     1      11.318  12.210  19.986  0.00  0.00    +0.000 A 
ATOM     24  C   UNL     1      11.410  11.981  18.615  0.00  0.00    +0.000 A 
ATOM     25  C   UNL     1      10.495  11.134  17.984  0.00  0.00    +0.000 A 
ENDBRANCH  19  20
ENDBRANCH  18  19
ENDBRANCH  16  18
ENDBRANCH   1  14
TORSDOF 5
ENDMDL
MODEL 7
REMARK VINA RESULT:      -6.9      6.850     10.370
REMARK  Name = 
REMARK  6 active torsions:
REMARK  status: ('A' for Active; 'I' for Inactive)
REMARK    1  A    between atoms: C_1  and  C_2
REMARK    2  A    between atoms: N_4  and  C_5
REMARK    3  A    between atoms: C_5  and  C_6
REMARK    4  A    between atoms: N_8  and  C_9
REMARK    5  A    between atoms: C_9  and  C_10
REMARK    6  A    between atoms: C_10  and  C_11
REMARK                            x       y       z     vdW  Elec       q    Type
REMARK                         _______ _______ _______ _____ _____    ______ ____
ROOT
ATOM      1  C   UNL     1       0.983   9.789  19.659  0.00  0.00    +0.000 C 
ENDROOT
BRANCH   1   5
ATOM      2  C   UNL     1      -2.198  11.299  16.936  0.00  0.00    +0.000 C 
ATOM      3  C   UNL     1      -2.476  10.950  18.398  0.00  0.00    +0.000 C 
ATOM      4  C   UNL     1      -1.371  10.024  18.980  0.00  0.00    +0.000 C 
ATOM      5  N   UNL     1      -0.057  10.702  19.128  0.00  0.00    +0.000 NA
ATOM      6  C   UNL     1      -0.269  11.838  20.066  0.00  0.00    +0.000 C 
ATOM      7  C   UNL     1      -1.338  12.841  19.569  0.00  0.00    +0.000 C 
ATOM      8  N   UNL     1      -2.598  12.183  19.195  0.00  0.00    +0.000 N 
ATOM      9  C   UNL     1      -3.741  12.453  19.888  0.00  0.00    +0.000 A 
ATOM     10  N   UNL     1      -3.769  12.969  21.097  0.00  0.00    +0.000 NA
ATOM     11  C   UNL     1      -5.069  13.134  21.534  0.00  0.00    +0.000 A 
ATOM     12  C   UNL     1      -6.046  12.796  20.627  0.00  0.00    +0.000 A 
ATOM     13  S   UNL     1      -5.318  12.217  19.196  0.00  0.00    +0.000 S 
ENDBRANCH   1   5
BRANCH   1  14
ATOM     14  C   UNL     1       1.770   9.071  18.544  0.00  0.00    +0.000 C 
ATOM     15  O   UNL     1       1.889   9.545  17.414  0.00  0.00    +0.000 OA
ATOM     16  N   UNL     1       2.312   7.840  18.878  0.00  0.00    +0.000 N 
ATOM     17  H   UNL     1       2.368   7.589  19.857  0.00  0.00    +0.000 HD
BRANCH  16  18
ATOM     18  C   UNL     1       3.169   7.163  17.915  0.00  0.00    +0.000 C 
BRANCH  18  19
ATOM     19  C   UNL     1       3.829   5.894  18.459  0.00  0.00    +0.000 C 
BRANCH  19  20
ATOM     20  C   UNL     1       2.799   4.891  18.928  0.00  0.00    +0.000 A 
ATOM     21  C   UNL     1       2.090   4.105  18.009  0.00  0.00    +0.000 A 
ATOM     22  C   UNL     1       1.115   3.205  18.447  0.00  0.00    +0.000 A 
ATOM     23  C   UNL     1       0.835   3.085  19.806  0.00  0.00    +0.000 A 
ATOM     24  C   UNL     1       1.528   3.864  20.730  0.00  0.00    +0.000 A 
ATOM     25  C   UNL     1       2.503   4.765  20.294  0.00  0.00    +0.000 A 
ENDBRANCH  19  20
ENDBRANCH  18  19
ENDBRANCH  16  18
ENDBRANCH   1  14
TORSDOF 5
ENDMDL
MODEL 8
REMARK VINA RESULT:      -6.9      2.532      3.376
REMARK  Name = 
REMARK  6 active torsions:
REMARK  status: ('A' for Active; 'I' for Inactive)
REMARK    1  A    between atoms: C_1  and  C_2
REMARK    2  A    between atoms: N_4  and  C_5
REMARK    3  A    between atoms: C_5  and  C_6
REMARK    4  A    between atoms: N_8  and  C_9
REMARK    5  A    between atoms: C_9  and  C_10
REMARK    6  A    between atoms: C_10  and  C_11
REMARK                            x       y       z     vdW  Elec       q    Type
REMARK                         _______ _______ _______ _____ _____    ______ ____
ROOT
ATOM      1  C   UNL     1       6.448   5.126  17.536  0.00  0.00    +0.000 C 
ENDROOT
BRANCH   1   5
ATOM      2  C   UNL     1       2.952   4.241  20.146  0.00  0.00    +0.000 C 
ATOM      3  C   UNL     1       3.492   5.659  19.961  0.00  0.00    +0.000 C 
ATOM      4  C   UNL     1       4.949   5.645  19.418  0.00  0.00    +0.000 C 
ATOM      5  N   UNL     1       5.047   5.154  18.019  0.00  0.00    +0.000 NA
ATOM      6  C   UNL     1       4.236   6.083  17.185  0.00  0.00    +0.000 C 
ATOM      7  C   UNL     1       2.754   6.155  17.627  0.00  0.00    +0.000 C 
ATOM      8  N   UNL     1       2.606   6.421  19.064  0.00  0.00    +0.000 N 
ATOM      9  C   UNL     1       2.013   7.575  19.486  0.00  0.00    +0.000 A 
ATOM     10  N   UNL     1       1.881   8.653  18.746  0.00  0.00    +0.000 NA
ATOM     11  C   UNL     1       1.234   9.654  19.444  0.00  0.00    +0.000 A 
ATOM     12  C   UNL     1       0.815   9.319  20.709  0.00  0.00    +0.000 A 
ATOM     13  S   UNL     1       1.277   7.713  21.055  0.00  0.00    +0.000 S 
ENDBRANCH   1   5
BRANCH   1  14
ATOM     14  C   UNL     1       7.370   6.069  18.336  0.00  0.00    +0.000 C 
ATOM     15  O   UNL     1       7.869   5.741  19.413  0.00  0.00    +0.000 OA
ATOM     16  N   UNL     1       7.582   7.323  17.786  0.00  0.00    +0.000 N 
ATOM     17  H   UNL     1       7.329   7.473  16.818  0.00  0.00    +0.000 HD
BRANCH  16  18
ATOM     18  C   UNL     1       8.538   8.219  18.423  0.00  0.00    +0.000 C 
BRANCH  18  19
ATOM     19  C   UNL     1       8.250   9.702  18.184  0.00  0.00    +0.000 C 
BRANCH  19  20
ATOM     20  C   UNL     1       9.363  10.576  18.717  0.00  0.00    +0.000 A 
ATOM     21  C   UNL     1      10.425  10.971  17.892  0.00  0.00    +0.000 A 
ATOM     22  C   UNL     1      11.468  11.750  18.400  0.00  0.00    +0.000 A 
ATOM     23  C   UNL     1      11.463  12.138  19.738  0.00  0.00    +0.000 A 
ATOM     24  C   UNL     1      10.416  11.749  20.570  0.00  0.00    +0.000 A 
ATOM     25  C   UNL     1       9.372  10.970  20.064  0.00  0.00    +0.000 A 
ENDBRANCH  19  20
ENDBRANCH  18  19
ENDBRANCH  16  18
ENDBRANCH   1  14
TORSDOF 5
ENDMDL
MODEL 9
REMARK VINA RESULT:      -6.8      6.859     10.421
REMARK  Name = 
REMARK  6 active torsions:
REMARK  status: ('A' for Active; 'I' for Inactive)
REMARK    1  A    between atoms: C_1  and  C_2
REMARK    2  A    between atoms: N_4  and  C_5
REMARK    3  A    between atoms: C_5  and  C_6
REMARK    4  A    between atoms: N_8  and  C_9
REMARK    5  A    between atoms: C_9  and  C_10
REMARK    6  A    between atoms: C_10  and  C_11
REMARK                            x       y       z     vdW  Elec       q    Type
REMARK                         _______ _______ _______ _____ _____    ______ ____
ROOT
ATOM      1  C   UNL     1       0.149   9.755  18.047  0.00  0.00    +0.000 C 
ENDROOT
BRANCH   1   5
ATOM      2  C   UNL     1      -0.463  14.031  19.124  0.00  0.00    +0.000 C 
ATOM      3  C   UNL     1      -1.399  12.926  19.614  0.00  0.00    +0.000 C 
ATOM      4  C   UNL     1      -1.267  11.644  18.744  0.00  0.00    +0.000 C 
ATOM      5  N   UNL     1       0.041  10.958  18.907  0.00  0.00    +0.000 NA
ATOM      6  C   UNL     1       0.141  10.572  20.341  0.00  0.00    +0.000 C 
ATOM      7  C   UNL     1       0.046  11.783  21.301  0.00  0.00    +0.000 C 
ATOM      8  N   UNL     1      -1.126  12.627  21.030  0.00  0.00    +0.000 N 
ATOM      9  C   UNL     1      -2.106  12.754  21.970  0.00  0.00    +0.000 A 
ATOM     10  N   UNL     1      -2.297  11.910  22.961  0.00  0.00    +0.000 NA
ATOM     11  C   UNL     1      -3.358  12.306  23.750  0.00  0.00    +0.000 A 
ATOM     12  C   UNL     1      -3.949  13.496  23.395  0.00  0.00    +0.000 A 
ATOM     13  S   UNL     1      -3.178  14.122  22.007  0.00  0.00    +0.000 S 
ENDBRANCH   1   5
BRANCH   1  14
ATOM     14  C   UNL     1       1.601   9.255  17.903  0.00  0.00    +0.000 C 
ATOM     15  O   UNL     1       2.537  10.018  17.665  0.00  0.00    +0.000 OA
ATOM     16  N   UNL     1       1.788   7.888  18.027  0.00  0.00    +0.000 N 
ATOM     17  H   UNL     1       1.040   7.333  18.423  0.00  0.00    +0.000 HD
BRANCH  16  18
ATOM     18  C   UNL     1       3.146   7.360  18.025  0.00  0.00    +0.000 C 
BRANCH  18  19
ATOM     19  C   UNL     1       3.229   5.869  17.693  0.00  0.00    +0.000 C 
BRANCH  19  20
ATOM     20  C   UNL     1       2.532   5.028  18.739  0.00  0.00    +0.000 A 
ATOM     21  C   UNL     1       1.582   4.066  18.370  0.00  0.00    +0.000 A 
ATOM     22  C   UNL     1       0.915   3.316  19.343  0.00  0.00    +0.000 A 
ATOM     23  C   UNL     1       1.187   3.524  20.694  0.00  0.00    +0.000 A 
ATOM     24  C   UNL     1       2.125   4.481  21.074  0.00  0.00    +0.000 A 
ATOM     25  C   UNL     1       2.793   5.232  20.102  0.00  0.00    +0.000 A 
ENDBRANCH  19  20
ENDBRANCH  18  19
ENDBRANCH  16  18
ENDBRANCH   1  14
TORSDOF 5
ENDMDL
