MODEL 1
REMARK VINA RESULT:      -7.6      0.000      0.000
REMARK  Name = 
REMARK  2 active torsions:
REMARK  status: ('A' for Active; 'I' for Inactive)
REMARK    1  A    between atoms: C_2  and  C_3
REMARK    2  A    between atoms: N_11  and  C_12
REMARK                            x       y       z     vdW  Elec       q    Type
REMARK                         _______ _______ _______ _____ _____    ______ ____
ROOT
ATOM      1  O   UNL     1       0.065   8.547  21.468  0.00  0.00    +0.000 OA
ATOM      2  C   UNL     1       0.490   8.936  20.391  0.00  0.00    +0.000 C 
ATOM      3  N   UNL     1       1.611   8.304  19.802  0.00  0.00    +0.000 N 
ATOM      4  C   UNL     1       2.218   8.719  18.537  0.00  0.00    +0.000 C 
ATOM      5  C   UNL     1       3.564   8.044  18.203  0.00  0.00    +0.000 C 
ATOM      6  N   UNL     1       3.660   6.606  18.484  0.00  0.00    +0.000 NA
ATOM      7  C   UNL     1       3.189   6.363  19.862  0.00  0.00    +0.000 C 
ATOM      8  C   UNL     1       1.791   6.910  20.177  0.00  0.00    +0.000 C 
ENDROOT
BRANCH   6   9
ATOM      9  C   UNL     1       3.182   5.684  17.422  0.00  0.00    +0.000 C 
ATOM     10  C   UNL     1       4.334   5.233  16.510  0.00  0.00    +0.000 A 
ATOM     11  C   UNL     1       5.142   6.001  15.685  0.00  0.00    +0.000 A 
ATOM     12  C   UNL     1       6.163   5.357  14.981  0.00  0.00    +0.000 A 
ATOM     13  C   UNL     1       6.363   3.970  15.105  0.00  0.00    +0.000 A 
ATOM     14  C   UNL     1       5.548   3.202  15.939  0.00  0.00    +0.000 A 
ATOM     15  C   UNL     1       4.540   3.841  16.640  0.00  0.00    +0.000 A 
ATOM     16  C   UNL     1       3.532   3.299  17.521  0.00  0.00    +0.000 A 
ATOM     17  C   UNL     1       3.370   2.018  18.021  0.00  0.00    +0.000 A 
ATOM     18  C   UNL     1       2.260   1.755  18.826  0.00  0.00    +0.000 A 
ATOM     19  C   UNL     1       1.273   2.734  19.012  0.00  0.00    +0.000 A 
ATOM     20  C   UNL     1       1.431   4.016  18.482  0.00  0.00    +0.000 A 
ATOM     21  C   UNL     1       2.628   4.327  17.859  0.00  0.00    +0.000 A 
ENDBRANCH   6   9
BRANCH   2  22
ATOM     22  C   UNL     1      -0.115  10.053  19.670  0.00  0.00    +0.000 A 
ATOM     23  C   UNL     1      -1.079  10.070  18.678  0.00  0.00    +0.000 A 
ATOM     24  C   UNL     1      -1.314  11.360  18.150  0.00  0.00    +0.000 A 
ATOM     25  C   UNL     1      -0.573  12.314  18.804  0.00  0.00    +0.000 A 
ATOM     26  S   UNL     1       0.414  11.642  20.026  0.00  0.00    +0.000 S 
ENDBRANCH   2  22
TORSDOF 2
ENDMDL
MODEL 2
REMARK VINA RESULT:      -7.2      3.904      7.923
REMARK  Name = 
REMARK  2 active torsions:
REMARK  status: ('A' for Active; 'I' for Inactive)
REMARK    1  A    between atoms: C_2  and  C_3
REMARK    2  A    between atoms: N_11  and  C_12
REMARK                            x       y       z     vdW  Elec       q    Type
REMARK                         _______ _______ _______ _____ _____    ______ ____
ROOT
ATOM      1  O   UNL     1       7.236   5.768  13.239  0.00  0.00    +0.000 OA
ATOM      2  C   UNL     1       6.666   4.746  13.591  0.00  0.00    +0.000 C 
ATOM      3  N   UNL     1       6.165   4.633  14.909  0.00  0.00    +0.000 N 
ATOM      4  C   UNL     1       5.503   3.440  15.438  0.00  0.00    +0.000 C 
ATOM      5  C   UNL     1       5.249   3.451  16.959  0.00  0.00    +0.000 C 
ATOM      6  N   UNL     1       4.776   4.718  17.533  0.00  0.00    +0.000 NA
ATOM      7  C   UNL     1       5.654   5.806  17.060  0.00  0.00    +0.000 C 
ATOM      8  C   UNL     1       5.813   5.898  15.537  0.00  0.00    +0.000 C 
ENDROOT
BRANCH   6   9
ATOM      9  C   UNL     1       3.310   4.956  17.506  0.00  0.00    +0.000 C 
ATOM     10  C   UNL     1       2.572   4.027  18.482  0.00  0.00    +0.000 A 
ATOM     11  C   UNL     1       2.496   2.642  18.476  0.00  0.00    +0.000 A 
ATOM     12  C   UNL     1       1.792   2.018  19.509  0.00  0.00    +0.000 A 
ATOM     13  C   UNL     1       1.180   2.773  20.526  0.00  0.00    +0.000 A 
ATOM     14  C   UNL     1       1.262   4.167  20.529  0.00  0.00    +0.000 A 
ATOM     15  C   UNL     1       1.962   4.785  19.508  0.00  0.00    +0.000 A 
ATOM     16  C   UNL     1       2.164   6.188  19.234  0.00  0.00    +0.000 A 
ATOM     17  C   UNL     1       1.836   7.306  19.984  0.00  0.00    +0.000 A 
ATOM     18  C   UNL     1       2.107   8.566  19.448  0.00  0.00    +0.000 A 
ATOM     19  C   UNL     1       2.580   8.691  18.134  0.00  0.00    +0.000 A 
ATOM     20  C   UNL     1       2.884   7.559  17.375  0.00  0.00    +0.000 A 
ATOM     21  C   UNL     1       2.805   6.318  17.985  0.00  0.00    +0.000 A 
ENDBRANCH   6   9
BRANCH   2  22
ATOM     22  C   UNL     1       6.480   3.607  12.695  0.00  0.00    +0.000 A 
ATOM     23  C   UNL     1       7.404   2.773  12.093  0.00  0.00    +0.000 A 
ATOM     24  C   UNL     1       6.821   1.851  11.193  0.00  0.00    +0.000 A 
ATOM     25  C   UNL     1       5.452   1.954  11.184  0.00  0.00    +0.000 A 
ATOM     26  S   UNL     1       4.887   3.176  12.237  0.00  0.00    +0.000 S 
ENDBRANCH   2  22
TORSDOF 2
ENDMDL
MODEL 3
REMARK VINA RESULT:      -7.0      1.160      1.367
REMARK  Name = 
REMARK  2 active torsions:
REMARK  status: ('A' for Active; 'I' for Inactive)
REMARK    1  A    between atoms: C_2  and  C_3
REMARK    2  A    between atoms: N_11  and  C_12
REMARK                            x       y       z     vdW  Elec       q    Type
REMARK                         _______ _______ _______ _____ _____    ______ ____
ROOT
ATOM      1  O   UNL     1      -0.550   9.686  21.312  0.00  0.00    +0.000 OA
ATOM      2  C   UNL     1      -0.078   9.806  20.191  0.00  0.00    +0.000 C 
ATOM      3  N   UNL     1       1.037   9.027  19.805  0.00  0.00    +0.000 N 
ATOM      4  C   UNL     1       1.698   9.126  18.502  0.00  0.00    +0.000 C 
ATOM      5  C   UNL     1       3.029   8.356  18.383  0.00  0.00    +0.000 C 
ATOM      6  N   UNL     1       3.067   7.018  18.988  0.00  0.00    +0.000 NA
ATOM      7  C   UNL     1       2.545   7.110  20.365  0.00  0.00    +0.000 C 
ATOM      8  C   UNL     1       1.157   7.751  20.494  0.00  0.00    +0.000 C 
ENDROOT
BRANCH   6   9
ATOM      9  C   UNL     1       2.590   5.891  18.146  0.00  0.00    +0.000 C 
ATOM     10  C   UNL     1       3.715   5.344  17.252  0.00  0.00    +0.000 A 
ATOM     11  C   UNL     1       4.420   5.989  16.248  0.00  0.00    +0.000 A 
ATOM     12  C   UNL     1       5.438   5.283  15.602  0.00  0.00    +0.000 A 
ATOM     13  C   UNL     1       5.738   3.956  15.961  0.00  0.00    +0.000 A 
ATOM     14  C   UNL     1       5.026   3.312  16.975  0.00  0.00    +0.000 A 
ATOM     15  C   UNL     1       4.020   4.013  17.618  0.00  0.00    +0.000 A 
ATOM     16  C   UNL     1       3.104   3.589  18.649  0.00  0.00    +0.000 A 
ATOM     17  C   UNL     1       3.058   2.415  19.384  0.00  0.00    +0.000 A 
ATOM     18  C   UNL     1       2.017   2.245  20.298  0.00  0.00    +0.000 A 
ATOM     19  C   UNL     1       0.979   3.185  20.372  0.00  0.00    +0.000 A 
ATOM     20  C   UNL     1       1.019   4.354  19.610  0.00  0.00    +0.000 A 
ATOM     21  C   UNL     1       2.154   4.610  18.859  0.00  0.00    +0.000 A 
ENDBRANCH   6   9
BRANCH   2  22
ATOM     22  C   UNL     1      -0.621  10.745  19.212  0.00  0.00    +0.000 A 
ATOM     23  C   UNL     1      -0.339  12.080  18.989  0.00  0.00    +0.000 A 
ATOM     24  C   UNL     1      -1.173  12.672  18.013  0.00  0.00    +0.000 A 
ATOM     25  C   UNL     1      -2.029  11.753  17.458  0.00  0.00    +0.000 A 
ATOM     26  S   UNL     1      -1.836  10.196  18.137  0.00  0.00    +0.000 S 
ENDBRANCH   2  22
TORSDOF 2
ENDMDL
MODEL 4
REMARK VINA RESULT:      -6.8      4.374      7.362
REMARK  Name = 
REMARK  2 active torsions:
REMARK  status: ('A' for Active; 'I' for Inactive)
REMARK    1  A    between atoms: C_2  and  C_3
REMARK    2  A    between atoms: N_11  and  C_12
REMARK                            x       y       z     vdW  Elec       q    Type
REMARK                         _______ _______ _______ _____ _____    ______ ____
ROOT
ATOM      1  O   UNL     1       2.116  15.266  22.650  0.00  0.00    +0.000 OA
ATOM      2  C   UNL     1       1.110  15.297  21.957  0.00  0.00    +0.000 C 
ATOM      3  N   UNL     1       1.022  14.488  20.799  0.00  0.00    +0.000 N 
ATOM      4  C   UNL     1      -0.121  14.482  19.885  0.00  0.00    +0.000 C 
ATOM      5  C   UNL     1       0.095  13.704  18.571  0.00  0.00    +0.000 C 
ATOM      6  N   UNL     1       0.797  12.419  18.681  0.00  0.00    +0.000 NA
ATOM      7  C   UNL     1       2.027  12.620  19.472  0.00  0.00    +0.000 C 
ATOM      8  C   UNL     1       1.818  13.271  20.845  0.00  0.00    +0.000 C 
ENDROOT
BRANCH   6   9
ATOM      9  C   UNL     1      -0.035  11.229  18.995  0.00  0.00    +0.000 C 
ATOM     10  C   UNL     1       0.787   9.932  18.914  0.00  0.00    +0.000 A 
ATOM     11  C   UNL     1       1.430   9.377  17.818  0.00  0.00    +0.000 A 
ATOM     12  C   UNL     1       2.158   8.201  18.010  0.00  0.00    +0.000 A 
ATOM     13  C   UNL     1       2.236   7.598  19.278  0.00  0.00    +0.000 A 
ATOM     14  C   UNL     1       1.589   8.163  20.379  0.00  0.00    +0.000 A 
ATOM     15  C   UNL     1       0.871   9.330  20.190  0.00  0.00    +0.000 A 
ATOM     16  C   UNL     1       0.075  10.094  21.121  0.00  0.00    +0.000 A 
ATOM     17  C   UNL     1      -0.086   9.957  22.490  0.00  0.00    +0.000 A 
ATOM     18  C   UNL     1      -0.971  10.816  23.143  0.00  0.00    +0.000 A 
ATOM     19  C   UNL     1      -1.767  11.707  22.408  0.00  0.00    +0.000 A 
ATOM     20  C   UNL     1      -1.618  11.821  21.024  0.00  0.00    +0.000 A 
ATOM     21  C   UNL     1      -0.597  11.112  20.413  0.00  0.00    +0.000 A 
ENDBRANCH   6   9
BRANCH   2  22
ATOM     22  C   UNL     1      -0.029  16.155  22.272  0.00  0.00    +0.000 A 
ATOM     23  C   UNL     1      -1.192  15.890  22.972  0.00  0.00    +0.000 A 
ATOM     24  C   UNL     1      -2.111  16.965  22.958  0.00  0.00    +0.000 A 
ATOM     25  C   UNL     1      -1.595  18.058  22.307  0.00  0.00    +0.000 A 
ATOM     26  S   UNL     1      -0.024  17.768  21.699  0.00  0.00    +0.000 S 
ENDBRANCH   2  22
TORSDOF 2
ENDMDL
MODEL 5
REMARK VINA RESULT:      -6.7      3.342      8.543
REMARK  Name = 
REMARK  2 active torsions:
REMARK  status: ('A' for Active; 'I' for Inactive)
REMARK    1  A    between atoms: C_2  and  C_3
REMARK    2  A    between atoms: N_11  and  C_12
REMARK                            x       y       z     vdW  Elec       q    Type
REMARK                         _______ _______ _______ _____ _____    ______ ____
ROOT
ATOM      1  O   UNL     1       2.796   6.167  17.732  0.00  0.00    +0.000 OA
ATOM      2  C   UNL     1       2.402   6.166  18.889  0.00  0.00    +0.000 C 
ATOM      3  N   UNL     1       2.046   7.383  19.516  0.00  0.00    +0.000 N 
ATOM      4  C   UNL     1       1.601   7.492  20.907  0.00  0.00    +0.000 C 
ATOM      5  C   UNL     1       1.492   8.932  21.449  0.00  0.00    +0.000 C 
ATOM      6  N   UNL     1       0.910   9.929  20.541  0.00  0.00    +0.000 NA
ATOM      7  C   UNL     1       1.587   9.826  19.233  0.00  0.00    +0.000 C 
ATOM      8  C   UNL     1       1.589   8.425  18.610  0.00  0.00    +0.000 C 
ENDROOT
BRANCH   6   9
ATOM      9  C   UNL     1      -0.571  10.048  20.540  0.00  0.00    +0.000 C 
ATOM     10  C   UNL     1      -1.034  11.286  21.324  0.00  0.00    +0.000 A 
ATOM     11  C   UNL     1      -0.864  11.578  22.669  0.00  0.00    +0.000 A 
ATOM     12  C   UNL     1      -1.342  12.803  23.141  0.00  0.00    +0.000 A 
ATOM     13  C   UNL     1      -1.978  13.712  22.277  0.00  0.00    +0.000 A 
ATOM     14  C   UNL     1      -2.146  13.414  20.923  0.00  0.00    +0.000 A 
ATOM     15  C   UNL     1      -1.667  12.202  20.454  0.00  0.00    +0.000 A 
ATOM     16  C   UNL     1      -1.745  11.619  19.136  0.00  0.00    +0.000 A 
ATOM     17  C   UNL     1      -2.193  12.156  17.940  0.00  0.00    +0.000 A 
ATOM     18  C   UNL     1      -2.203  11.338  16.809  0.00  0.00    +0.000 A 
ATOM     19  C   UNL     1      -1.889   9.976  16.916  0.00  0.00    +0.000 A 
ATOM     20  C   UNL     1      -1.463   9.436  18.131  0.00  0.00    +0.000 A 
ATOM     21  C   UNL     1      -1.261  10.296  19.198  0.00  0.00    +0.000 A 
ENDBRANCH   6   9
BRANCH   2  22
ATOM     22  C   UNL     1       2.286   4.939  19.674  0.00  0.00    +0.000 A 
ATOM     23  C   UNL     1       1.229   4.434  20.408  0.00  0.00    +0.000 A 
ATOM     24  C   UNL     1       1.557   3.262  21.128  0.00  0.00    +0.000 A 
ATOM     25  C   UNL     1       2.842   2.855  20.866  0.00  0.00    +0.000 A 
ATOM     26  S   UNL     1       3.645   3.903  19.780  0.00  0.00    +0.000 S 
ENDBRANCH   2  22
TORSDOF 2
ENDMDL
MODEL 6
REMARK VINA RESULT:      -6.5      7.855     10.435
REMARK  Name = 
REMARK  2 active torsions:
REMARK  status: ('A' for Active; 'I' for Inactive)
REMARK    1  A    between atoms: C_2  and  C_3
REMARK    2  A    between atoms: N_11  and  C_12
REMARK                            x       y       z     vdW  Elec       q    Type
REMARK                         _______ _______ _______ _____ _____    ______ ____
ROOT
ATOM      1  O   UNL     1       2.484  13.524  21.335  0.00  0.00    +0.000 OA
ATOM      2  C   UNL     1       1.871  13.724  20.297  0.00  0.00    +0.000 C 
ATOM      3  N   UNL     1       0.624  13.094  20.078  0.00  0.00    +0.000 N 
ATOM      4  C   UNL     1      -0.167  13.237  18.855  0.00  0.00    +0.000 C 
ATOM      5  C   UNL     1      -1.372  12.282  18.738  0.00  0.00    +0.000 C 
ATOM      6  N   UNL     1      -2.165  12.079  19.957  0.00  0.00    +0.000 NA
ATOM      7  C   UNL     1      -1.246  11.757  21.067  0.00  0.00    +0.000 C 
ATOM      8  C   UNL     1      -0.115  12.769  21.289  0.00  0.00    +0.000 C 
ENDROOT
BRANCH   6   9
ATOM      9  C   UNL     1      -3.246  13.062  20.223  0.00  0.00    +0.000 C 
ATOM     10  C   UNL     1      -4.622  12.503  19.828  0.00  0.00    +0.000 A 
ATOM     11  C   UNL     1      -5.078  12.118  18.576  0.00  0.00    +0.000 A 
ATOM     12  C   UNL     1      -6.369  11.593  18.480  0.00  0.00    +0.000 A 
ATOM     13  C   UNL     1      -7.182  11.459  19.620  0.00  0.00    +0.000 A 
ATOM     14  C   UNL     1      -6.717  11.846  20.879  0.00  0.00    +0.000 A 
ATOM     15  C   UNL     1      -5.436  12.362  20.975  0.00  0.00    +0.000 A 
ATOM     16  C   UNL     1      -4.726  12.881  22.119  0.00  0.00    +0.000 A 
ATOM     17  C   UNL     1      -5.065  12.884  23.462  0.00  0.00    +0.000 A 
ATOM     18  C   UNL     1      -4.201  13.508  24.363  0.00  0.00    +0.000 A 
ATOM     19  C   UNL     1      -3.087  14.221  23.898  0.00  0.00    +0.000 A 
ATOM     20  C   UNL     1      -2.765  14.235  22.539  0.00  0.00    +0.000 A 
ATOM     21  C   UNL     1      -3.511  13.446  21.680  0.00  0.00    +0.000 A 
ENDBRANCH   6   9
BRANCH   2  22
ATOM     22  C   UNL     1       2.384  14.597  19.244  0.00  0.00    +0.000 A 
ATOM     23  C   UNL     1       3.249  14.337  18.197  0.00  0.00    +0.000 A 
ATOM     24  C   UNL     1       3.594  15.491  17.457  0.00  0.00    +0.000 A 
ATOM     25  C   UNL     1       2.923  16.600  17.912  0.00  0.00    +0.000 A 
ATOM     26  S   UNL     1       1.908  16.242  19.240  0.00  0.00    +0.000 S 
ENDBRANCH   2  22
TORSDOF 2
ENDMDL
MODEL 7
REMARK VINA RESULT:      -6.2      2.956      8.567
REMARK  Name = 
REMARK  2 active torsions:
REMARK  status: ('A' for Active; 'I' for Inactive)
REMARK    1  A    between atoms: C_2  and  C_3
REMARK    2  A    between atoms: N_11  and  C_12
REMARK                            x       y       z     vdW  Elec       q    Type
REMARK                         _______ _______ _______ _____ _____    ______ ____
ROOT
ATOM      1  O   UNL     1       3.149   7.119  17.075  0.00  0.00    +0.000 OA
ATOM      2  C   UNL     1       2.760   6.872  18.206  0.00  0.00    +0.000 C 
ATOM      3  N   UNL     1       2.276   7.913  19.032  0.00  0.00    +0.000 N 
ATOM      4  C   UNL     1       1.826   7.726  20.412  0.00  0.00    +0.000 C 
ATOM      5  C   UNL     1       1.563   9.028  21.198  0.00  0.00    +0.000 C 
ATOM      6  N   UNL     1       0.874  10.102  20.470  0.00  0.00    +0.000 NA
ATOM      7  C   UNL     1       1.555  10.305  19.177  0.00  0.00    +0.000 C 
ATOM      8  C   UNL     1       1.707   9.045  18.316  0.00  0.00    +0.000 C 
ENDROOT
BRANCH   6   9
ATOM      9  C   UNL     1      -0.611  10.060  20.466  0.00  0.00    +0.000 C 
ATOM     10  C   UNL     1      -1.206  11.206  21.299  0.00  0.00    +0.000 A 
ATOM     11  C   UNL     1      -1.070  11.458  22.656  0.00  0.00    +0.000 A 
ATOM     12  C   UNL     1      -1.679  12.602  23.176  0.00  0.00    +0.000 A 
ATOM     13  C   UNL     1      -2.408  13.473  22.347  0.00  0.00    +0.000 A 
ATOM     14  C   UNL     1      -2.541  13.217  20.981  0.00  0.00    +0.000 A 
ATOM     15  C   UNL     1      -1.934  12.085  20.465  0.00  0.00    +0.000 A 
ATOM     16  C   UNL     1      -1.946  11.553  19.123  0.00  0.00    +0.000 A 
ATOM     17  C   UNL     1      -2.448  12.089  17.948  0.00  0.00    +0.000 A 
ATOM     18  C   UNL     1      -2.368  11.324  16.783  0.00  0.00    +0.000 A 
ATOM     19  C   UNL     1      -1.909  10.000  16.835  0.00  0.00    +0.000 A 
ATOM     20  C   UNL     1      -1.428   9.458  18.029  0.00  0.00    +0.000 A 
ATOM     21  C   UNL     1      -1.322  10.289  19.131  0.00  0.00    +0.000 A 
ENDBRANCH   6   9
BRANCH   2  22
ATOM     22  C   UNL     1       2.780   5.520  18.760  0.00  0.00    +0.000 A 
ATOM     23  C   UNL     1       3.597   4.950  19.719  0.00  0.00    +0.000 A 
ATOM     24  C   UNL     1       3.370   3.566  19.896  0.00  0.00    +0.000 A 
ATOM     25  C   UNL     1       2.327   3.124  19.118  0.00  0.00    +0.000 A 
ATOM     26  S   UNL     1       1.655   4.374  18.166  0.00  0.00    +0.000 S 
ENDBRANCH   2  22
TORSDOF 2
ENDMDL
MODEL 8
REMARK VINA RESULT:      -6.2      6.763     10.345
REMARK  Name = 
REMARK  2 active torsions:
REMARK  status: ('A' for Active; 'I' for Inactive)
REMARK    1  A    between atoms: C_2  and  C_3
REMARK    2  A    between atoms: N_11  and  C_12
REMARK                            x       y       z     vdW  Elec       q    Type
REMARK                         _______ _______ _______ _____ _____    ______ ____
ROOT
ATOM      1  O   UNL     1      -0.384  10.975  18.654  0.00  0.00    +0.000 OA
ATOM      2  C   UNL     1       0.149  11.380  19.676  0.00  0.00    +0.000 C 
ATOM      3  N   UNL     1       1.073  12.449  19.617  0.00  0.00    +0.000 N 
ATOM      4  C   UNL     1       1.793  12.979  20.776  0.00  0.00    +0.000 C 
ATOM      5  C   UNL     1       2.918  13.981  20.447  0.00  0.00    +0.000 C 
ATOM      6  N   UNL     1       2.625  14.973  19.404  0.00  0.00    +0.000 NA
ATOM      7  C   UNL     1       2.081  14.269  18.226  0.00  0.00    +0.000 C 
ATOM      8  C   UNL     1       0.871  13.369  18.508  0.00  0.00    +0.000 C 
ENDROOT
BRANCH   6   9
ATOM      9  C   UNL     1       1.940  16.217  19.838  0.00  0.00    +0.000 C 
ATOM     10  C   UNL     1       1.378  16.997  18.639  0.00  0.00    +0.000 A 
ATOM     11  C   UNL     1       2.061  17.569  17.576  0.00  0.00    +0.000 A 
ATOM     12  C   UNL     1       1.313  18.194  16.575  0.00  0.00    +0.000 A 
ATOM     13  C   UNL     1      -0.091  18.241  16.644  0.00  0.00    +0.000 A 
ATOM     14  C   UNL     1      -0.773  17.661  17.716  0.00  0.00    +0.000 A 
ATOM     15  C   UNL     1      -0.033  17.038  18.705  0.00  0.00    +0.000 A 
ATOM     16  C   UNL     1      -0.462  16.410  19.932  0.00  0.00    +0.000 A 
ATOM     17  C   UNL     1      -1.735  16.130  20.401  0.00  0.00    +0.000 A 
ATOM     18  C   UNL     1      -1.864  15.552  21.665  0.00  0.00    +0.000 A 
ATOM     19  C   UNL     1      -0.739  15.380  22.484  0.00  0.00    +0.000 A 
ATOM     20  C   UNL     1       0.539  15.689  22.014  0.00  0.00    +0.000 A 
ATOM     21  C   UNL     1       0.678  16.070  20.689  0.00  0.00    +0.000 A 
ENDBRANCH   6   9
BRANCH   2  22
ATOM     22  C   UNL     1      -0.125  10.792  20.985  0.00  0.00    +0.000 A 
ATOM     23  C   UNL     1      -0.979  11.196  21.995  0.00  0.00    +0.000 A 
ATOM     24  C   UNL     1      -0.869  10.414  23.167  0.00  0.00    +0.000 A 
ATOM     25  C   UNL     1       0.019   9.380  23.000  0.00  0.00    +0.000 A 
ATOM     26  S   UNL     1       0.727   9.380  21.444  0.00  0.00    +0.000 S 
ENDBRANCH   2  22
TORSDOF 2
ENDMDL
MODEL 9
REMARK VINA RESULT:      -6.2      6.586      8.902
REMARK  Name = 
REMARK  2 active torsions:
REMARK  status: ('A' for Active; 'I' for Inactive)
REMARK    1  A    between atoms: C_2  and  C_3
REMARK    2  A    between atoms: N_11  and  C_12
REMARK                            x       y       z     vdW  Elec       q    Type
REMARK                         _______ _______ _______ _____ _____    ______ ____
ROOT
ATOM      1  O   UNL     1      -3.466  11.940  23.487  0.00  0.00    +0.000 OA
ATOM      2  C   UNL     1      -3.813  12.800  22.691  0.00  0.00    +0.000 C 
ATOM      3  N   UNL     1      -2.846  13.639  22.089  0.00  0.00    +0.000 N 
ATOM      4  C   UNL     1      -3.162  14.721  21.157  0.00  0.00    +0.000 C 
ATOM      5  C   UNL     1      -1.983  15.653  20.809  0.00  0.00    +0.000 C 
ATOM      6  N   UNL     1      -0.685  15.005  20.577  0.00  0.00    +0.000 NA
ATOM      7  C   UNL     1      -0.414  14.080  21.695  0.00  0.00    +0.000 C 
ATOM      8  C   UNL     1      -1.519  13.053  21.972  0.00  0.00    +0.000 C 
ENDROOT
BRANCH   6   9
ATOM      9  C   UNL     1      -0.420  14.515  19.200  0.00  0.00    +0.000 C 
ATOM     10  C   UNL     1       1.047  14.733  18.800  0.00  0.00    +0.000 A 
ATOM     11  C   UNL     1       1.746  15.924  18.668  0.00  0.00    +0.000 A 
ATOM     12  C   UNL     1       3.100  15.857  18.332  0.00  0.00    +0.000 A 
ATOM     13  C   UNL     1       3.736  14.619  18.132  0.00  0.00    +0.000 A 
ATOM     14  C   UNL     1       3.029  13.423  18.268  0.00  0.00    +0.000 A 
ATOM     15  C   UNL     1       1.688  13.488  18.606  0.00  0.00    +0.000 A 
ATOM     16  C   UNL     1       0.715  12.432  18.761  0.00  0.00    +0.000 A 
ATOM     17  C   UNL     1       0.873  11.056  18.754  0.00  0.00    +0.000 A 
ATOM     18  C   UNL     1      -0.264  10.257  18.879  0.00  0.00    +0.000 A 
ATOM     19  C   UNL     1      -1.541  10.838  18.882  0.00  0.00    +0.000 A 
ATOM     20  C   UNL     1      -1.693  12.225  18.864  0.00  0.00    +0.000 A 
ATOM     21  C   UNL     1      -0.557  13.012  18.945  0.00  0.00    +0.000 A 
ENDBRANCH   6   9
BRANCH   2  22
ATOM     22  C   UNL     1      -5.212  13.010  22.328  0.00  0.00    +0.000 A 
ATOM     23  C   UNL     1      -6.225  13.677  22.991  0.00  0.00    +0.000 A 
ATOM     24  C   UNL     1      -7.484  13.553  22.359  0.00  0.00    +0.000 A 
ATOM     25  C   UNL     1      -7.388  12.853  21.182  0.00  0.00    +0.000 A 
ATOM     26  S   UNL     1      -5.792  12.330  20.867  0.00  0.00    +0.000 S 
ENDBRANCH   2  22
TORSDOF 2
ENDMDL
