MODEL 1
REMARK VINA RESULT:      -9.0      0.000      0.000
REMARK  Name = 
REMARK  7 active torsions:
REMARK  status: ('A' for Active; 'I' for Inactive)
REMARK    1  A    between atoms: C_6  and  C_7
REMARK    2  A    between atoms: C_7  and  C_8
REMARK    3  A    between atoms: C_7  and  C_23
REMARK    4  A    between atoms: C_11  and  O_12
REMARK    5  A    between atoms: O_12  and  C_13
REMARK    6  A    between atoms: C_13  and  C_14
REMARK    7  A    between atoms: C_14  and  N_15
REMARK                            x       y       z     vdW  Elec       q    Type
REMARK                         _______ _______ _______ _____ _____    ______ ____
ROOT
ATOM      1  C   UNL     1       2.509   7.278  18.618  0.00  0.00    +0.000 A 
ATOM      2  C   UNL     1       2.061   7.420  19.936  0.00  0.00    +0.000 A 
ATOM      3  C   UNL     1       1.432   8.584  20.353  0.00  0.00    +0.000 A 
ATOM      4  C   UNL     1       1.222   9.645  19.465  0.00  0.00    +0.000 A 
ATOM      5  C   UNL     1       1.681   9.527  18.155  0.00  0.00    +0.000 A 
ATOM      6  C   UNL     1       2.317   8.352  17.729  0.00  0.00    +0.000 A 
ENDROOT
BRANCH   1   7
ATOM      7  C   UNL     1       3.085   5.939  18.136  0.00  0.00    +0.000 C 
BRANCH   7  13
ATOM      8  F   UNL     1       2.091   3.426  22.259  0.00  0.00    +0.000 F 
ATOM      9  C   UNL     1       1.911   3.581  20.940  0.00  0.00    +0.000 A 
ATOM     10  C   UNL     1       1.073   2.714  20.254  0.00  0.00    +0.000 A 
ATOM     11  C   UNL     1       0.890   2.874  18.881  0.00  0.00    +0.000 A 
ATOM     12  C   UNL     1       1.546   3.904  18.200  0.00  0.00    +0.000 A 
ATOM     13  C   UNL     1       2.393   4.790  18.885  0.00  0.00    +0.000 A 
ATOM     14  C   UNL     1       2.565   4.611  20.274  0.00  0.00    +0.000 A 
ENDBRANCH   7  13
BRANCH   7  15
ATOM     15  C   UNL     1       4.618   5.870  18.203  0.00  0.00    +0.000 A 
ATOM     16  C   UNL     1       5.441   5.248  19.130  0.00  0.00    +0.000 A 
ATOM     17  C   UNL     1       6.820   5.549  18.939  0.00  0.00    +0.000 A 
ATOM     18  C   UNL     1       7.024   6.343  17.834  0.00  0.00    +0.000 A 
ATOM     19  S   UNL     1       5.571   6.653  16.992  0.00  0.00    +0.000 S 
ENDBRANCH   7  15
ENDBRANCH   1   7
BRANCH   4  20
ATOM     20  O   UNL     1       0.572  10.815  19.794  0.00  0.00    +0.000 OA
BRANCH  20  21
ATOM     21  C   UNL     1      -0.395  11.202  18.810  0.00  0.00    +0.000 C 
BRANCH  21  22
ATOM     22  C   UNL     1      -1.843  11.029  19.273  0.00  0.00    +0.000 C 
BRANCH  22  23
ATOM     23  N   UNL     1      -2.716  10.627  18.144  0.00  0.00    +0.000 NA
ATOM     24  C   UNL     1      -3.635  11.703  17.734  0.00  0.00    +0.000 C 
ATOM     25  C   UNL     1      -4.562  11.259  16.604  0.00  0.00    +0.000 C 
ATOM     26  C   UNL     1      -3.768  10.753  15.411  0.00  0.00    +0.000 C 
ATOM     27  C   UNL     1      -2.780   9.681  15.855  0.00  0.00    +0.000 C 
ATOM     28  C   UNL     1      -1.902  10.168  17.010  0.00  0.00    +0.000 C 
ENDBRANCH  22  23
ENDBRANCH  21  22
ENDBRANCH  20  21
ENDBRANCH   4  20
TORSDOF 7
ENDMDL
MODEL 2
REMARK VINA RESULT:      -8.9      1.379      1.965
REMARK  Name = 
REMARK  7 active torsions:
REMARK  status: ('A' for Active; 'I' for Inactive)
REMARK    1  A    between atoms: C_6  and  C_7
REMARK    2  A    between atoms: C_7  and  C_8
REMARK    3  A    between atoms: C_7  and  C_23
REMARK    4  A    between atoms: C_11  and  O_12
REMARK    5  A    between atoms: O_12  and  C_13
REMARK    6  A    between atoms: C_13  and  C_14
REMARK    7  A    between atoms: C_14  and  N_15
REMARK                            x       y       z     vdW  Elec       q    Type
REMARK                         _______ _______ _______ _____ _____    ______ ____
ROOT
ATOM      1  C   UNL     1       2.899   6.893  18.244  0.00  0.00    +0.000 A 
ATOM      2  C   UNL     1       2.605   8.040  17.499  0.00  0.00    +0.000 A 
ATOM      3  C   UNL     1       1.947   9.116  18.078  0.00  0.00    +0.000 A 
ATOM      4  C   UNL     1       1.566   9.085  19.425  0.00  0.00    +0.000 A 
ATOM      5  C   UNL     1       1.833   7.941  20.174  0.00  0.00    +0.000 A 
ATOM      6  C   UNL     1       2.498   6.853  19.593  0.00  0.00    +0.000 A 
ENDROOT
BRANCH   1   7
ATOM      7  C   UNL     1       3.740   5.766  17.629  0.00  0.00    +0.000 C 
BRANCH   7  13
ATOM      8  F   UNL     1       3.900   0.881  18.272  0.00  0.00    +0.000 F 
ATOM      9  C   UNL     1       3.178   2.008  18.236  0.00  0.00    +0.000 A 
ATOM     10  C   UNL     1       1.813   1.958  18.479  0.00  0.00    +0.000 A 
ATOM     11  C   UNL     1       1.061   3.131  18.438  0.00  0.00    +0.000 A 
ATOM     12  C   UNL     1       1.681   4.353  18.153  0.00  0.00    +0.000 A 
ATOM     13  C   UNL     1       3.062   4.416  17.910  0.00  0.00    +0.000 A 
ATOM     14  C   UNL     1       3.804   3.217  17.956  0.00  0.00    +0.000 A 
ENDBRANCH   7  13
BRANCH   7  15
ATOM     15  C   UNL     1       5.217   5.801  18.051  0.00  0.00    +0.000 A 
ATOM     16  C   UNL     1       5.830   5.298  19.189  0.00  0.00    +0.000 A 
ATOM     17  C   UNL     1       7.200   5.674  19.294  0.00  0.00    +0.000 A 
ATOM     18  C   UNL     1       7.617   6.403  18.206  0.00  0.00    +0.000 A 
ATOM     19  S   UNL     1       6.388   6.561  17.031  0.00  0.00    +0.000 S 
ENDBRANCH   7  15
ENDBRANCH   1   7
BRANCH   4  20
ATOM     20  O   UNL     1       0.945  10.127  20.080  0.00  0.00    +0.000 OA
BRANCH  20  21
ATOM     21  C   UNL     1       0.067  10.868  19.224  0.00  0.00    +0.000 C 
BRANCH  21  22
ATOM     22  C   UNL     1      -1.340  10.274  19.129  0.00  0.00    +0.000 C 
BRANCH  22  23
ATOM     23  N   UNL     1      -2.044  10.769  17.922  0.00  0.00    +0.000 NA
ATOM     24  C   UNL     1      -1.952   9.827  16.792  0.00  0.00    +0.000 C 
ATOM     25  C   UNL     1      -2.639  10.371  15.541  0.00  0.00    +0.000 C 
ATOM     26  C   UNL     1      -4.090  10.725  15.823  0.00  0.00    +0.000 C 
ATOM     27  C   UNL     1      -4.179  11.654  17.028  0.00  0.00    +0.000 C 
ATOM     28  C   UNL     1      -3.445  11.075  18.240  0.00  0.00    +0.000 C 
ENDBRANCH  22  23
ENDBRANCH  21  22
ENDBRANCH  20  21
ENDBRANCH   4  20
TORSDOF 7
ENDMDL
MODEL 3
REMARK VINA RESULT:      -8.9      2.173      4.011
REMARK  Name = 
REMARK  7 active torsions:
REMARK  status: ('A' for Active; 'I' for Inactive)
REMARK    1  A    between atoms: C_6  and  C_7
REMARK    2  A    between atoms: C_7  and  C_8
REMARK    3  A    between atoms: C_7  and  C_23
REMARK    4  A    between atoms: C_11  and  O_12
REMARK    5  A    between atoms: O_12  and  C_13
REMARK    6  A    between atoms: C_13  and  C_14
REMARK    7  A    between atoms: C_14  and  N_15
REMARK                            x       y       z     vdW  Elec       q    Type
REMARK                         _______ _______ _______ _____ _____    ______ ____
ROOT
ATOM      1  C   UNL     1       2.780   6.716  18.951  0.00  0.00    +0.000 A 
ATOM      2  C   UNL     1       2.783   7.548  17.825  0.00  0.00    +0.000 A 
ATOM      3  C   UNL     1       2.135   8.775  17.845  0.00  0.00    +0.000 A 
ATOM      4  C   UNL     1       1.467   9.216  18.993  0.00  0.00    +0.000 A 
ATOM      5  C   UNL     1       1.437   8.390  20.114  0.00  0.00    +0.000 A 
ATOM      6  C   UNL     1       2.091   7.150  20.098  0.00  0.00    +0.000 A 
ENDROOT
BRANCH   1   7
ATOM      7  C   UNL     1       3.608   5.423  18.960  0.00  0.00    +0.000 C 
BRANCH   7  13
ATOM      8  F   UNL     1       7.852   7.071  17.069  0.00  0.00    +0.000 F 
ATOM      9  C   UNL     1       6.761   6.305  16.939  0.00  0.00    +0.000 A 
ATOM     10  C   UNL     1       6.590   5.540  15.794  0.00  0.00    +0.000 A 
ATOM     11  C   UNL     1       5.453   4.745  15.658  0.00  0.00    +0.000 A 
ATOM     12  C   UNL     1       4.490   4.718  16.672  0.00  0.00    +0.000 A 
ATOM     13  C   UNL     1       4.654   5.483  17.837  0.00  0.00    +0.000 A 
ATOM     14  C   UNL     1       5.812   6.281  17.954  0.00  0.00    +0.000 A 
ENDBRANCH   7  13
BRANCH   7  15
ATOM     15  C   UNL     1       2.754   4.146  18.925  0.00  0.00    +0.000 A 
ATOM     16  C   UNL     1       1.498   3.931  18.380  0.00  0.00    +0.000 A 
ATOM     17  C   UNL     1       0.969   2.646  18.695  0.00  0.00    +0.000 A 
ATOM     18  C   UNL     1       1.858   1.888  19.420  0.00  0.00    +0.000 A 
ATOM     19  S   UNL     1       3.347   2.692  19.647  0.00  0.00    +0.000 S 
ENDBRANCH   7  15
ENDBRANCH   1   7
BRANCH   4  20
ATOM     20  O   UNL     1       0.835  10.436  19.101  0.00  0.00    +0.000 OA
BRANCH  20  21
ATOM     21  C   UNL     1      -0.522  10.315  19.542  0.00  0.00    +0.000 C 
BRANCH  21  22
ATOM     22  C   UNL     1      -1.364  11.566  19.286  0.00  0.00    +0.000 C 
BRANCH  22  23
ATOM     23  N   UNL     1      -2.091  11.463  17.999  0.00  0.00    +0.000 NA
ATOM     24  C   UNL     1      -1.799  10.206  17.287  0.00  0.00    +0.000 C 
ATOM     25  C   UNL     1      -2.516  10.134  15.941  0.00  0.00    +0.000 C 
ATOM     26  C   UNL     1      -4.016  10.315  16.109  0.00  0.00    +0.000 C 
ATOM     27  C   UNL     1      -4.306  11.587  16.895  0.00  0.00    +0.000 C 
ATOM     28  C   UNL     1      -3.536  11.621  18.217  0.00  0.00    +0.000 C 
ENDBRANCH  22  23
ENDBRANCH  21  22
ENDBRANCH  20  21
ENDBRANCH   4  20
TORSDOF 7
ENDMDL
MODEL 4
REMARK VINA RESULT:      -8.8      0.709      1.164
REMARK  Name = 
REMARK  7 active torsions:
REMARK  status: ('A' for Active; 'I' for Inactive)
REMARK    1  A    between atoms: C_6  and  C_7
REMARK    2  A    between atoms: C_7  and  C_8
REMARK    3  A    between atoms: C_7  and  C_23
REMARK    4  A    between atoms: C_11  and  O_12
REMARK    5  A    between atoms: O_12  and  C_13
REMARK    6  A    between atoms: C_13  and  C_14
REMARK    7  A    between atoms: C_14  and  N_15
REMARK                            x       y       z     vdW  Elec       q    Type
REMARK                         _______ _______ _______ _____ _____    ______ ____
ROOT
ATOM      1  C   UNL     1       2.657   7.049  18.551  0.00  0.00    +0.000 A 
ATOM      2  C   UNL     1       2.265   7.053  19.895  0.00  0.00    +0.000 A 
ATOM      3  C   UNL     1       1.581   8.134  20.433  0.00  0.00    +0.000 A 
ATOM      4  C   UNL     1       1.260   9.245  19.646  0.00  0.00    +0.000 A 
ATOM      5  C   UNL     1       1.662   9.265  18.312  0.00  0.00    +0.000 A 
ATOM      6  C   UNL     1       2.353   8.175  17.764  0.00  0.00    +0.000 A 
ENDROOT
BRANCH   1   7
ATOM      7  C   UNL     1       3.296   5.796  17.935  0.00  0.00    +0.000 C 
BRANCH   7  13
ATOM      8  F   UNL     1       3.157   2.399  21.505  0.00  0.00    +0.000 F 
ATOM      9  C   UNL     1       2.639   2.892  20.373  0.00  0.00    +0.000 A 
ATOM     10  C   UNL     1       1.531   2.284  19.801  0.00  0.00    +0.000 A 
ATOM     11  C   UNL     1       0.995   2.795  18.621  0.00  0.00    +0.000 A 
ATOM     12  C   UNL     1       1.571   3.918  18.016  0.00  0.00    +0.000 A 
ATOM     13  C   UNL     1       2.689   4.545  18.588  0.00  0.00    +0.000 A 
ATOM     14  C   UNL     1       3.216   4.010  19.783  0.00  0.00    +0.000 A 
ENDBRANCH   7  13
BRANCH   7  15
ATOM     15  C   UNL     1       4.832   5.811  17.967  0.00  0.00    +0.000 A 
ATOM     16  C   UNL     1       5.703   5.565  19.016  0.00  0.00    +0.000 A 
ATOM     17  C   UNL     1       7.062   5.837  18.686  0.00  0.00    +0.000 A 
ATOM     18  C   UNL     1       7.204   6.225  17.374  0.00  0.00    +0.000 A 
ATOM     19  S   UNL     1       5.720   6.182  16.530  0.00  0.00    +0.000 S 
ENDBRANCH   7  15
ENDBRANCH   1   7
BRANCH   4  20
ATOM     20  O   UNL     1       0.550  10.337  20.099  0.00  0.00    +0.000 OA
BRANCH  20  21
ATOM     21  C   UNL     1      -0.798  10.355  19.615  0.00  0.00    +0.000 C 
BRANCH  21  22
ATOM     22  C   UNL     1      -1.248  11.726  19.106  0.00  0.00    +0.000 C 
BRANCH  22  23
ATOM     23  N   UNL     1      -2.070  11.592  17.880  0.00  0.00    +0.000 NA
ATOM     24  C   UNL     1      -1.766  10.361  17.130  0.00  0.00    +0.000 C 
ATOM     25  C   UNL     1      -2.585  10.260  15.845  0.00  0.00    +0.000 C 
ATOM     26  C   UNL     1      -4.074  10.352  16.135  0.00  0.00    +0.000 C 
ATOM     27  C   UNL     1      -4.371  11.599  16.960  0.00  0.00    +0.000 C 
ATOM     28  C   UNL     1      -3.499  11.665  18.216  0.00  0.00    +0.000 C 
ENDBRANCH  22  23
ENDBRANCH  21  22
ENDBRANCH  20  21
ENDBRANCH   4  20
TORSDOF 7
ENDMDL
MODEL 5
REMARK VINA RESULT:      -8.8      2.172      4.018
REMARK  Name = 
REMARK  7 active torsions:
REMARK  status: ('A' for Active; 'I' for Inactive)
REMARK    1  A    between atoms: C_6  and  C_7
REMARK    2  A    between atoms: C_7  and  C_8
REMARK    3  A    between atoms: C_7  and  C_23
REMARK    4  A    between atoms: C_11  and  O_12
REMARK    5  A    between atoms: O_12  and  C_13
REMARK    6  A    between atoms: C_13  and  C_14
REMARK    7  A    between atoms: C_14  and  N_15
REMARK                            x       y       z     vdW  Elec       q    Type
REMARK                         _______ _______ _______ _____ _____    ______ ____
ROOT
ATOM      1  C   UNL     1       2.858   6.672  18.903  0.00  0.00    +0.000 A 
ATOM      2  C   UNL     1       2.912   7.517  17.789  0.00  0.00    +0.000 A 
ATOM      3  C   UNL     1       2.273   8.749  17.799  0.00  0.00    +0.000 A 
ATOM      4  C   UNL     1       1.563   9.181  18.925  0.00  0.00    +0.000 A 
ATOM      5  C   UNL     1       1.483   8.342  20.034  0.00  0.00    +0.000 A 
ATOM      6  C   UNL     1       2.127   7.097  20.028  0.00  0.00    +0.000 A 
ENDROOT
BRANCH   1   7
ATOM      7  C   UNL     1       3.675   5.372  18.929  0.00  0.00    +0.000 C 
BRANCH   7  13
ATOM      8  F   UNL     1       5.300   4.427  14.371  0.00  0.00    +0.000 F 
ATOM      9  C   UNL     1       5.522   4.963  15.578  0.00  0.00    +0.000 A 
ATOM     10  C   UNL     1       6.728   5.600  15.836  0.00  0.00    +0.000 A 
ATOM     11  C   UNL     1       6.960   6.154  17.094  0.00  0.00    +0.000 A 
ATOM     12  C   UNL     1       5.982   6.070  18.090  0.00  0.00    +0.000 A 
ATOM     13  C   UNL     1       4.757   5.432  17.840  0.00  0.00    +0.000 A 
ATOM     14  C   UNL     1       4.542   4.878  16.560  0.00  0.00    +0.000 A 
ENDBRANCH   7  13
BRANCH   7  15
ATOM     15  C   UNL     1       2.813   4.103  18.857  0.00  0.00    +0.000 A 
ATOM     16  C   UNL     1       1.542   3.918  18.335  0.00  0.00    +0.000 A 
ATOM     17  C   UNL     1       1.014   2.623  18.605  0.00  0.00    +0.000 A 
ATOM     18  C   UNL     1       1.916   1.828  19.272  0.00  0.00    +0.000 A 
ATOM     19  S   UNL     1       3.416   2.614  19.497  0.00  0.00    +0.000 S 
ENDBRANCH   7  15
ENDBRANCH   1   7
BRANCH   4  20
ATOM     20  O   UNL     1       0.936  10.405  19.024  0.00  0.00    +0.000 OA
BRANCH  20  21
ATOM     21  C   UNL     1      -0.299  10.333  19.745  0.00  0.00    +0.000 C 
BRANCH  21  22
ATOM     22  C   UNL     1      -1.309  11.407  19.339  0.00  0.00    +0.000 C 
BRANCH  22  23
ATOM     23  N   UNL     1      -2.351  10.846  18.446  0.00  0.00    +0.000 NA
ATOM     24  C   UNL     1      -3.544  11.707  18.362  0.00  0.00    +0.000 C 
ATOM     25  C   UNL     1      -4.628  11.093  17.479  0.00  0.00    +0.000 C 
ATOM     26  C   UNL     1      -4.094  10.787  16.089  0.00  0.00    +0.000 C 
ATOM     27  C   UNL     1      -2.828   9.944  16.188  0.00  0.00    +0.000 C 
ATOM     28  C   UNL     1      -1.792  10.589  17.111  0.00  0.00    +0.000 C 
ENDBRANCH  22  23
ENDBRANCH  21  22
ENDBRANCH  20  21
ENDBRANCH   4  20
TORSDOF 7
ENDMDL
MODEL 6
REMARK VINA RESULT:      -8.8      1.260      1.701
REMARK  Name = 
REMARK  7 active torsions:
REMARK  status: ('A' for Active; 'I' for Inactive)
REMARK    1  A    between atoms: C_6  and  C_7
REMARK    2  A    between atoms: C_7  and  C_8
REMARK    3  A    between atoms: C_7  and  C_23
REMARK    4  A    between atoms: C_11  and  O_12
REMARK    5  A    between atoms: O_12  and  C_13
REMARK    6  A    between atoms: C_13  and  C_14
REMARK    7  A    between atoms: C_14  and  N_15
REMARK                            x       y       z     vdW  Elec       q    Type
REMARK                         _______ _______ _______ _____ _____    ______ ____
ROOT
ATOM      1  C   UNL     1       2.886   6.787  18.244  0.00  0.00    +0.000 A 
ATOM      2  C   UNL     1       2.467   7.871  17.465  0.00  0.00    +0.000 A 
ATOM      3  C   UNL     1       1.757   8.921  18.030  0.00  0.00    +0.000 A 
ATOM      4  C   UNL     1       1.447   8.927  19.394  0.00  0.00    +0.000 A 
ATOM      5  C   UNL     1       1.839   7.845  20.179  0.00  0.00    +0.000 A 
ATOM      6  C   UNL     1       2.556   6.782  19.613  0.00  0.00    +0.000 A 
ENDROOT
BRANCH   1   7
ATOM      7  C   UNL     1       3.780   5.697  17.637  0.00  0.00    +0.000 C 
BRANCH   7  13
ATOM      8  F   UNL     1       0.087   2.837  19.214  0.00  0.00    +0.000 F 
ATOM      9  C   UNL     1       1.318   2.936  18.694  0.00  0.00    +0.000 A 
ATOM     10  C   UNL     1       2.028   1.785  18.386  0.00  0.00    +0.000 A 
ATOM     11  C   UNL     1       3.310   1.889  17.848  0.00  0.00    +0.000 A 
ATOM     12  C   UNL     1       3.876   3.147  17.618  0.00  0.00    +0.000 A 
ATOM     13  C   UNL     1       3.165   4.318  17.921  0.00  0.00    +0.000 A 
ATOM     14  C   UNL     1       1.869   4.191  18.466  0.00  0.00    +0.000 A 
ENDBRANCH   7  13
BRANCH   7  15
ATOM     15  C   UNL     1       5.253   5.803  18.063  0.00  0.00    +0.000 A 
ATOM     16  C   UNL     1       5.898   5.277  19.171  0.00  0.00    +0.000 A 
ATOM     17  C   UNL     1       7.241   5.734  19.300  0.00  0.00    +0.000 A 
ATOM     18  C   UNL     1       7.610   6.548  18.254  0.00  0.00    +0.000 A 
ATOM     19  S   UNL     1       6.370   6.692  17.088  0.00  0.00    +0.000 S 
ENDBRANCH   7  15
ENDBRANCH   1   7
BRANCH   4  20
ATOM     20  O   UNL     1       0.780   9.951  20.034  0.00  0.00    +0.000 OA
BRANCH  20  21
ATOM     21  C   UNL     1       0.290  10.941  19.122  0.00  0.00    +0.000 C 
BRANCH  21  22
ATOM     22  C   UNL     1      -1.075  11.510  19.511  0.00  0.00    +0.000 C 
BRANCH  22  23
ATOM     23  N   UNL     1      -2.153  10.912  18.688  0.00  0.00    +0.000 NA
ATOM     24  C   UNL     1      -3.342  11.778  18.602  0.00  0.00    +0.000 C 
ATOM     25  C   UNL     1      -4.462  11.128  17.792  0.00  0.00    +0.000 C 
ATOM     26  C   UNL     1      -3.982  10.744  16.403  0.00  0.00    +0.000 C 
ATOM     27  C   UNL     1      -2.720   9.896  16.500  0.00  0.00    +0.000 C 
ATOM     28  C   UNL     1      -1.646  10.579  17.350  0.00  0.00    +0.000 C 
ENDBRANCH  22  23
ENDBRANCH  21  22
ENDBRANCH  20  21
ENDBRANCH   4  20
TORSDOF 7
ENDMDL
MODEL 7
REMARK VINA RESULT:      -8.7      1.353      1.689
REMARK  Name = 
REMARK  7 active torsions:
REMARK  status: ('A' for Active; 'I' for Inactive)
REMARK    1  A    between atoms: C_6  and  C_7
REMARK    2  A    between atoms: C_7  and  C_8
REMARK    3  A    between atoms: C_7  and  C_23
REMARK    4  A    between atoms: C_11  and  O_12
REMARK    5  A    between atoms: O_12  and  C_13
REMARK    6  A    between atoms: C_13  and  C_14
REMARK    7  A    between atoms: C_14  and  N_15
REMARK                            x       y       z     vdW  Elec       q    Type
REMARK                         _______ _______ _______ _____ _____    ______ ____
ROOT
ATOM      1  C   UNL     1       2.674   6.928  18.254  0.00  0.00    +0.000 A 
ATOM      2  C   UNL     1       2.331   6.918  19.611  0.00  0.00    +0.000 A 
ATOM      3  C   UNL     1       1.736   8.024  20.202  0.00  0.00    +0.000 A 
ATOM      4  C   UNL     1       1.457   9.174  19.456  0.00  0.00    +0.000 A 
ATOM      5  C   UNL     1       1.811   9.207  18.109  0.00  0.00    +0.000 A 
ATOM      6  C   UNL     1       2.413   8.092  17.508  0.00  0.00    +0.000 A 
ENDROOT
BRANCH   1   7
ATOM      7  C   UNL     1       3.211   5.656  17.583  0.00  0.00    +0.000 C 
BRANCH   7  13
ATOM      8  F   UNL     1       0.043   2.010  18.570  0.00  0.00    +0.000 F 
ATOM      9  C   UNL     1       1.196   2.633  18.849  0.00  0.00    +0.000 A 
ATOM     10  C   UNL     1       2.011   2.150  19.863  0.00  0.00    +0.000 A 
ATOM     11  C   UNL     1       3.208   2.800  20.155  0.00  0.00    +0.000 A 
ATOM     12  C   UNL     1       3.587   3.934  19.428  0.00  0.00    +0.000 A 
ATOM     13  C   UNL     1       2.773   4.429  18.397  0.00  0.00    +0.000 A 
ATOM     14  C   UNL     1       1.565   3.756  18.118  0.00  0.00    +0.000 A 
ENDBRANCH   7  13
BRANCH   7  15
ATOM     15  C   UNL     1       4.723   5.695  17.312  0.00  0.00    +0.000 A 
ATOM     16  C   UNL     1       5.688   6.574  17.779  0.00  0.00    +0.000 A 
ATOM     17  C   UNL     1       6.960   6.377  17.170  0.00  0.00    +0.000 A 
ATOM     18  C   UNL     1       6.953   5.314  16.298  0.00  0.00    +0.000 A 
ATOM     19  S   UNL     1       5.445   4.512  16.279  0.00  0.00    +0.000 S 
ENDBRANCH   7  15
ENDBRANCH   1   7
BRANCH   4  20
ATOM     20  O   UNL     1       0.833  10.295  19.963  0.00  0.00    +0.000 OA
BRANCH  20  21
ATOM     21  C   UNL     1      -0.595  10.189  19.934  0.00  0.00    +0.000 C 
BRANCH  21  22
ATOM     22  C   UNL     1      -1.293  11.455  19.432  0.00  0.00    +0.000 C 
BRANCH  22  23
ATOM     23  N   UNL     1      -2.509  11.117  18.655  0.00  0.00    +0.000 NA
ATOM     24  C   UNL     1      -3.649  11.989  18.988  0.00  0.00    +0.000 C 
ATOM     25  C   UNL     1      -4.908  11.599  18.217  0.00  0.00    +0.000 C 
ATOM     26  C   UNL     1      -4.656  11.600  16.719  0.00  0.00    +0.000 C 
ATOM     27  C   UNL     1      -3.441  10.742  16.390  0.00  0.00    +0.000 C 
ATOM     28  C   UNL     1      -2.220  11.154  17.215  0.00  0.00    +0.000 C 
ENDBRANCH  22  23
ENDBRANCH  21  22
ENDBRANCH  20  21
ENDBRANCH   4  20
TORSDOF 7
ENDMDL
MODEL 8
REMARK VINA RESULT:      -8.7      1.474      1.687
REMARK  Name = 
REMARK  7 active torsions:
REMARK  status: ('A' for Active; 'I' for Inactive)
REMARK    1  A    between atoms: C_6  and  C_7
REMARK    2  A    between atoms: C_7  and  C_8
REMARK    3  A    between atoms: C_7  and  C_23
REMARK    4  A    between atoms: C_11  and  O_12
REMARK    5  A    between atoms: O_12  and  C_13
REMARK    6  A    between atoms: C_13  and  C_14
REMARK    7  A    between atoms: C_14  and  N_15
REMARK                            x       y       z     vdW  Elec       q    Type
REMARK                         _______ _______ _______ _____ _____    ______ ____
ROOT
ATOM      1  C   UNL     1       2.918   6.775  18.221  0.00  0.00    +0.000 A 
ATOM      2  C   UNL     1       2.552   6.605  19.561  0.00  0.00    +0.000 A 
ATOM      3  C   UNL     1       1.892   7.611  20.252  0.00  0.00    +0.000 A 
ATOM      4  C   UNL     1       1.568   8.820  19.625  0.00  0.00    +0.000 A 
ATOM      5  C   UNL     1       1.944   9.012  18.298  0.00  0.00    +0.000 A 
ATOM      6  C   UNL     1       2.611   7.998  17.596  0.00  0.00    +0.000 A 
ENDROOT
BRANCH   1   7
ATOM      7  C   UNL     1       3.530   5.609  17.432  0.00  0.00    +0.000 C 
BRANCH   7  13
ATOM      8  F   UNL     1       3.746   0.812  18.549  0.00  0.00    +0.000 F 
ATOM      9  C   UNL     1       3.018   1.931  18.438  0.00  0.00    +0.000 A 
ATOM     10  C   UNL     1       1.667   1.906  18.755  0.00  0.00    +0.000 A 
ATOM     11  C   UNL     1       0.909   3.069  18.635  0.00  0.00    +0.000 A 
ATOM     12  C   UNL     1       1.507   4.256  18.199  0.00  0.00    +0.000 A 
ATOM     13  C   UNL     1       2.873   4.294  17.880  0.00  0.00    +0.000 A 
ATOM     14  C   UNL     1       3.623   3.105  18.008  0.00  0.00    +0.000 A 
ENDBRANCH   7  13
BRANCH   7  15
ATOM     15  C   UNL     1       5.065   5.569  17.487  0.00  0.00    +0.000 A 
ATOM     16  C   UNL     1       5.994   5.658  16.462  0.00  0.00    +0.000 A 
ATOM     17  C   UNL     1       7.328   5.415  16.899  0.00  0.00    +0.000 A 
ATOM     18  C   UNL     1       7.394   5.207  18.257  0.00  0.00    +0.000 A 
ATOM     19  S   UNL     1       5.869   5.385  19.006  0.00  0.00    +0.000 S 
ENDBRANCH   7  15
ENDBRANCH   1   7
BRANCH   4  20
ATOM     20  O   UNL     1       0.880   9.849  20.233  0.00  0.00    +0.000 OA
BRANCH  20  21
ATOM     21  C   UNL     1      -0.538   9.732  20.073  0.00  0.00    +0.000 C 
BRANCH  21  22
ATOM     22  C   UNL     1      -1.196  10.989  19.502  0.00  0.00    +0.000 C 
BRANCH  22  23
ATOM     23  N   UNL     1      -2.226  10.639  18.495  0.00  0.00    +0.000 NA
ATOM     24  C   UNL     1      -3.157  11.751  18.232  0.00  0.00    +0.000 C 
ATOM     25  C   UNL     1      -4.240  11.360  17.229  0.00  0.00    +0.000 C 
ATOM     26  C   UNL     1      -3.631  10.858  15.931  0.00  0.00    +0.000 C 
ATOM     27  C   UNL     1      -2.627   9.747  16.218  0.00  0.00    +0.000 C 
ATOM     28  C   UNL     1      -1.587  10.182  17.253  0.00  0.00    +0.000 C 
ENDBRANCH  22  23
ENDBRANCH  21  22
ENDBRANCH  20  21
ENDBRANCH   4  20
TORSDOF 7
ENDMDL
MODEL 9
REMARK VINA RESULT:      -8.7      0.912      1.577
REMARK  Name = 
REMARK  7 active torsions:
REMARK  status: ('A' for Active; 'I' for Inactive)
REMARK    1  A    between atoms: C_6  and  C_7
REMARK    2  A    between atoms: C_7  and  C_8
REMARK    3  A    between atoms: C_7  and  C_23
REMARK    4  A    between atoms: C_11  and  O_12
REMARK    5  A    between atoms: O_12  and  C_13
REMARK    6  A    between atoms: C_13  and  C_14
REMARK    7  A    between atoms: C_14  and  N_15
REMARK                            x       y       z     vdW  Elec       q    Type
REMARK                         _______ _______ _______ _____ _____    ______ ____
ROOT
ATOM      1  C   UNL     1       2.482   7.305  18.730  0.00  0.00    +0.000 A 
ATOM      2  C   UNL     1       2.034   7.451  20.047  0.00  0.00    +0.000 A 
ATOM      3  C   UNL     1       1.463   8.641  20.476  0.00  0.00    +0.000 A 
ATOM      4  C   UNL     1       1.316   9.724  19.602  0.00  0.00    +0.000 A 
ATOM      5  C   UNL     1       1.776   9.600  18.293  0.00  0.00    +0.000 A 
ATOM      6  C   UNL     1       2.353   8.399  17.855  0.00  0.00    +0.000 A 
ENDROOT
BRANCH   1   7
ATOM      7  C   UNL     1       2.991   5.944  18.232  0.00  0.00    +0.000 C 
BRANCH   7  13
ATOM      8  F   UNL     1       0.185   1.903  18.550  0.00  0.00    +0.000 F 
ATOM      9  C   UNL     1       0.941   2.823  19.162  0.00  0.00    +0.000 A 
ATOM     10  C   UNL     1       1.140   2.748  20.533  0.00  0.00    +0.000 A 
ATOM     11  C   UNL     1       1.924   3.708  21.171  0.00  0.00    +0.000 A 
ATOM     12  C   UNL     1       2.508   4.741  20.431  0.00  0.00    +0.000 A 
ATOM     13  C   UNL     1       2.319   4.825  19.043  0.00  0.00    +0.000 A 
ATOM     14  C   UNL     1       1.521   3.843  18.417  0.00  0.00    +0.000 A 
ENDBRANCH   7  13
BRANCH   7  15
ATOM     15  C   UNL     1       4.523   5.834  18.202  0.00  0.00    +0.000 A 
ATOM     16  C   UNL     1       5.392   5.266  19.120  0.00  0.00    +0.000 A 
ATOM     17  C   UNL     1       6.762   5.508  18.811  0.00  0.00    +0.000 A 
ATOM     18  C   UNL     1       6.908   6.203  17.633  0.00  0.00    +0.000 A 
ATOM     19  S   UNL     1       5.408   6.487  16.868  0.00  0.00    +0.000 S 
ENDBRANCH   7  15
ENDBRANCH   1   7
BRANCH   4  20
ATOM     20  O   UNL     1       0.725  10.922  19.943  0.00  0.00    +0.000 OA
BRANCH  20  21
ATOM     21  C   UNL     1      -0.172  11.400  18.934  0.00  0.00    +0.000 C 
BRANCH  21  22
ATOM     22  C   UNL     1      -1.499  10.641  18.884  0.00  0.00    +0.000 C 
BRANCH  22  23
ATOM     23  N   UNL     1      -2.249  10.963  17.647  0.00  0.00    +0.000 NA
ATOM     24  C   UNL     1      -2.061   9.949  16.595  0.00  0.00    +0.000 C 
ATOM     25  C   UNL     1      -2.798  10.318  15.310  0.00  0.00    +0.000 C 
ATOM     26  C   UNL     1      -4.278  10.545  15.573  0.00  0.00    +0.000 C 
ATOM     27  C   UNL     1      -4.462  11.553  16.701  0.00  0.00    +0.000 C 
ATOM     28  C   UNL     1      -3.674  11.150  17.950  0.00  0.00    +0.000 C 
ENDBRANCH  22  23
ENDBRANCH  21  22
ENDBRANCH  20  21
ENDBRANCH   4  20
TORSDOF 7
ENDMDL
