MODEL 1
REMARK VINA RESULT:      -6.2      0.000      0.000
REMARK  Name = 
REMARK  1 active torsions:
REMARK  status: ('A' for Active; 'I' for Inactive)
REMARK    1  A    between atoms: C_2  and  C_3
REMARK                            x       y       z     vdW  Elec       q    Type
REMARK                         _______ _______ _______ _____ _____    ______ ____
ROOT
ATOM      1  C   UNL     1       0.003  13.452  21.462  0.00  0.00    +0.000 A 
ATOM      2  N   UNL     1      -0.154  13.938  22.739  0.00  0.00    +0.000 NA
ATOM      3  C   UNL     1      -1.177  13.397  23.460  0.00  0.00    +0.000 A 
ATOM      4  C   UNL     1      -2.008  12.414  22.945  0.00  0.00    +0.000 A 
ATOM      5  N   UNL     1      -1.684  11.781  21.777  0.00  0.00    +0.000 NA
ATOM      6  C   UNL     1      -0.707  12.349  21.005  0.00  0.00    +0.000 A 
ATOM      7  O   UNL     1      -0.631  12.004  19.660  0.00  0.00    +0.000 OA
ATOM      8  C   UNL     1      -1.014  10.660  19.287  0.00  0.00    +0.000 C 
ATOM      9  C   UNL     1      -1.963  10.583  18.046  0.00  0.00    +0.000 C 
ATOM     10  C   UNL     1      -3.483  10.722  18.370  0.00  0.00    +0.000 C 
ATOM     11  C   UNL     1      -3.685  12.107  18.933  0.00  0.00    +0.000 C 
ATOM     12  C   UNL     1      -4.821  12.537  19.855  0.00  0.00    +0.000 C 
ATOM     13  C   UNL     1      -4.161  13.725  20.576  0.00  0.00    +0.000 C 
ATOM     14  O   UNL     1      -4.891  14.414  21.555  0.00  0.00    +0.000 OA
ATOM     15  C   UNL     1      -4.015  15.190  22.300  0.00  0.00    +0.000 A 
ATOM     16  C   UNL     1      -3.227  16.202  21.729  0.00  0.00    +0.000 A 
ATOM     17  C   UNL     1      -2.635  17.167  22.548  0.00  0.00    +0.000 A 
ATOM     18  C   UNL     1      -2.964  17.199  23.900  0.00  0.00    +0.000 A 
ATOM     19 CL   UNL     1      -2.406  18.490  24.890  0.00  0.00    +0.000 Cl
ATOM     20  C   UNL     1      -3.712  16.171  24.468  0.00  0.00    +0.000 A 
ATOM     21  C   UNL     1      -4.077  15.076  23.686  0.00  0.00    +0.000 A 
ATOM     22  N   UNL     1      -4.475  13.917  24.365  0.00  0.00    +0.000 N 
ATOM     23  C   UNL     1      -4.260  12.600  24.164  0.00  0.00    +0.000 C 
ATOM     24  O   UNL     1      -5.075  11.823  24.678  0.00  0.00    +0.000 OA
ATOM     25  N   UNL     1      -3.247  12.036  23.473  0.00  0.00    +0.000 N 
ATOM     26  H   UNL     1      -5.225  14.067  25.034  0.00  0.00    +0.000 HD
ATOM     27  H   UNL     1      -3.493  11.095  23.201  0.00  0.00    +0.000 HD
ENDROOT
BRANCH   1  29
ATOM     28  N   UNL     1       1.482  14.884  19.876  0.00  0.00    +0.000 NA
ATOM     29  C   UNL     1       0.796  14.278  20.585  0.00  0.00    +0.000 C 
ENDBRANCH   1  29
TORSDOF 1
ENDMDL
MODEL 2
REMARK VINA RESULT:      -6.1      0.996      1.088
REMARK  Name = 
REMARK  1 active torsions:
REMARK  status: ('A' for Active; 'I' for Inactive)
REMARK    1  A    between atoms: C_2  and  C_3
REMARK                            x       y       z     vdW  Elec       q    Type
REMARK                         _______ _______ _______ _____ _____    ______ ____
ROOT
ATOM      1  C   UNL     1      -0.873  13.893  20.569  0.00  0.00    +0.000 A 
ATOM      2  N   UNL     1      -0.676  14.284  21.872  0.00  0.00    +0.000 NA
ATOM      3  C   UNL     1      -1.434  13.644  22.808  0.00  0.00    +0.000 A 
ATOM      4  C   UNL     1      -2.346  12.655  22.471  0.00  0.00    +0.000 A 
ATOM      5  N   UNL     1      -2.348  12.119  21.213  0.00  0.00    +0.000 NA
ATOM      6  C   UNL     1      -1.649  12.787  20.245  0.00  0.00    +0.000 A 
ATOM      7  O   UNL     1      -1.948  12.537  18.910  0.00  0.00    +0.000 OA
ATOM      8  C   UNL     1      -2.378  11.202  18.555  0.00  0.00    +0.000 C 
ATOM      9  C   UNL     1      -3.639  11.159  17.629  0.00  0.00    +0.000 C 
ATOM     10  C   UNL     1      -5.007  11.197  18.378  0.00  0.00    +0.000 C 
ATOM     11  C   UNL     1      -5.083  12.529  19.081  0.00  0.00    +0.000 C 
ATOM     12  C   UNL     1      -5.924  12.837  20.316  0.00  0.00    +0.000 C 
ATOM     13  C   UNL     1      -5.123  14.007  20.913  0.00  0.00    +0.000 C 
ATOM     14  O   UNL     1      -5.566  14.590  22.109  0.00  0.00    +0.000 OA
ATOM     15  C   UNL     1      -4.539  15.360  22.636  0.00  0.00    +0.000 A 
ATOM     16  C   UNL     1      -3.977  16.448  21.948  0.00  0.00    +0.000 A 
ATOM     17  C   UNL     1      -3.207  17.385  22.640  0.00  0.00    +0.000 A 
ATOM     18  C   UNL     1      -3.139  17.310  24.028  0.00  0.00    +0.000 A 
ATOM     19 CL   UNL     1      -2.363  18.560  24.920  0.00  0.00    +0.000 Cl
ATOM     20  C   UNL     1      -3.663  16.209  24.702  0.00  0.00    +0.000 A 
ATOM     21  C   UNL     1      -4.201  15.151  23.971  0.00  0.00    +0.000 A 
ATOM     22  N   UNL     1      -4.352  13.930  24.641  0.00  0.00    +0.000 N 
ATOM     23  C   UNL     1      -4.163  12.642  24.284  0.00  0.00    +0.000 C 
ATOM     24  O   UNL     1      -4.774  11.792  24.945  0.00  0.00    +0.000 OA
ATOM     25  N   UNL     1      -3.371  12.179  23.295  0.00  0.00    +0.000 N 
ATOM     26  H   UNL     1      -4.886  13.996  25.503  0.00  0.00    +0.000 HD
ATOM     27  H   UNL     1      -3.655  11.247  23.030  0.00  0.00    +0.000 HD
ENDROOT
BRANCH   1  29
ATOM     28  N   UNL     1      -0.057  15.600  18.786  0.00  0.00    +0.000 NA
ATOM     29  C   UNL     1      -0.388  14.815  19.571  0.00  0.00    +0.000 C 
ENDBRANCH   1  29
TORSDOF 1
ENDMDL
MODEL 3
REMARK VINA RESULT:      -6.0      3.797      6.148
REMARK  Name = 
REMARK  1 active torsions:
REMARK  status: ('A' for Active; 'I' for Inactive)
REMARK    1  A    between atoms: C_2  and  C_3
REMARK                            x       y       z     vdW  Elec       q    Type
REMARK                         _______ _______ _______ _____ _____    ______ ____
ROOT
ATOM      1  C   UNL     1       2.079  14.281  20.188  0.00  0.00    +0.000 A 
ATOM      2  N   UNL     1       2.277  13.044  19.622  0.00  0.00    +0.000 NA
ATOM      3  C   UNL     1       1.319  12.631  18.742  0.00  0.00    +0.000 A 
ATOM      4  C   UNL     1       0.215  13.410  18.430  0.00  0.00    +0.000 A 
ATOM      5  N   UNL     1       0.166  14.721  18.814  0.00  0.00    +0.000 NA
ATOM      6  C   UNL     1       1.076  15.136  19.749  0.00  0.00    +0.000 A 
ATOM      7  O   UNL     1       0.817  16.301  20.464  0.00  0.00    +0.000 OA
ATOM      8  C   UNL     1       0.093  17.357  19.791  0.00  0.00    +0.000 C 
ATOM      9  C   UNL     1      -1.071  17.975  20.635  0.00  0.00    +0.000 C 
ATOM     10  C   UNL     1      -2.436  17.226  20.522  0.00  0.00    +0.000 C 
ATOM     11  C   UNL     1      -2.225  15.847  21.096  0.00  0.00    +0.000 C 
ATOM     12  C   UNL     1      -3.046  14.606  20.757  0.00  0.00    +0.000 C 
ATOM     13  C   UNL     1      -2.021  13.502  21.069  0.00  0.00    +0.000 C 
ATOM     14  O   UNL     1      -2.387  12.163  20.864  0.00  0.00    +0.000 OA
ATOM     15  C   UNL     1      -1.239  11.383  20.867  0.00  0.00    +0.000 A 
ATOM     16  C   UNL     1      -0.377  11.307  21.973  0.00  0.00    +0.000 A 
ATOM     17  C   UNL     1       0.553  10.268  22.058  0.00  0.00    +0.000 A 
ATOM     18  C   UNL     1       0.504   9.239  21.122  0.00  0.00    +0.000 A 
ATOM     19 CL   UNL     1       1.504   7.853  21.315  0.00  0.00    +0.000 Cl
ATOM     20  C   UNL     1      -0.324   9.339  20.007  0.00  0.00    +0.000 A 
ATOM     21  C   UNL     1      -1.057  10.507  19.800  0.00  0.00    +0.000 A 
ATOM     22  N   UNL     1      -1.555  10.722  18.508  0.00  0.00    +0.000 N 
ATOM     23  C   UNL     1      -1.669  11.815  17.725  0.00  0.00    +0.000 C 
ATOM     24  O   UNL     1      -2.517  11.762  16.825  0.00  0.00    +0.000 OA
ATOM     25  N   UNL     1      -0.951  12.955  17.807  0.00  0.00    +0.000 N 
ATOM     26  H   UNL     1      -2.113   9.955  18.148  0.00  0.00    +0.000 HD
ATOM     27  H   UNL     1      -1.440  13.708  17.344  0.00  0.00    +0.000 HD
ENDROOT
BRANCH   1  29
ATOM     28  N   UNL     1       3.427  14.691  22.372  0.00  0.00    +0.000 NA
ATOM     29  C   UNL     1       2.847  14.540  21.381  0.00  0.00    +0.000 C 
ENDBRANCH   1  29
TORSDOF 1
ENDMDL
MODEL 4
REMARK VINA RESULT:      -6.0      2.209      2.668
REMARK  Name = 
REMARK  1 active torsions:
REMARK  status: ('A' for Active; 'I' for Inactive)
REMARK    1  A    between atoms: C_2  and  C_3
REMARK                            x       y       z     vdW  Elec       q    Type
REMARK                         _______ _______ _______ _____ _____    ______ ____
ROOT
ATOM      1  C   UNL     1      -2.616  13.264  20.983  0.00  0.00    +0.000 A 
ATOM      2  N   UNL     1      -2.601  13.536  22.331  0.00  0.00    +0.000 NA
ATOM      3  C   UNL     1      -3.733  13.208  23.017  0.00  0.00    +0.000 A 
ATOM      4  C   UNL     1      -4.833  12.632  22.400  0.00  0.00    +0.000 A 
ATOM      5  N   UNL     1      -4.734  12.153  21.123  0.00  0.00    +0.000 NA
ATOM      6  C   UNL     1      -3.638  12.529  20.395  0.00  0.00    +0.000 A 
ATOM      7  O   UNL     1      -3.687  12.426  19.009  0.00  0.00    +0.000 OA
ATOM      8  C   UNL     1      -4.470  11.351  18.441  0.00  0.00    +0.000 C 
ATOM      9  C   UNL     1      -5.410  11.791  17.270  0.00  0.00    +0.000 C 
ATOM     10  C   UNL     1      -6.809  12.322  17.713  0.00  0.00    +0.000 C 
ATOM     11  C   UNL     1      -6.566  13.577  18.513  0.00  0.00    +0.000 C 
ATOM     12  C   UNL     1      -7.504  14.157  19.567  0.00  0.00    +0.000 C 
ATOM     13  C   UNL     1      -6.500  14.939  20.433  0.00  0.00    +0.000 C 
ATOM     14  O   UNL     1      -6.971  15.627  21.560  0.00  0.00    +0.000 OA
ATOM     15  C   UNL     1      -5.890  15.955  22.366  0.00  0.00    +0.000 A 
ATOM     16  C   UNL     1      -4.833  16.766  21.922  0.00  0.00    +0.000 A 
ATOM     17  C   UNL     1      -3.963  17.342  22.851  0.00  0.00    +0.000 A 
ATOM     18  C   UNL     1      -4.251  17.228  24.208  0.00  0.00    +0.000 A 
ATOM     19 CL   UNL     1      -3.310  18.088  25.363  0.00  0.00    +0.000 Cl
ATOM     20  C   UNL     1      -5.274  16.389  24.643  0.00  0.00    +0.000 A 
ATOM     21  C   UNL     1      -5.969  15.616  23.714  0.00  0.00    +0.000 A 
ATOM     22  N   UNL     1      -6.698  14.528  24.213  0.00  0.00    +0.000 N 
ATOM     23  C   UNL     1      -6.903  13.267  23.778  0.00  0.00    +0.000 C 
ATOM     24  O   UNL     1      -7.913  12.694  24.207  0.00  0.00    +0.000 OA
ATOM     25  N   UNL     1      -6.122  12.558  22.937  0.00  0.00    +0.000 N 
ATOM     26  H   UNL     1      -7.357  14.775  24.945  0.00  0.00    +0.000 HD
ATOM     27  H   UNL     1      -6.650  11.801  22.527  0.00  0.00    +0.000 HD
ENDROOT
BRANCH   1  29
ATOM     28  N   UNL     1      -0.762  14.488  19.633  0.00  0.00    +0.000 NA
ATOM     29  C   UNL     1      -1.616  13.955  20.207  0.00  0.00    +0.000 C 
ENDBRANCH   1  29
TORSDOF 1
ENDMDL
MODEL 5
REMARK VINA RESULT:      -6.0      2.897      4.789
REMARK  Name = 
REMARK  1 active torsions:
REMARK  status: ('A' for Active; 'I' for Inactive)
REMARK    1  A    between atoms: C_2  and  C_3
REMARK                            x       y       z     vdW  Elec       q    Type
REMARK                         _______ _______ _______ _____ _____    ______ ____
ROOT
ATOM      1  C   UNL     1      -0.938  11.391  18.071  0.00  0.00    +0.000 A 
ATOM      2  N   UNL     1      -1.223  12.736  18.097  0.00  0.00    +0.000 NA
ATOM      3  C   UNL     1      -0.530  13.474  19.010  0.00  0.00    +0.000 A 
ATOM      4  C   UNL     1       0.409  12.910  19.859  0.00  0.00    +0.000 A 
ATOM      5  N   UNL     1       0.847  11.631  19.651  0.00  0.00    +0.000 NA
ATOM      6  C   UNL     1       0.122  10.852  18.790  0.00  0.00    +0.000 A 
ATOM      7  O   UNL     1       0.262   9.470  18.858  0.00  0.00    +0.000 OA
ATOM      8  C   UNL     1       1.556   8.943  19.234  0.00  0.00    +0.000 C 
ATOM      9  C   UNL     1       1.499   7.815  20.317  0.00  0.00    +0.000 C 
ATOM     10  C   UNL     1       1.488   8.321  21.793  0.00  0.00    +0.000 C 
ATOM     11  C   UNL     1       0.213   9.105  21.977  0.00  0.00    +0.000 C 
ATOM     12  C   UNL     1      -0.018  10.200  23.014  0.00  0.00    +0.000 C 
ATOM     13  C   UNL     1      -1.121  11.015  22.316  0.00  0.00    +0.000 C 
ATOM     14  O   UNL     1      -1.620  12.161  22.953  0.00  0.00    +0.000 OA
ATOM     15  C   UNL     1      -2.324  12.915  22.024  0.00  0.00    +0.000 A 
ATOM     16  C   UNL     1      -3.448  12.421  21.343  0.00  0.00    +0.000 A 
ATOM     17  C   UNL     1      -4.312  13.307  20.694  0.00  0.00    +0.000 A 
ATOM     18  C   UNL     1      -4.129  14.676  20.866  0.00  0.00    +0.000 A 
ATOM     19 CL   UNL     1      -5.288  15.783  20.243  0.00  0.00    +0.000 Cl
ATOM     20  C   UNL     1      -2.991  15.160  21.507  0.00  0.00    +0.000 A 
ATOM     21  C   UNL     1      -2.005  14.266  21.921  0.00  0.00    +0.000 A 
ATOM     22  N   UNL     1      -0.739  14.802  22.196  0.00  0.00    +0.000 N 
ATOM     23  C   UNL     1       0.521  14.381  21.960  0.00  0.00    +0.000 C 
ATOM     24  O   UNL     1       1.406  14.858  22.683  0.00  0.00    +0.000 OA
ATOM     25  N   UNL     1       0.924  13.507  21.015  0.00  0.00    +0.000 N 
ATOM     26  H   UNL     1      -0.751  15.563  22.869  0.00  0.00    +0.000 HD
ATOM     27  H   UNL     1       1.826  13.124  21.257  0.00  0.00    +0.000 HD
ENDROOT
BRANCH   1  29
ATOM     28  N   UNL     1      -2.660   9.882  16.841  0.00  0.00    +0.000 NA
ATOM     29  C   UNL     1      -1.923  10.567  17.415  0.00  0.00    +0.000 C 
ENDBRANCH   1  29
TORSDOF 1
ENDMDL
MODEL 6
REMARK VINA RESULT:      -6.0      3.745      5.549
REMARK  Name = 
REMARK  1 active torsions:
REMARK  status: ('A' for Active; 'I' for Inactive)
REMARK    1  A    between atoms: C_2  and  C_3
REMARK                            x       y       z     vdW  Elec       q    Type
REMARK                         _______ _______ _______ _____ _____    ______ ____
ROOT
ATOM      1  C   UNL     1      -5.734  12.006  18.195  0.00  0.00    +0.000 A 
ATOM      2  N   UNL     1      -5.551  11.290  19.354  0.00  0.00    +0.000 NA
ATOM      3  C   UNL     1      -6.208  11.758  20.454  0.00  0.00    +0.000 A 
ATOM      4  C   UNL     1      -7.016  12.884  20.410  0.00  0.00    +0.000 A 
ATOM      5  N   UNL     1      -7.372  13.430  19.208  0.00  0.00    +0.000 NA
ATOM      6  C   UNL     1      -6.675  13.023  18.102  0.00  0.00    +0.000 A 
ATOM      7  O   UNL     1      -6.703  13.821  16.963  0.00  0.00    +0.000 OA
ATOM      8  C   UNL     1      -7.910  14.571  16.695  0.00  0.00    +0.000 C 
ATOM      9  C   UNL     1      -7.664  16.068  16.311  0.00  0.00    +0.000 C 
ATOM     10  C   UNL     1      -7.550  17.047  17.521  0.00  0.00    +0.000 C 
ATOM     11  C   UNL     1      -6.327  16.637  18.301  0.00  0.00    +0.000 C 
ATOM     12  C   UNL     1      -6.081  16.911  19.782  0.00  0.00    +0.000 C 
ATOM     13  C   UNL     1      -5.116  15.761  20.122  0.00  0.00    +0.000 C 
ATOM     14  O   UNL     1      -4.648  15.638  21.438  0.00  0.00    +0.000 OA
ATOM     15  C   UNL     1      -4.096  14.375  21.597  0.00  0.00    +0.000 A 
ATOM     16  C   UNL     1      -3.008  13.922  20.834  0.00  0.00    +0.000 A 
ATOM     17  C   UNL     1      -2.280  12.806  21.255  0.00  0.00    +0.000 A 
ATOM     18  C   UNL     1      -2.550  12.257  22.505  0.00  0.00    +0.000 A 
ATOM     19 CL   UNL     1      -1.544  11.011  23.133  0.00  0.00    +0.000 Cl
ATOM     20  C   UNL     1      -3.654  12.683  23.239  0.00  0.00    +0.000 A 
ATOM     21  C   UNL     1      -4.525  13.620  22.685  0.00  0.00    +0.000 A 
ATOM     22  N   UNL     1      -5.796  13.726  23.267  0.00  0.00    +0.000 N 
ATOM     23  C   UNL     1      -7.037  13.901  22.767  0.00  0.00    +0.000 C 
ATOM     24  O   UNL     1      -7.882  14.368  23.541  0.00  0.00    +0.000 OA
ATOM     25  N   UNL     1      -7.461  13.609  21.520  0.00  0.00    +0.000 N 
ATOM     26  H   UNL     1      -5.778  13.894  24.269  0.00  0.00    +0.000 HD
ATOM     27  H   UNL     1      -8.304  14.124  21.310  0.00  0.00    +0.000 HD
ENDROOT
BRANCH   1  29
ATOM     28  N   UNL     1      -3.972  11.496  16.353  0.00  0.00    +0.000 NA
ATOM     29  C   UNL     1      -4.756  11.763  17.163  0.00  0.00    +0.000 C 
ENDBRANCH   1  29
TORSDOF 1
ENDMDL
MODEL 7
REMARK VINA RESULT:      -5.8      2.887      3.420
REMARK  Name = 
REMARK  1 active torsions:
REMARK  status: ('A' for Active; 'I' for Inactive)
REMARK    1  A    between atoms: C_2  and  C_3
REMARK                            x       y       z     vdW  Elec       q    Type
REMARK                         _______ _______ _______ _____ _____    ______ ____
ROOT
ATOM      1  C   UNL     1      -2.563  14.597  21.006  0.00  0.00    +0.000 A 
ATOM      2  N   UNL     1      -3.450  15.118  21.919  0.00  0.00    +0.000 NA
ATOM      3  C   UNL     1      -4.444  14.280  22.330  0.00  0.00    +0.000 A 
ATOM      4  C   UNL     1      -4.556  12.979  21.863  0.00  0.00    +0.000 A 
ATOM      5  N   UNL     1      -3.536  12.412  21.151  0.00  0.00    +0.000 NA
ATOM      6  C   UNL     1      -2.564  13.249  20.670  0.00  0.00    +0.000 A 
ATOM      7  O   UNL     1      -1.760  12.810  19.624  0.00  0.00    +0.000 OA
ATOM      8  C   UNL     1      -1.451  11.398  19.559  0.00  0.00    +0.000 C 
ATOM      9  C   UNL     1      -1.625  10.768  18.138  0.00  0.00    +0.000 C 
ATOM     10  C   UNL     1      -3.068  10.273  17.809  0.00  0.00    +0.000 C 
ATOM     11  C   UNL     1      -3.958  11.492  17.809  0.00  0.00    +0.000 C 
ATOM     12  C   UNL     1      -5.463  11.497  18.060  0.00  0.00    +0.000 C 
ATOM     13  C   UNL     1      -5.653  12.931  18.582  0.00  0.00    +0.000 C 
ATOM     14  O   UNL     1      -6.938  13.349  18.958  0.00  0.00    +0.000 OA
ATOM     15  C   UNL     1      -6.826  14.513  19.706  0.00  0.00    +0.000 A 
ATOM     16  C   UNL     1      -6.252  15.688  19.197  0.00  0.00    +0.000 A 
ATOM     17  C   UNL     1      -6.470  16.906  19.846  0.00  0.00    +0.000 A 
ATOM     18  C   UNL     1      -7.380  16.957  20.897  0.00  0.00    +0.000 A 
ATOM     19 CL   UNL     1      -7.815  18.472  21.586  0.00  0.00    +0.000 Cl
ATOM     20  C   UNL     1      -7.916  15.784  21.424  0.00  0.00    +0.000 A 
ATOM     21  C   UNL     1      -7.485  14.552  20.932  0.00  0.00    +0.000 A 
ATOM     22  N   UNL     1      -7.741  13.428  21.727  0.00  0.00    +0.000 N 
ATOM     23  C   UNL     1      -7.032  12.320  22.028  0.00  0.00    +0.000 C 
ATOM     24  O   UNL     1      -7.680  11.336  22.407  0.00  0.00    +0.000 OA
ATOM     25  N   UNL     1      -5.691  12.170  21.974  0.00  0.00    +0.000 N 
ATOM     26  H   UNL     1      -8.717  13.318  21.986  0.00  0.00    +0.000 HD
ATOM     27  H   UNL     1      -5.452  11.190  21.926  0.00  0.00    +0.000 HD
ENDROOT
BRANCH   1  29
ATOM     28  N   UNL     1      -1.185  16.331  19.645  0.00  0.00    +0.000 NA
ATOM     29  C   UNL     1      -1.780  15.571  20.286  0.00  0.00    +0.000 C 
ENDBRANCH   1  29
TORSDOF 1
ENDMDL
MODEL 8
REMARK VINA RESULT:      -5.7      2.733      3.157
REMARK  Name = 
REMARK  1 active torsions:
REMARK  status: ('A' for Active; 'I' for Inactive)
REMARK    1  A    between atoms: C_2  and  C_3
REMARK                            x       y       z     vdW  Elec       q    Type
REMARK                         _______ _______ _______ _____ _____    ______ ____
ROOT
ATOM      1  C   UNL     1      -2.842  14.843  21.629  0.00  0.00    +0.000 A 
ATOM      2  N   UNL     1      -3.477  15.256  22.777  0.00  0.00    +0.000 NA
ATOM      3  C   UNL     1      -4.371  14.376  23.313  0.00  0.00    +0.000 A 
ATOM      4  C   UNL     1      -4.624  13.138  22.743  0.00  0.00    +0.000 A 
ATOM      5  N   UNL     1      -3.813  12.656  21.753  0.00  0.00    +0.000 NA
ATOM      6  C   UNL     1      -2.958  13.543  21.155  0.00  0.00    +0.000 A 
ATOM      7  O   UNL     1      -2.432  13.227  19.907  0.00  0.00    +0.000 OA
ATOM      8  C   UNL     1      -2.184  11.832  19.614  0.00  0.00    +0.000 C 
ATOM      9  C   UNL     1      -2.701  11.370  18.211  0.00  0.00    +0.000 C 
ATOM     10  C   UNL     1      -4.194  10.917  18.177  0.00  0.00    +0.000 C 
ATOM     11  C   UNL     1      -5.026  12.127  18.521  0.00  0.00    +0.000 C 
ATOM     12  C   UNL     1      -6.430  12.103  19.117  0.00  0.00    +0.000 C 
ATOM     13  C   UNL     1      -6.455  13.468  19.826  0.00  0.00    +0.000 C 
ATOM     14  O   UNL     1      -7.606  13.839  20.538  0.00  0.00    +0.000 OA
ATOM     15  C   UNL     1      -7.292  14.909  21.364  0.00  0.00    +0.000 A 
ATOM     16  C   UNL     1      -6.820  16.136  20.869  0.00  0.00    +0.000 A 
ATOM     17  C   UNL     1      -6.848  17.270  21.684  0.00  0.00    +0.000 A 
ATOM     18  C   UNL     1      -7.487  17.200  22.918  0.00  0.00    +0.000 A 
ATOM     19 CL   UNL     1      -7.709  18.625  23.855  0.00  0.00    +0.000 Cl
ATOM     20  C   UNL     1      -7.917  15.974  23.421  0.00  0.00    +0.000 A 
ATOM     21  C   UNL     1      -7.645  14.807  22.707  0.00  0.00    +0.000 A 
ATOM     22  N   UNL     1      -7.739  13.598  23.409  0.00  0.00    +0.000 N 
ATOM     23  C   UNL     1      -7.009  12.463  23.409  0.00  0.00    +0.000 C 
ATOM     24  O   UNL     1      -7.578  11.442  23.816  0.00  0.00    +0.000 OA
ATOM     25  N   UNL     1      -5.723  12.321  23.025  0.00  0.00    +0.000 N 
ATOM     26  H   UNL     1      -8.631  13.460  23.875  0.00  0.00    +0.000 HD
ATOM     27  H   UNL     1      -5.528  11.353  22.814  0.00  0.00    +0.000 HD
ENDROOT
BRANCH   1  29
ATOM     28  N   UNL     1      -1.750  16.786  20.292  0.00  0.00    +0.000 NA
ATOM     29  C   UNL     1      -2.222  15.893  20.860  0.00  0.00    +0.000 C 
ENDBRANCH   1  29
TORSDOF 1
ENDMDL
MODEL 9
REMARK VINA RESULT:      -5.7      3.253      6.197
REMARK  Name = 
REMARK  1 active torsions:
REMARK  status: ('A' for Active; 'I' for Inactive)
REMARK    1  A    between atoms: C_2  and  C_3
REMARK                            x       y       z     vdW  Elec       q    Type
REMARK                         _______ _______ _______ _____ _____    ______ ____
ROOT
ATOM      1  C   UNL     1      -0.612  16.419  21.444  0.00  0.00    +0.000 A 
ATOM      2  N   UNL     1      -0.048  16.470  20.192  0.00  0.00    +0.000 NA
ATOM      3  C   UNL     1      -0.462  15.513  19.312  0.00  0.00    +0.000 A 
ATOM      4  C   UNL     1      -1.398  14.549  19.653  0.00  0.00    +0.000 A 
ATOM      5  N   UNL     1      -2.117  14.666  20.811  0.00  0.00    +0.000 NA
ATOM      6  C   UNL     1      -1.675  15.572  21.736  0.00  0.00    +0.000 A 
ATOM      7  O   UNL     1      -2.095  15.443  23.055  0.00  0.00    +0.000 OA
ATOM      8  C   UNL     1      -3.421  14.913  23.290  0.00  0.00    +0.000 C 
ATOM      9  C   UNL     1      -3.483  13.805  24.392  0.00  0.00    +0.000 C 
ATOM     10  C   UNL     1      -3.200  12.356  23.886  0.00  0.00    +0.000 C 
ATOM     11  C   UNL     1      -1.775  12.337  23.391  0.00  0.00    +0.000 C 
ATOM     12  C   UNL     1      -1.203  11.369  22.361  0.00  0.00    +0.000 C 
ATOM     13  C   UNL     1      -0.038  12.208  21.807  0.00  0.00    +0.000 C 
ATOM     14  O   UNL     1       0.760  11.668  20.788  0.00  0.00    +0.000 OA
ATOM     15  C   UNL     1       1.499  12.692  20.212  0.00  0.00    +0.000 A 
ATOM     16  C   UNL     1       2.410  13.473  20.942  0.00  0.00    +0.000 A 
ATOM     17  C   UNL     1       3.363  14.240  20.269  0.00  0.00    +0.000 A 
ATOM     18  C   UNL     1       3.495  14.096  18.891  0.00  0.00    +0.000 A 
ATOM     19 CL   UNL     1       4.784  14.877  18.063  0.00  0.00    +0.000 Cl
ATOM     20  C   UNL     1       2.565  13.353  18.167  0.00  0.00    +0.000 A 
ATOM     21  C   UNL     1       1.464  12.806  18.825  0.00  0.00    +0.000 A 
ATOM     22  N   UNL     1       0.380  12.414  18.028  0.00  0.00    +0.000 N 
ATOM     23  C   UNL     1      -0.959  12.499  18.172  0.00  0.00    +0.000 C 
ATOM     24  O   UNL     1      -1.636  11.702  17.509  0.00  0.00    +0.000 OA
ATOM     25  N   UNL     1      -1.642  13.366  18.949  0.00  0.00    +0.000 N 
ATOM     26  H   UNL     1       0.627  11.773  17.281  0.00  0.00    +0.000 HD
ATOM     27  H   UNL     1      -2.572  13.015  19.127  0.00  0.00    +0.000 HD
ENDROOT
BRANCH   1  29
ATOM     28  N   UNL     1       0.636  17.800  23.259  0.00  0.00    +0.000 NA
ATOM     29  C   UNL     1       0.096  17.150  22.466  0.00  0.00    +0.000 C 
ENDBRANCH   1  29
TORSDOF 1
ENDMDL
