MODEL 1
REMARK VINA RESULT:      -7.4      0.000      0.000
REMARK  Name = 
REMARK  1 active torsions:
REMARK  status: ('A' for Active; 'I' for Inactive)
REMARK    1  A    between atoms: C_2  and  C_3
REMARK                            x       y       z     vdW  Elec       q    Type
REMARK                         _______ _______ _______ _____ _____    ______ ____
ROOT
ATOM      1  O   UNL     1       3.971   2.491  17.293  0.00  0.00    +0.000 OA
ATOM      2  C   UNL     1       4.106   3.353  18.161  0.00  0.00    +0.000 C 
ATOM      3  N   UNL     1       5.125   4.303  18.110  0.00  0.00    +0.000 N 
ATOM      4  C   UNL     1       5.891   4.446  16.867  0.00  0.00    +0.000 C 
ATOM      5  C   UNL     1       7.382   4.636  17.151  0.00  0.00    +0.000 C 
ATOM      6  O   UNL     1       7.604   5.730  18.056  0.00  0.00    +0.000 OA
ATOM      7  C   UNL     1       6.942   5.491  19.303  0.00  0.00    +0.000 C 
ATOM      8  C   UNL     1       5.431   5.333  19.111  0.00  0.00    +0.000 C 
ENDROOT
BRANCH   2   9
ATOM      9  C   UNL     1       3.129   3.347  19.268  0.00  0.00    +0.000 A 
ATOM     10  C   UNL     1       3.427   2.670  20.452  0.00  0.00    +0.000 A 
ATOM     11  F   UNL     1       4.614   2.073  20.631  0.00  0.00    +0.000 F 
ATOM     12  C   UNL     1       2.501   2.605  21.497  0.00  0.00    +0.000 A 
ATOM     13  C   UNL     1       1.264   3.233  21.374  0.00  0.00    +0.000 A 
ATOM     14  C   UNL     1       0.946   3.892  20.187  0.00  0.00    +0.000 A 
ATOM     15  C   UNL     1       1.863   3.913  19.136  0.00  0.00    +0.000 A 
ATOM     16  F   UNL     1       1.481   4.501  17.993  0.00  0.00    +0.000 F 
ENDBRANCH   2   9
TORSDOF 1
ENDMDL
MODEL 2
REMARK VINA RESULT:      -7.3      0.084      2.069
REMARK  Name = 
REMARK  1 active torsions:
REMARK  status: ('A' for Active; 'I' for Inactive)
REMARK    1  A    between atoms: C_2  and  C_3
REMARK                            x       y       z     vdW  Elec       q    Type
REMARK                         _______ _______ _______ _____ _____    ______ ____
ROOT
ATOM      1  O   UNL     1       3.953   2.402  17.270  0.00  0.00    +0.000 OA
ATOM      2  C   UNL     1       4.067   3.260  18.144  0.00  0.00    +0.000 C 
ATOM      3  N   UNL     1       5.059   4.239  18.098  0.00  0.00    +0.000 N 
ATOM      4  C   UNL     1       5.815   4.414  16.854  0.00  0.00    +0.000 C 
ATOM      5  C   UNL     1       7.302   4.644  17.134  0.00  0.00    +0.000 C 
ATOM      6  O   UNL     1       7.497   5.736  18.048  0.00  0.00    +0.000 OA
ATOM      7  C   UNL     1       6.846   5.467  19.295  0.00  0.00    +0.000 C 
ATOM      8  C   UNL     1       5.340   5.268  19.108  0.00  0.00    +0.000 C 
ENDROOT
BRANCH   2   9
ATOM      9  C   UNL     1       3.096   3.216  19.255  0.00  0.00    +0.000 A 
ATOM     10  C   UNL     1       1.860   3.850  19.123  0.00  0.00    +0.000 A 
ATOM     11  F   UNL     1       1.508   4.451  17.977  0.00  0.00    +0.000 F 
ATOM     12  C   UNL     1       0.941   3.866  20.176  0.00  0.00    +0.000 A 
ATOM     13  C   UNL     1       1.247   3.232  21.379  0.00  0.00    +0.000 A 
ATOM     14  C   UNL     1       2.487   2.615  21.531  0.00  0.00    +0.000 A 
ATOM     15  C   UNL     1       3.412   2.642  20.486  0.00  0.00    +0.000 A 
ATOM     16  F   UNL     1       4.614   2.094  20.709  0.00  0.00    +0.000 F 
ENDBRANCH   2   9
TORSDOF 1
ENDMDL
MODEL 3
REMARK VINA RESULT:      -7.1      1.886      2.319
REMARK  Name = 
REMARK  1 active torsions:
REMARK  status: ('A' for Active; 'I' for Inactive)
REMARK    1  A    between atoms: C_2  and  C_3
REMARK                            x       y       z     vdW  Elec       q    Type
REMARK                         _______ _______ _______ _____ _____    ______ ____
ROOT
ATOM      1  O   UNL     1       5.410   3.313  19.802  0.00  0.00    +0.000 OA
ATOM      2  C   UNL     1       4.661   3.806  18.960  0.00  0.00    +0.000 C 
ATOM      3  N   UNL     1       5.139   4.595  17.914  0.00  0.00    +0.000 N 
ATOM      4  C   UNL     1       6.582   4.620  17.656  0.00  0.00    +0.000 C 
ATOM      5  C   UNL     1       7.063   6.035  17.330  0.00  0.00    +0.000 C 
ATOM      6  O   UNL     1       6.308   6.607  16.249  0.00  0.00    +0.000 OA
ATOM      7  C   UNL     1       4.919   6.679  16.593  0.00  0.00    +0.000 C 
ATOM      8  C   UNL     1       4.346   5.291  16.892  0.00  0.00    +0.000 C 
ENDROOT
BRANCH   2   9
ATOM      9  C   UNL     1       3.219   3.521  19.099  0.00  0.00    +0.000 A 
ATOM     10  C   UNL     1       2.441   4.285  19.970  0.00  0.00    +0.000 A 
ATOM     11  F   UNL     1       2.966   5.320  20.643  0.00  0.00    +0.000 F 
ATOM     12  C   UNL     1       1.085   4.006  20.158  0.00  0.00    +0.000 A 
ATOM     13  C   UNL     1       0.484   2.959  19.461  0.00  0.00    +0.000 A 
ATOM     14  C   UNL     1       1.256   2.175  18.606  0.00  0.00    +0.000 A 
ATOM     15  C   UNL     1       2.618   2.438  18.459  0.00  0.00    +0.000 A 
ATOM     16  F   UNL     1       3.328   1.612  17.677  0.00  0.00    +0.000 F 
ENDBRANCH   2   9
TORSDOF 1
ENDMDL
MODEL 4
REMARK VINA RESULT:      -7.0      1.211      1.290
REMARK  Name = 
REMARK  1 active torsions:
REMARK  status: ('A' for Active; 'I' for Inactive)
REMARK    1  A    between atoms: C_2  and  C_3
REMARK                            x       y       z     vdW  Elec       q    Type
REMARK                         _______ _______ _______ _____ _____    ______ ____
ROOT
ATOM      1  O   UNL     1       2.970   3.344  16.697  0.00  0.00    +0.000 OA
ATOM      2  C   UNL     1       3.683   3.859  17.557  0.00  0.00    +0.000 C 
ATOM      3  N   UNL     1       4.920   4.427  17.252  0.00  0.00    +0.000 N 
ATOM      4  C   UNL     1       5.260   4.654  15.844  0.00  0.00    +0.000 C 
ATOM      5  C   UNL     1       6.720   4.294  15.560  0.00  0.00    +0.000 C 
ATOM      6  O   UNL     1       7.610   4.985  16.452  0.00  0.00    +0.000 OA
ATOM      7  C   UNL     1       7.323   4.637  17.812  0.00  0.00    +0.000 C 
ATOM      8  C   UNL     1       5.887   5.008  18.192  0.00  0.00    +0.000 C 
ENDROOT
BRANCH   2   9
ATOM      9  C   UNL     1       3.169   3.858  18.941  0.00  0.00    +0.000 A 
ATOM     10  C   UNL     1       3.368   2.741  19.754  0.00  0.00    +0.000 A 
ATOM     11  F   UNL     1       4.074   1.685  19.324  0.00  0.00    +0.000 F 
ATOM     12  C   UNL     1       2.849   2.693  21.051  0.00  0.00    +0.000 A 
ATOM     13  C   UNL     1       2.132   3.775  21.557  0.00  0.00    +0.000 A 
ATOM     14  C   UNL     1       1.907   4.886  20.746  0.00  0.00    +0.000 A 
ATOM     15  C   UNL     1       2.395   4.905  19.439  0.00  0.00    +0.000 A 
ATOM     16  F   UNL     1       2.092   5.967  18.680  0.00  0.00    +0.000 F 
ENDBRANCH   2   9
TORSDOF 1
ENDMDL
MODEL 5
REMARK VINA RESULT:      -7.0      1.898      2.207
REMARK  Name = 
REMARK  1 active torsions:
REMARK  status: ('A' for Active; 'I' for Inactive)
REMARK    1  A    between atoms: C_2  and  C_3
REMARK                            x       y       z     vdW  Elec       q    Type
REMARK                         _______ _______ _______ _____ _____    ______ ____
ROOT
ATOM      1  O   UNL     1       5.477   3.283  19.796  0.00  0.00    +0.000 OA
ATOM      2  C   UNL     1       4.691   3.801  19.002  0.00  0.00    +0.000 C 
ATOM      3  N   UNL     1       5.121   4.640  17.975  0.00  0.00    +0.000 N 
ATOM      4  C   UNL     1       6.554   4.697  17.668  0.00  0.00    +0.000 C 
ATOM      5  C   UNL     1       7.005   6.132  17.386  0.00  0.00    +0.000 C 
ATOM      6  O   UNL     1       6.203   6.738  16.359  0.00  0.00    +0.000 OA
ATOM      7  C   UNL     1       4.827   6.775  16.755  0.00  0.00    +0.000 C 
ATOM      8  C   UNL     1       4.283   5.368  17.013  0.00  0.00    +0.000 C 
ENDROOT
BRANCH   2   9
ATOM      9  C   UNL     1       3.259   3.489  19.179  0.00  0.00    +0.000 A 
ATOM     10  C   UNL     1       2.691   2.418  18.489  0.00  0.00    +0.000 A 
ATOM     11  F   UNL     1       3.436   1.621  17.709  0.00  0.00    +0.000 F 
ATOM     12  C   UNL     1       1.327   2.131  18.599  0.00  0.00    +0.000 A 
ATOM     13  C   UNL     1       0.514   2.911  19.418  0.00  0.00    +0.000 A 
ATOM     14  C   UNL     1       1.065   3.998  20.095  0.00  0.00    +0.000 A 
ATOM     15  C   UNL     1       2.419   4.298  19.943  0.00  0.00    +0.000 A 
ATOM     16  F   UNL     1       2.884   5.393  20.561  0.00  0.00    +0.000 F 
ENDBRANCH   2   9
TORSDOF 1
ENDMDL
MODEL 6
REMARK VINA RESULT:      -7.0      1.123      1.123
REMARK  Name = 
REMARK  1 active torsions:
REMARK  status: ('A' for Active; 'I' for Inactive)
REMARK    1  A    between atoms: C_2  and  C_3
REMARK                            x       y       z     vdW  Elec       q    Type
REMARK                         _______ _______ _______ _____ _____    ______ ____
ROOT
ATOM      1  O   UNL     1       4.043   2.064  17.299  0.00  0.00    +0.000 OA
ATOM      2  C   UNL     1       3.878   3.183  17.783  0.00  0.00    +0.000 C 
ATOM      3  N   UNL     1       4.472   4.321  17.239  0.00  0.00    +0.000 N 
ATOM      4  C   UNL     1       5.089   4.225  15.912  0.00  0.00    +0.000 C 
ATOM      5  C   UNL     1       6.413   4.991  15.857  0.00  0.00    +0.000 C 
ATOM      6  O   UNL     1       6.244   6.353  16.282  0.00  0.00    +0.000 OA
ATOM      7  C   UNL     1       5.759   6.401  17.628  0.00  0.00    +0.000 C 
ATOM      8  C   UNL     1       4.408   5.693  17.761  0.00  0.00    +0.000 C 
ENDROOT
BRANCH   2   9
ATOM      9  C   UNL     1       3.011   3.275  18.974  0.00  0.00    +0.000 A 
ATOM     10  C   UNL     1       3.457   2.775  20.198  0.00  0.00    +0.000 A 
ATOM     11  F   UNL     1       4.689   2.264  20.332  0.00  0.00    +0.000 F 
ATOM     12  C   UNL     1       2.637   2.805  21.330  0.00  0.00    +0.000 A 
ATOM     13  C   UNL     1       1.358   3.351  21.252  0.00  0.00    +0.000 A 
ATOM     14  C   UNL     1       0.893   3.831  20.029  0.00  0.00    +0.000 A 
ATOM     15  C   UNL     1       1.705   3.759  18.898  0.00  0.00    +0.000 A 
ATOM     16  F   UNL     1       1.185   4.172  17.734  0.00  0.00    +0.000 F 
ENDBRANCH   2   9
TORSDOF 1
ENDMDL
MODEL 7
REMARK VINA RESULT:      -6.9      1.174      2.257
REMARK  Name = 
REMARK  1 active torsions:
REMARK  status: ('A' for Active; 'I' for Inactive)
REMARK    1  A    between atoms: C_2  and  C_3
REMARK                            x       y       z     vdW  Elec       q    Type
REMARK                         _______ _______ _______ _____ _____    ______ ____
ROOT
ATOM      1  O   UNL     1       2.959   3.302  16.654  0.00  0.00    +0.000 OA
ATOM      2  C   UNL     1       3.646   3.809  17.540  0.00  0.00    +0.000 C 
ATOM      3  N   UNL     1       4.878   4.404  17.273  0.00  0.00    +0.000 N 
ATOM      4  C   UNL     1       5.243   4.668  15.877  0.00  0.00    +0.000 C 
ATOM      5  C   UNL     1       6.714   4.339  15.616  0.00  0.00    +0.000 C 
ATOM      6  O   UNL     1       7.574   5.023  16.541  0.00  0.00    +0.000 OA
ATOM      7  C   UNL     1       7.266   4.640  17.887  0.00  0.00    +0.000 C 
ATOM      8  C   UNL     1       5.817   4.978  18.246  0.00  0.00    +0.000 C 
ENDROOT
BRANCH   2   9
ATOM      9  C   UNL     1       3.104   3.768  18.913  0.00  0.00    +0.000 A 
ATOM     10  C   UNL     1       2.363   4.845  19.399  0.00  0.00    +0.000 A 
ATOM     11  F   UNL     1       2.077   5.900  18.621  0.00  0.00    +0.000 F 
ATOM     12  C   UNL     1       1.881   4.855  20.711  0.00  0.00    +0.000 A 
ATOM     13  C   UNL     1       2.125   3.771  21.552  0.00  0.00    +0.000 A 
ATOM     14  C   UNL     1       2.884   2.700  21.085  0.00  0.00    +0.000 A 
ATOM     15  C   UNL     1       3.395   2.722  19.787  0.00  0.00    +0.000 A 
ATOM     16  F   UNL     1       4.174   1.698  19.411  0.00  0.00    +0.000 F 
ENDBRANCH   2   9
TORSDOF 1
ENDMDL
MODEL 8
REMARK VINA RESULT:      -6.9      1.841      3.049
REMARK  Name = 
REMARK  1 active torsions:
REMARK  status: ('A' for Active; 'I' for Inactive)
REMARK    1  A    between atoms: C_2  and  C_3
REMARK                            x       y       z     vdW  Elec       q    Type
REMARK                         _______ _______ _______ _____ _____    ______ ____
ROOT
ATOM      1  O   UNL     1       4.984   5.358  19.844  0.00  0.00    +0.000 OA
ATOM      2  C   UNL     1       4.785   4.770  18.782  0.00  0.00    +0.000 C 
ATOM      3  N   UNL     1       5.666   4.864  17.705  0.00  0.00    +0.000 N 
ATOM      4  C   UNL     1       6.988   5.458  17.930  0.00  0.00    +0.000 C 
ATOM      5  C   UNL     1       7.390   6.373  16.771  0.00  0.00    +0.000 C 
ATOM      6  O   UNL     1       7.309   5.687  15.512  0.00  0.00    +0.000 OA
ATOM      7  C   UNL     1       5.971   5.232  15.275  0.00  0.00    +0.000 C 
ATOM      8  C   UNL     1       5.506   4.270  16.371  0.00  0.00    +0.000 C 
ENDROOT
BRANCH   2   9
ATOM      9  C   UNL     1       3.563   3.945  18.693  0.00  0.00    +0.000 A 
ATOM     10  C   UNL     1       2.382   4.505  18.202  0.00  0.00    +0.000 A 
ATOM     11  F   UNL     1       2.348   5.767  17.749  0.00  0.00    +0.000 F 
ATOM     12  C   UNL     1       1.199   3.763  18.153  0.00  0.00    +0.000 A 
ATOM     13  C   UNL     1       1.188   2.438  18.585  0.00  0.00    +0.000 A 
ATOM     14  C   UNL     1       2.355   1.876  19.099  0.00  0.00    +0.000 A 
ATOM     15  C   UNL     1       3.519   2.641  19.181  0.00  0.00    +0.000 A 
ATOM     16  F   UNL     1       4.594   2.074  19.746  0.00  0.00    +0.000 F 
ENDBRANCH   2   9
TORSDOF 1
ENDMDL
MODEL 9
REMARK VINA RESULT:      -6.8      1.846      2.291
REMARK  Name = 
REMARK  1 active torsions:
REMARK  status: ('A' for Active; 'I' for Inactive)
REMARK    1  A    between atoms: C_2  and  C_3
REMARK                            x       y       z     vdW  Elec       q    Type
REMARK                         _______ _______ _______ _____ _____    ______ ____
ROOT
ATOM      1  O   UNL     1       5.077   5.272  19.890  0.00  0.00    +0.000 OA
ATOM      2  C   UNL     1       4.801   4.725  18.823  0.00  0.00    +0.000 C 
ATOM      3  N   UNL     1       5.639   4.805  17.711  0.00  0.00    +0.000 N 
ATOM      4  C   UNL     1       6.998   5.326  17.892  0.00  0.00    +0.000 C 
ATOM      5  C   UNL     1       7.396   6.253  16.741  0.00  0.00    +0.000 C 
ATOM      6  O   UNL     1       7.225   5.607  15.469  0.00  0.00    +0.000 OA
ATOM      7  C   UNL     1       5.857   5.227  15.280  0.00  0.00    +0.000 C 
ATOM      8  C   UNL     1       5.391   4.258  16.370  0.00  0.00    +0.000 C 
ENDROOT
BRANCH   2   9
ATOM      9  C   UNL     1       3.536   3.966  18.767  0.00  0.00    +0.000 A 
ATOM     10  C   UNL     1       3.506   2.636  19.189  0.00  0.00    +0.000 A 
ATOM     11  F   UNL     1       4.594   2.046  19.705  0.00  0.00    +0.000 F 
ATOM     12  C   UNL     1       2.334   1.879  19.100  0.00  0.00    +0.000 A 
ATOM     13  C   UNL     1       1.168   2.453  18.598  0.00  0.00    +0.000 A 
ATOM     14  C   UNL     1       1.193   3.773  18.151  0.00  0.00    +0.000 A 
ATOM     15  C   UNL     1       2.379   4.505  18.207  0.00  0.00    +0.000 A 
ATOM     16  F   UNL     1       2.365   5.746  17.702  0.00  0.00    +0.000 F 
ENDBRANCH   2   9
TORSDOF 1
ENDMDL
