MODEL 1
REMARK VINA RESULT:      -7.5      0.000      0.000
REMARK  Name = 
REMARK  12 active torsions:
REMARK  status: ('A' for Active; 'I' for Inactive)
REMARK    1  A    between atoms: C_1  and  C_2
REMARK    2  A    between atoms: C_2  and  C_3
REMARK    3  A    between atoms: C_3  and  N_4
REMARK    4  A    between atoms: N_7  and  C_8
REMARK    5  A    between atoms: C_8  and  C_9
REMARK    6  A    between atoms: C_9  and  C_10
REMARK    7  A    between atoms: C_10  and  N_11
REMARK    8  A    between atoms: N_11  and  C_12
REMARK    9  A    between atoms: C_12  and  N_14
REMARK   10  A    between atoms: N_14  and  C_15
REMARK   11  A    between atoms: N_24  and  C_25
REMARK   12  A    between atoms: C_29  and  C_30
REMARK                            x       y       z     vdW  Elec       q    Type
REMARK                         _______ _______ _______ _____ _____    ______ ____
ROOT
ATOM      1  N   UNL     1       2.113   7.833  20.694  0.00  0.00    +0.000 N 
ATOM      2  H   UNL     1       2.884   7.635  21.314  0.00  0.00    +0.000 HD
ENDROOT
BRANCH   1   3
ATOM      3  C   UNL     1       1.144   8.730  21.184  0.00  0.00    +0.000 A 
ATOM      4  C   UNL     1       0.940   8.873  22.551  0.00  0.00    +0.000 A 
ATOM      5  C   UNL     1       0.005   9.802  23.021  0.00  0.00    +0.000 A 
ATOM      6  C   UNL     1      -0.700  10.643  22.165  0.00  0.00    +0.000 A 
ATOM      7  N   UNL     1      -1.569  11.548  22.681  0.00  0.00    +0.000 NA
ATOM      8  C   UNL     1      -2.205  12.412  21.866  0.00  0.00    +0.000 A 
ATOM      9  N   UNL     1      -3.045  13.362  22.411  0.00  0.00    +0.000 N 
ATOM     10  C   UNL     1      -3.655  13.139  23.722  0.00  0.00    +0.000 C 
ATOM     11  C   UNL     1      -3.417  14.341  24.665  0.00  0.00    +0.000 C 
ATOM     12  N   UNL     1      -3.728  15.676  24.098  0.00  0.00    +0.000 NA
ATOM     13  C   UNL     1      -5.166  15.870  23.929  0.00  0.00    +0.000 C 
ATOM     14  C   UNL     1      -3.013  15.812  22.811  0.00  0.00    +0.000 C 
ATOM     15  C   UNL     1      -3.251  14.675  21.792  0.00  0.00    +0.000 C 
ATOM     16  C   UNL     1      -2.018  12.344  20.488  0.00  0.00    +0.000 A 
ATOM     17  C   UNL     1      -1.146  11.413  19.924  0.00  0.00    +0.000 A 
ATOM     18  C   UNL     1      -0.957  11.395  18.439  0.00  0.00    +0.000 C 
ATOM     19  C   UNL     1      -0.468  10.535  20.789  0.00  0.00    +0.000 A 
ATOM     20  C   UNL     1       0.443   9.572  20.313  0.00  0.00    +0.000 A 
ENDBRANCH   1   3
BRANCH   1  21
ATOM     21  C   UNL     1       2.140   7.257  19.431  0.00  0.00    +0.000 C 
ATOM     22  S   UNL     1       2.669   8.010  18.023  0.00  0.00    +0.000 S 
BRANCH  21  23
ATOM     23  N   UNL     1       1.710   5.944  19.471  0.00  0.00    +0.000 N 
ATOM     24  H   UNL     1       1.255   5.560  18.655  0.00  0.00    +0.000 HD
BRANCH  23  25
ATOM     25  C   UNL     1       1.583   5.158  20.696  0.00  0.00    +0.000 C 
BRANCH  25  26
ATOM     26  C   UNL     1       2.463   3.893  20.687  0.00  0.00    +0.000 C 
BRANCH  26  27
ATOM     27  C   UNL     1       2.416   3.124  19.365  0.00  0.00    +0.000 C 
BRANCH  27  31
ATOM     28  N   UNL     1       5.115   5.158  17.748  0.00  0.00    +0.000 NA
ATOM     29  C   UNL     1       4.020   4.451  17.048  0.00  0.00    +0.000 C 
ATOM     30  C   UNL     1       3.902   2.953  17.419  0.00  0.00    +0.000 C 
ATOM     31  N   UNL     1       3.738   2.703  18.869  0.00  0.00    +0.000 NA
ATOM     32  C   UNL     1       4.813   3.421  19.594  0.00  0.00    +0.000 C 
ATOM     33  C   UNL     1       4.967   4.917  19.204  0.00  0.00    +0.000 C 
BRANCH  28  34
ATOM     34  C   UNL     1       6.454   4.733  17.300  0.00  0.00    +0.000 C 
BRANCH  34  36
ATOM     35  C   UNL     1       7.472   7.023  17.455  0.00  0.00    +0.000 C 
ATOM     36  C   UNL     1       7.237   5.820  16.557  0.00  0.00    +0.000 C 
ENDBRANCH  34  36
ENDBRANCH  28  34
ENDBRANCH  27  31
ENDBRANCH  26  27
ENDBRANCH  25  26
ENDBRANCH  23  25
ENDBRANCH  21  23
ENDBRANCH   1  21
TORSDOF 9
ENDMDL
MODEL 2
REMARK VINA RESULT:      -7.5      1.267      1.759
REMARK  Name = 
REMARK  12 active torsions:
REMARK  status: ('A' for Active; 'I' for Inactive)
REMARK    1  A    between atoms: C_1  and  C_2
REMARK    2  A    between atoms: C_2  and  C_3
REMARK    3  A    between atoms: C_3  and  N_4
REMARK    4  A    between atoms: N_7  and  C_8
REMARK    5  A    between atoms: C_8  and  C_9
REMARK    6  A    between atoms: C_9  and  C_10
REMARK    7  A    between atoms: C_10  and  N_11
REMARK    8  A    between atoms: N_11  and  C_12
REMARK    9  A    between atoms: C_12  and  N_14
REMARK   10  A    between atoms: N_14  and  C_15
REMARK   11  A    between atoms: N_24  and  C_25
REMARK   12  A    between atoms: C_29  and  C_30
REMARK                            x       y       z     vdW  Elec       q    Type
REMARK                         _______ _______ _______ _____ _____    ______ ____
ROOT
ATOM      1  N   UNL     1       2.057   8.129  20.921  0.00  0.00    +0.000 N 
ATOM      2  H   UNL     1       2.891   8.138  21.489  0.00  0.00    +0.000 HD
ENDROOT
BRANCH   1   3
ATOM      3  C   UNL     1       1.020   8.985  21.337  0.00  0.00    +0.000 A 
ATOM      4  C   UNL     1       0.725   9.135  22.687  0.00  0.00    +0.000 A 
ATOM      5  C   UNL     1      -0.279  10.025  23.085  0.00  0.00    +0.000 A 
ATOM      6  C   UNL     1      -0.966  10.824  22.176  0.00  0.00    +0.000 A 
ATOM      7  N   UNL     1      -1.905  11.694  22.625  0.00  0.00    +0.000 NA
ATOM      8  C   UNL     1      -2.527  12.519  21.759  0.00  0.00    +0.000 A 
ATOM      9  N   UNL     1      -3.440  13.435  22.238  0.00  0.00    +0.000 N 
ATOM     10  C   UNL     1      -4.121  13.199  23.511  0.00  0.00    +0.000 C 
ATOM     11  C   UNL     1      -3.996  14.421  24.451  0.00  0.00    +0.000 C 
ATOM     12  N   UNL     1      -4.331  15.734  23.847  0.00  0.00    +0.000 NA
ATOM     13  C   UNL     1      -5.763  15.861  23.587  0.00  0.00    +0.000 C 
ATOM     14  C   UNL     1      -3.543  15.889  22.605  0.00  0.00    +0.000 C 
ATOM     15  C   UNL     1      -3.666  14.730  21.589  0.00  0.00    +0.000 C 
ATOM     16  C   UNL     1      -2.251  12.444  20.397  0.00  0.00    +0.000 A 
ATOM     17  C   UNL     1      -1.304  11.547  19.901  0.00  0.00    +0.000 A 
ATOM     18  C   UNL     1      -1.022  11.521  18.431  0.00  0.00    +0.000 C 
ATOM     19  C   UNL     1      -0.643  10.711  20.819  0.00  0.00    +0.000 A 
ATOM     20  C   UNL     1       0.338   9.785  20.413  0.00  0.00    +0.000 A 
ENDBRANCH   1   3
BRANCH   1  21
ATOM     21  C   UNL     1       2.063   7.335  19.782  0.00  0.00    +0.000 C 
ATOM     22  S   UNL     1       2.449   7.854  18.230  0.00  0.00    +0.000 S 
BRANCH  21  23
ATOM     23  N   UNL     1       1.750   6.023  20.086  0.00  0.00    +0.000 N 
ATOM     24  H   UNL     1       0.778   5.777  20.212  0.00  0.00    +0.000 HD
BRANCH  23  25
ATOM     25  C   UNL     1       2.719   5.030  20.540  0.00  0.00    +0.000 C 
BRANCH  25  26
ATOM     26  C   UNL     1       3.533   4.418  19.383  0.00  0.00    +0.000 C 
BRANCH  26  27
ATOM     27  C   UNL     1       4.934   5.017  19.236  0.00  0.00    +0.000 C 
BRANCH  27  31
ATOM     28  N   UNL     1       6.051   5.631  15.713  0.00  0.00    +0.000 NA
ATOM     29  C   UNL     1       4.865   4.850  16.126  0.00  0.00    +0.000 C 
ATOM     30  C   UNL     1       5.174   3.736  17.155  0.00  0.00    +0.000 C 
ATOM     31  N   UNL     1       5.839   4.222  18.387  0.00  0.00    +0.000 NA
ATOM     32  C   UNL     1       7.020   5.028  17.996  0.00  0.00    +0.000 C 
ATOM     33  C   UNL     1       6.730   6.126  16.935  0.00  0.00    +0.000 C 
BRANCH  28  34
ATOM     34  C   UNL     1       6.995   4.854  14.891  0.00  0.00    +0.000 C 
BRANCH  34  36
ATOM     35  C   UNL     1       7.046   4.245  12.455  0.00  0.00    +0.000 C 
ATOM     36  C   UNL     1       6.329   4.037  13.779  0.00  0.00    +0.000 C 
ENDBRANCH  34  36
ENDBRANCH  28  34
ENDBRANCH  27  31
ENDBRANCH  26  27
ENDBRANCH  25  26
ENDBRANCH  23  25
ENDBRANCH  21  23
ENDBRANCH   1  21
TORSDOF 9
ENDMDL
MODEL 3
REMARK VINA RESULT:      -7.4      1.966      2.918
REMARK  Name = 
REMARK  12 active torsions:
REMARK  status: ('A' for Active; 'I' for Inactive)
REMARK    1  A    between atoms: C_1  and  C_2
REMARK    2  A    between atoms: C_2  and  C_3
REMARK    3  A    between atoms: C_3  and  N_4
REMARK    4  A    between atoms: N_7  and  C_8
REMARK    5  A    between atoms: C_8  and  C_9
REMARK    6  A    between atoms: C_9  and  C_10
REMARK    7  A    between atoms: C_10  and  N_11
REMARK    8  A    between atoms: N_11  and  C_12
REMARK    9  A    between atoms: C_12  and  N_14
REMARK   10  A    between atoms: N_14  and  C_15
REMARK   11  A    between atoms: N_24  and  C_25
REMARK   12  A    between atoms: C_29  and  C_30
REMARK                            x       y       z     vdW  Elec       q    Type
REMARK                         _______ _______ _______ _____ _____    ______ ____
ROOT
ATOM      1  N   UNL     1       2.419   6.143  20.421  0.00  0.00    +0.000 N 
ATOM      2  H   UNL     1       3.409   6.331  20.378  0.00  0.00    +0.000 HD
ENDROOT
BRANCH   1   3
ATOM      3  C   UNL     1       1.581   7.272  20.493  0.00  0.00    +0.000 A 
ATOM      4  C   UNL     1       0.655   7.401  21.521  0.00  0.00    +0.000 A 
ATOM      5  C   UNL     1      -0.138   8.551  21.602  0.00  0.00    +0.000 A 
ATOM      6  C   UNL     1       0.005   9.615  20.716  0.00  0.00    +0.000 A 
ATOM      7  N   UNL     1      -0.769  10.719  20.866  0.00  0.00    +0.000 NA
ATOM      8  C   UNL     1      -0.591  11.781  20.055  0.00  0.00    +0.000 A 
ATOM      9  N   UNL     1      -1.348  12.917  20.254  0.00  0.00    +0.000 N 
ATOM     10  C   UNL     1      -2.641  12.830  20.933  0.00  0.00    +0.000 C 
ATOM     11  C   UNL     1      -2.736  13.844  22.096  0.00  0.00    +0.000 C 
ATOM     12  N   UNL     1      -2.343  15.237  21.768  0.00  0.00    +0.000 NA
ATOM     13  C   UNL     1      -3.320  15.883  20.894  0.00  0.00    +0.000 C 
ATOM     14  C   UNL     1      -1.002  15.208  21.147  0.00  0.00    +0.000 C 
ATOM     15  C   UNL     1      -0.849  14.259  19.937  0.00  0.00    +0.000 C 
ATOM     16  C   UNL     1       0.347  11.729  19.027  0.00  0.00    +0.000 A 
ATOM     17  C   UNL     1       1.144  10.602  18.835  0.00  0.00    +0.000 A 
ATOM     18  C   UNL     1       2.157  10.603  17.732  0.00  0.00    +0.000 C 
ATOM     19  C   UNL     1       0.967   9.511  19.705  0.00  0.00    +0.000 A 
ATOM     20  C   UNL     1       1.736   8.336  19.597  0.00  0.00    +0.000 A 
ENDBRANCH   1   3
BRANCH   1  21
ATOM     21  C   UNL     1       2.012   4.818  20.338  0.00  0.00    +0.000 C 
ATOM     22  S   UNL     1       2.223   3.652  21.531  0.00  0.00    +0.000 S 
BRANCH  21  23
ATOM     23  N   UNL     1       1.358   4.570  19.145  0.00  0.00    +0.000 N 
ATOM     24  H   UNL     1       0.487   4.058  19.170  0.00  0.00    +0.000 HD
BRANCH  23  25
ATOM     25  C   UNL     1       1.968   4.718  17.826  0.00  0.00    +0.000 C 
BRANCH  25  26
ATOM     26  C   UNL     1       2.890   3.538  17.460  0.00  0.00    +0.000 C 
BRANCH  26  27
ATOM     27  C   UNL     1       4.211   3.970  16.818  0.00  0.00    +0.000 C 
BRANCH  27  31
ATOM     28  N   UNL     1       7.244   6.051  17.531  0.00  0.00    +0.000 NA
ATOM     29  C   UNL     1       6.193   5.684  18.504  0.00  0.00    +0.000 C 
ATOM     30  C   UNL     1       4.758   6.029  18.039  0.00  0.00    +0.000 C 
ATOM     31  N   UNL     1       4.387   5.431  16.735  0.00  0.00    +0.000 NA
ATOM     32  C   UNL     1       5.439   5.768  15.748  0.00  0.00    +0.000 C 
ATOM     33  C   UNL     1       6.888   5.461  16.217  0.00  0.00    +0.000 C 
BRANCH  28  34
ATOM     34  C   UNL     1       7.420   7.509  17.397  0.00  0.00    +0.000 C 
BRANCH  34  36
ATOM     35  C   UNL     1       8.500   9.619  18.229  0.00  0.00    +0.000 C 
ATOM     36  C   UNL     1       8.434   8.107  18.377  0.00  0.00    +0.000 C 
ENDBRANCH  34  36
ENDBRANCH  28  34
ENDBRANCH  27  31
ENDBRANCH  26  27
ENDBRANCH  25  26
ENDBRANCH  23  25
ENDBRANCH  21  23
ENDBRANCH   1  21
TORSDOF 9
ENDMDL
MODEL 4
REMARK VINA RESULT:      -7.3      1.901      3.017
REMARK  Name = 
REMARK  12 active torsions:
REMARK  status: ('A' for Active; 'I' for Inactive)
REMARK    1  A    between atoms: C_1  and  C_2
REMARK    2  A    between atoms: C_2  and  C_3
REMARK    3  A    between atoms: C_3  and  N_4
REMARK    4  A    between atoms: N_7  and  C_8
REMARK    5  A    between atoms: C_8  and  C_9
REMARK    6  A    between atoms: C_9  and  C_10
REMARK    7  A    between atoms: C_10  and  N_11
REMARK    8  A    between atoms: N_11  and  C_12
REMARK    9  A    between atoms: C_12  and  N_14
REMARK   10  A    between atoms: N_14  and  C_15
REMARK   11  A    between atoms: N_24  and  C_25
REMARK   12  A    between atoms: C_29  and  C_30
REMARK                            x       y       z     vdW  Elec       q    Type
REMARK                         _______ _______ _______ _____ _____    ______ ____
ROOT
ATOM      1  N   UNL     1       2.695   5.974  20.197  0.00  0.00    +0.000 N 
ATOM      2  H   UNL     1       3.641   6.175  19.909  0.00  0.00    +0.000 HD
ENDROOT
BRANCH   1   3
ATOM      3  C   UNL     1       1.843   7.086  20.333  0.00  0.00    +0.000 A 
ATOM      4  C   UNL     1       0.967   7.178  21.409  0.00  0.00    +0.000 A 
ATOM      5  C   UNL     1       0.160   8.313  21.552  0.00  0.00    +0.000 A 
ATOM      6  C   UNL     1       0.241   9.396  20.681  0.00  0.00    +0.000 A 
ATOM      7  N   UNL     1      -0.543  10.483  20.892  0.00  0.00    +0.000 NA
ATOM      8  C   UNL     1      -0.424  11.563  20.094  0.00  0.00    +0.000 A 
ATOM      9  N   UNL     1      -1.190  12.681  20.353  0.00  0.00    +0.000 N 
ATOM     10  C   UNL     1      -2.445  12.558  21.094  0.00  0.00    +0.000 C 
ATOM     11  C   UNL     1      -2.498  13.548  22.280  0.00  0.00    +0.000 C 
ATOM     12  N   UNL     1      -2.147  14.954  21.961  0.00  0.00    +0.000 NA
ATOM     13  C   UNL     1      -3.177  15.599  21.150  0.00  0.00    +0.000 C 
ATOM     14  C   UNL     1      -0.838  14.961  21.273  0.00  0.00    +0.000 C 
ATOM     15  C   UNL     1      -0.730  14.037  20.038  0.00  0.00    +0.000 C 
ATOM     16  C   UNL     1       0.461  11.548  19.019  0.00  0.00    +0.000 A 
ATOM     17  C   UNL     1       1.267  10.438  18.765  0.00  0.00    +0.000 A 
ATOM     18  C   UNL     1       2.223  10.478  17.613  0.00  0.00    +0.000 C 
ATOM     19  C   UNL     1       1.152   9.328  19.622  0.00  0.00    +0.000 A 
ATOM     20  C   UNL     1       1.935   8.170  19.452  0.00  0.00    +0.000 A 
ENDBRANCH   1   3
BRANCH   1  21
ATOM     21  C   UNL     1       2.343   4.640  20.355  0.00  0.00    +0.000 C 
ATOM     22  S   UNL     1       0.798   4.006  20.156  0.00  0.00    +0.000 S 
BRANCH  21  23
ATOM     23  N   UNL     1       3.446   3.864  20.661  0.00  0.00    +0.000 N 
ATOM     24  H   UNL     1       4.065   4.176  21.397  0.00  0.00    +0.000 HD
BRANCH  23  25
ATOM     25  C   UNL     1       3.961   2.795  19.810  0.00  0.00    +0.000 C 
BRANCH  25  26
ATOM     26  C   UNL     1       3.772   3.085  18.308  0.00  0.00    +0.000 C 
BRANCH  26  27
ATOM     27  C   UNL     1       4.897   3.925  17.700  0.00  0.00    +0.000 C 
BRANCH  27  31
ATOM     28  N   UNL     1       7.331   6.659  16.901  0.00  0.00    +0.000 NA
ATOM     29  C   UNL     1       7.479   5.646  17.968  0.00  0.00    +0.000 C 
ATOM     30  C   UNL     1       6.265   5.557  18.923  0.00  0.00    +0.000 C 
ATOM     31  N   UNL     1       4.978   5.295  18.237  0.00  0.00    +0.000 NA
ATOM     32  C   UNL     1       4.817   6.286  17.147  0.00  0.00    +0.000 C 
ATOM     33  C   UNL     1       6.045   6.413  16.203  0.00  0.00    +0.000 C 
BRANCH  28  34
ATOM     34  C   UNL     1       7.371   8.042  17.410  0.00  0.00    +0.000 C 
BRANCH  34  36
ATOM     35  C   UNL     1       8.795   9.785  18.526  0.00  0.00    +0.000 C 
ATOM     36  C   UNL     1       8.486   8.299  18.429  0.00  0.00    +0.000 C 
ENDBRANCH  34  36
ENDBRANCH  28  34
ENDBRANCH  27  31
ENDBRANCH  26  27
ENDBRANCH  25  26
ENDBRANCH  23  25
ENDBRANCH  21  23
ENDBRANCH   1  21
TORSDOF 9
ENDMDL
MODEL 5
REMARK VINA RESULT:      -7.2      1.046      1.454
REMARK  Name = 
REMARK  12 active torsions:
REMARK  status: ('A' for Active; 'I' for Inactive)
REMARK    1  A    between atoms: C_1  and  C_2
REMARK    2  A    between atoms: C_2  and  C_3
REMARK    3  A    between atoms: C_3  and  N_4
REMARK    4  A    between atoms: N_7  and  C_8
REMARK    5  A    between atoms: C_8  and  C_9
REMARK    6  A    between atoms: C_9  and  C_10
REMARK    7  A    between atoms: C_10  and  N_11
REMARK    8  A    between atoms: N_11  and  C_12
REMARK    9  A    between atoms: C_12  and  N_14
REMARK   10  A    between atoms: N_14  and  C_15
REMARK   11  A    between atoms: N_24  and  C_25
REMARK   12  A    between atoms: C_29  and  C_30
REMARK                            x       y       z     vdW  Elec       q    Type
REMARK                         _______ _______ _______ _____ _____    ______ ____
ROOT
ATOM      1  N   UNL     1       1.622   8.201  21.447  0.00  0.00    +0.000 N 
ATOM      2  H   UNL     1       2.380   8.136  22.109  0.00  0.00    +0.000 HD
ENDROOT
BRANCH   1   3
ATOM      3  C   UNL     1       0.641   9.171  21.728  0.00  0.00    +0.000 A 
ATOM      4  C   UNL     1       0.203   9.377  23.031  0.00  0.00    +0.000 A 
ATOM      5  C   UNL     1      -0.739  10.378  23.297  0.00  0.00    +0.000 A 
ATOM      6  C   UNL     1      -1.221  11.226  22.304  0.00  0.00    +0.000 A 
ATOM      7  N   UNL     1      -2.108  12.201  22.629  0.00  0.00    +0.000 NA
ATOM      8  C   UNL     1      -2.528  13.070  21.689  0.00  0.00    +0.000 A 
ATOM      9  N   UNL     1      -3.388  14.087  22.046  0.00  0.00    +0.000 N 
ATOM     10  C   UNL     1      -4.239  13.951  23.228  0.00  0.00    +0.000 C 
ATOM     11  C   UNL     1      -4.097  15.171  24.168  0.00  0.00    +0.000 C 
ATOM     12  N   UNL     1      -4.213  16.500  23.518  0.00  0.00    +0.000 NA
ATOM     13  C   UNL     1      -5.581  16.773  23.084  0.00  0.00    +0.000 C 
ATOM     14  C   UNL     1      -3.269  16.545  22.382  0.00  0.00    +0.000 C 
ATOM     15  C   UNL     1      -3.393  15.386  21.366  0.00  0.00    +0.000 C 
ATOM     16  C   UNL     1      -2.099  12.939  20.371  0.00  0.00    +0.000 A 
ATOM     17  C   UNL     1      -1.202  11.937  20.001  0.00  0.00    +0.000 A 
ATOM     18  C   UNL     1      -0.749  11.852  18.576  0.00  0.00    +0.000 C 
ATOM     19  C   UNL     1      -0.751  11.053  20.998  0.00  0.00    +0.000 A 
ATOM     20  C   UNL     1       0.166  10.020  20.721  0.00  0.00    +0.000 A 
ENDBRANCH   1   3
BRANCH   1  21
ATOM     21  C   UNL     1       1.676   7.383  20.327  0.00  0.00    +0.000 C 
ATOM     22  S   UNL     1       2.200   7.849  18.799  0.00  0.00    +0.000 S 
BRANCH  21  23
ATOM     23  N   UNL     1       1.279   6.093  20.630  0.00  0.00    +0.000 N 
ATOM     24  H   UNL     1       0.307   5.928  20.851  0.00  0.00    +0.000 HD
BRANCH  23  25
ATOM     25  C   UNL     1       2.197   5.006  20.957  0.00  0.00    +0.000 C 
BRANCH  25  26
ATOM     26  C   UNL     1       2.097   3.824  19.972  0.00  0.00    +0.000 C 
BRANCH  26  27
ATOM     27  C   UNL     1       3.278   3.732  19.004  0.00  0.00    +0.000 C 
BRANCH  27  31
ATOM     28  N   UNL     1       6.608   4.669  17.563  0.00  0.00    +0.000 NA
ATOM     29  C   UNL     1       6.230   4.727  18.992  0.00  0.00    +0.000 C 
ATOM     30  C   UNL     1       4.934   5.526  19.268  0.00  0.00    +0.000 C 
ATOM     31  N   UNL     1       3.755   5.038  18.515  0.00  0.00    +0.000 NA
ATOM     32  C   UNL     1       4.116   4.951  17.081  0.00  0.00    +0.000 C 
ATOM     33  C   UNL     1       5.437   4.184  16.793  0.00  0.00    +0.000 C 
BRANCH  28  34
ATOM     34  C   UNL     1       7.055   5.970  17.033  0.00  0.00    +0.000 C 
BRANCH  34  36
ATOM     35  C   UNL     1       7.837   8.276  17.648  0.00  0.00    +0.000 C 
ATOM     36  C   UNL     1       7.865   6.805  18.029  0.00  0.00    +0.000 C 
ENDBRANCH  34  36
ENDBRANCH  28  34
ENDBRANCH  27  31
ENDBRANCH  26  27
ENDBRANCH  25  26
ENDBRANCH  23  25
ENDBRANCH  21  23
ENDBRANCH   1  21
TORSDOF 9
ENDMDL
MODEL 6
REMARK VINA RESULT:      -7.2      1.837      3.165
REMARK  Name = 
REMARK  12 active torsions:
REMARK  status: ('A' for Active; 'I' for Inactive)
REMARK    1  A    between atoms: C_1  and  C_2
REMARK    2  A    between atoms: C_2  and  C_3
REMARK    3  A    between atoms: C_3  and  N_4
REMARK    4  A    between atoms: N_7  and  C_8
REMARK    5  A    between atoms: C_8  and  C_9
REMARK    6  A    between atoms: C_9  and  C_10
REMARK    7  A    between atoms: C_10  and  N_11
REMARK    8  A    between atoms: N_11  and  C_12
REMARK    9  A    between atoms: C_12  and  N_14
REMARK   10  A    between atoms: N_14  and  C_15
REMARK   11  A    between atoms: N_24  and  C_25
REMARK   12  A    between atoms: C_29  and  C_30
REMARK                            x       y       z     vdW  Elec       q    Type
REMARK                         _______ _______ _______ _____ _____    ______ ____
ROOT
ATOM      1  N   UNL     1       2.594   7.011  19.741  0.00  0.00    +0.000 N 
ATOM      2  H   UNL     1       3.581   7.210  19.684  0.00  0.00    +0.000 HD
ENDROOT
BRANCH   1   3
ATOM      3  C   UNL     1       1.752   8.122  19.937  0.00  0.00    +0.000 A 
ATOM      4  C   UNL     1       1.235   8.818  18.851  0.00  0.00    +0.000 A 
ATOM      5  C   UNL     1       0.363   9.892  19.065  0.00  0.00    +0.000 A 
ATOM      6  C   UNL     1      -0.060  10.262  20.338  0.00  0.00    +0.000 A 
ATOM      7  N   UNL     1      -0.934  11.290  20.480  0.00  0.00    +0.000 NA
ATOM      8  C   UNL     1      -1.402  11.612  21.702  0.00  0.00    +0.000 A 
ATOM      9  N   UNL     1      -2.331  12.624  21.824  0.00  0.00    +0.000 N 
ATOM     10  C   UNL     1      -2.424  13.665  20.799  0.00  0.00    +0.000 C 
ATOM     11  C   UNL     1      -3.876  13.831  20.296  0.00  0.00    +0.000 C 
ATOM     12  N   UNL     1      -4.913  13.958  21.350  0.00  0.00    +0.000 NA
ATOM     13  C   UNL     1      -4.823  15.240  22.045  0.00  0.00    +0.000 C 
ATOM     14  C   UNL     1      -4.762  12.826  22.288  0.00  0.00    +0.000 C 
ATOM     15  C   UNL     1      -3.347  12.634  22.880  0.00  0.00    +0.000 C 
ATOM     16  C   UNL     1      -0.950  10.929  22.828  0.00  0.00    +0.000 A 
ATOM     17  C   UNL     1      -0.038   9.880  22.718  0.00  0.00    +0.000 A 
ATOM     18  C   UNL     1       0.399   9.159  23.955  0.00  0.00    +0.000 C 
ATOM     19  C   UNL     1       0.421   9.537  21.434  0.00  0.00    +0.000 A 
ATOM     20  C   UNL     1       1.332   8.483  21.223  0.00  0.00    +0.000 A 
ENDBRANCH   1   3
BRANCH   1  21
ATOM     21  C   UNL     1       2.194   5.694  19.556  0.00  0.00    +0.000 C 
ATOM     22  S   UNL     1       1.494   4.710  20.726  0.00  0.00    +0.000 S 
BRANCH  21  23
ATOM     23  N   UNL     1       2.402   5.288  18.250  0.00  0.00    +0.000 N 
ATOM     24  H   UNL     1       1.946   5.801  17.508  0.00  0.00    +0.000 HD
BRANCH  23  25
ATOM     25  C   UNL     1       2.976   4.000  17.871  0.00  0.00    +0.000 C 
BRANCH  25  26
ATOM     26  C   UNL     1       3.711   4.050  16.517  0.00  0.00    +0.000 C 
BRANCH  26  27
ATOM     27  C   UNL     1       5.182   3.638  16.604  0.00  0.00    +0.000 C 
BRANCH  27  31
ATOM     28  N   UNL     1       6.736   6.702  18.100  0.00  0.00    +0.000 NA
ATOM     29  C   UNL     1       5.454   6.647  17.365  0.00  0.00    +0.000 C 
ATOM     30  C   UNL     1       5.556   5.981  15.972  0.00  0.00    +0.000 C 
ATOM     31  N   UNL     1       6.112   4.608  16.000  0.00  0.00    +0.000 NA
ATOM     32  C   UNL     1       7.389   4.634  16.751  0.00  0.00    +0.000 C 
ATOM     33  C   UNL     1       7.309   5.334  18.136  0.00  0.00    +0.000 C 
BRANCH  28  34
ATOM     34  C   UNL     1       7.704   7.638  17.499  0.00  0.00    +0.000 C 
BRANCH  34  36
ATOM     35  C   UNL     1       8.651   9.904  18.023  0.00  0.00    +0.000 C 
ATOM     36  C   UNL     1       8.475   8.478  18.521  0.00  0.00    +0.000 C 
ENDBRANCH  34  36
ENDBRANCH  28  34
ENDBRANCH  27  31
ENDBRANCH  26  27
ENDBRANCH  25  26
ENDBRANCH  23  25
ENDBRANCH  21  23
ENDBRANCH   1  21
TORSDOF 9
ENDMDL
MODEL 7
REMARK VINA RESULT:      -7.0      2.403      3.626
REMARK  Name = 
REMARK  12 active torsions:
REMARK  status: ('A' for Active; 'I' for Inactive)
REMARK    1  A    between atoms: C_1  and  C_2
REMARK    2  A    between atoms: C_2  and  C_3
REMARK    3  A    between atoms: C_3  and  N_4
REMARK    4  A    between atoms: N_7  and  C_8
REMARK    5  A    between atoms: C_8  and  C_9
REMARK    6  A    between atoms: C_9  and  C_10
REMARK    7  A    between atoms: C_10  and  N_11
REMARK    8  A    between atoms: N_11  and  C_12
REMARK    9  A    between atoms: C_12  and  N_14
REMARK   10  A    between atoms: N_14  and  C_15
REMARK   11  A    between atoms: N_24  and  C_25
REMARK   12  A    between atoms: C_29  and  C_30
REMARK                            x       y       z     vdW  Elec       q    Type
REMARK                         _______ _______ _______ _____ _____    ______ ____
ROOT
ATOM      1  N   UNL     1       2.550   6.102  18.648  0.00  0.00    +0.000 N 
ATOM      2  H   UNL     1       3.288   5.907  17.989  0.00  0.00    +0.000 HD
ENDROOT
BRANCH   1   3
ATOM      3  C   UNL     1       2.239   7.461  18.841  0.00  0.00    +0.000 A 
ATOM      4  C   UNL     1       2.351   8.368  17.793  0.00  0.00    +0.000 A 
ATOM      5  C   UNL     1       1.994   9.707  17.991  0.00  0.00    +0.000 A 
ATOM      6  C   UNL     1       1.469  10.164  19.195  0.00  0.00    +0.000 A 
ATOM      7  N   UNL     1       1.108  11.467  19.317  0.00  0.00    +0.000 NA
ATOM      8  C   UNL     1       0.536  11.904  20.456  0.00  0.00    +0.000 A 
ATOM      9  N   UNL     1       0.126  13.218  20.544  0.00  0.00    +0.000 N 
ATOM     10  C   UNL     1       0.739  14.239  19.694  0.00  0.00    +0.000 C 
ATOM     11  C   UNL     1      -0.332  15.063  18.943  0.00  0.00    +0.000 C 
ATOM     12  N   UNL     1      -1.441  15.589  19.776  0.00  0.00    +0.000 NA
ATOM     13  C   UNL     1      -0.990  16.658  20.664  0.00  0.00    +0.000 C 
ATOM     14  C   UNL     1      -2.022  14.465  20.541  0.00  0.00    +0.000 C 
ATOM     15  C   UNL     1      -1.015  13.630  21.366  0.00  0.00    +0.000 C 
ATOM     16  C   UNL     1       0.363  11.037  21.532  0.00  0.00    +0.000 A 
ATOM     17  C   UNL     1       0.740   9.697  21.445  0.00  0.00    +0.000 A 
ATOM     18  C   UNL     1       0.510   8.796  22.620  0.00  0.00    +0.000 C 
ATOM     19  C   UNL     1       1.311   9.248  20.241  0.00  0.00    +0.000 A 
ATOM     20  C   UNL     1       1.709   7.909  20.057  0.00  0.00    +0.000 A 
ENDBRANCH   1   3
BRANCH   1  21
ATOM     21  C   UNL     1       1.900   5.018  19.224  0.00  0.00    +0.000 C 
ATOM     22  S   UNL     1       1.721   4.747  20.873  0.00  0.00    +0.000 S 
BRANCH  21  23
ATOM     23  N   UNL     1       1.366   4.185  18.257  0.00  0.00    +0.000 N 
ATOM     24  H   UNL     1       0.445   4.394  17.897  0.00  0.00    +0.000 HD
BRANCH  23  25
ATOM     25  C   UNL     1       1.888   2.860  17.934  0.00  0.00    +0.000 C 
BRANCH  25  26
ATOM     26  C   UNL     1       3.415   2.855  17.724  0.00  0.00    +0.000 C 
BRANCH  26  27
ATOM     27  C   UNL     1       3.877   3.746  16.570  0.00  0.00    +0.000 C 
BRANCH  27  31
ATOM     28  N   UNL     1       5.935   6.868  16.811  0.00  0.00    +0.000 NA
ATOM     29  C   UNL     1       5.387   6.281  15.569  0.00  0.00    +0.000 C 
ATOM     30  C   UNL     1       5.747   4.789  15.368  0.00  0.00    +0.000 C 
ATOM     31  N   UNL     1       5.339   3.914  16.492  0.00  0.00    +0.000 NA
ATOM     32  C   UNL     1       5.860   4.496  17.752  0.00  0.00    +0.000 C 
ATOM     33  C   UNL     1       5.538   6.003  17.948  0.00  0.00    +0.000 C 
BRANCH  28  34
ATOM     34  C   UNL     1       7.402   7.016  16.779  0.00  0.00    +0.000 C 
BRANCH  34  36
ATOM     35  C   UNL     1       8.253   9.045  17.991  0.00  0.00    +0.000 C 
ATOM     36  C   UNL     1       8.003   7.548  18.084  0.00  0.00    +0.000 C 
ENDBRANCH  34  36
ENDBRANCH  28  34
ENDBRANCH  27  31
ENDBRANCH  26  27
ENDBRANCH  25  26
ENDBRANCH  23  25
ENDBRANCH  21  23
ENDBRANCH   1  21
TORSDOF 9
ENDMDL
MODEL 8
REMARK VINA RESULT:      -7.0      4.194      9.635
REMARK  Name = 
REMARK  12 active torsions:
REMARK  status: ('A' for Active; 'I' for Inactive)
REMARK    1  A    between atoms: C_1  and  C_2
REMARK    2  A    between atoms: C_2  and  C_3
REMARK    3  A    between atoms: C_3  and  N_4
REMARK    4  A    between atoms: N_7  and  C_8
REMARK    5  A    between atoms: C_8  and  C_9
REMARK    6  A    between atoms: C_9  and  C_10
REMARK    7  A    between atoms: C_10  and  N_11
REMARK    8  A    between atoms: N_11  and  C_12
REMARK    9  A    between atoms: C_12  and  N_14
REMARK   10  A    between atoms: N_14  and  C_15
REMARK   11  A    between atoms: N_24  and  C_25
REMARK   12  A    between atoms: C_29  and  C_30
REMARK                            x       y       z     vdW  Elec       q    Type
REMARK                         _______ _______ _______ _____ _____    ______ ____
ROOT
ATOM      1  N   UNL     1      -0.493  11.970  21.902  0.00  0.00    +0.000 N 
ATOM      2  H   UNL     1      -0.552  12.232  22.874  0.00  0.00    +0.000 HD
ENDROOT
BRANCH   1   3
ATOM      3  C   UNL     1       0.074  10.709  21.638  0.00  0.00    +0.000 A 
ATOM      4  C   UNL     1      -0.075   9.663  22.541  0.00  0.00    +0.000 A 
ATOM      5  C   UNL     1       0.457   8.403  22.241  0.00  0.00    +0.000 A 
ATOM      6  C   UNL     1       1.089   8.135  21.031  0.00  0.00    +0.000 A 
ATOM      7  N   UNL     1       1.554   6.885  20.782  0.00  0.00    +0.000 NA
ATOM      8  C   UNL     1       2.107   6.597  19.586  0.00  0.00    +0.000 A 
ATOM      9  N   UNL     1       2.526   5.309  19.329  0.00  0.00    +0.000 N 
ATOM     10  C   UNL     1       2.867   4.411  20.433  0.00  0.00    +0.000 C 
ATOM     11  C   UNL     1       2.120   3.063  20.313  0.00  0.00    +0.000 C 
ATOM     12  N   UNL     1       2.190   2.404  18.985  0.00  0.00    +0.000 NA
ATOM     13  C   UNL     1       3.528   1.887  18.707  0.00  0.00    +0.000 C 
ATOM     14  C   UNL     1       1.767   3.381  17.959  0.00  0.00    +0.000 C 
ATOM     15  C   UNL     1       2.515   4.734  17.980  0.00  0.00    +0.000 C 
ATOM     16  C   UNL     1       2.255   7.593  18.624  0.00  0.00    +0.000 A 
ATOM     17  C   UNL     1       1.804   8.892  18.856  0.00  0.00    +0.000 A 
ATOM     18  C   UNL     1       1.961   9.923  17.781  0.00  0.00    +0.000 C 
ATOM     19  C   UNL     1       1.204   9.171  20.098  0.00  0.00    +0.000 A 
ATOM     20  C   UNL     1       0.707  10.450  20.416  0.00  0.00    +0.000 A 
ENDBRANCH   1   3
BRANCH   1  21
ATOM     21  C   UNL     1      -1.031  12.844  20.967  0.00  0.00    +0.000 C 
ATOM     22  S   UNL     1      -2.483  12.628  20.148  0.00  0.00    +0.000 S 
BRANCH  21  23
ATOM     23  N   UNL     1      -0.235  13.965  20.815  0.00  0.00    +0.000 N 
ATOM     24  H   UNL     1       0.721  13.925  21.143  0.00  0.00    +0.000 HD
BRANCH  23  25
ATOM     25  C   UNL     1      -0.743  15.298  20.503  0.00  0.00    +0.000 C 
BRANCH  25  26
ATOM     26  C   UNL     1       0.065  15.998  19.392  0.00  0.00    +0.000 C 
BRANCH  26  27
ATOM     27  C   UNL     1       1.525  16.258  19.768  0.00  0.00    +0.000 C 
BRANCH  27  31
ATOM     28  N   UNL     1       4.795  15.804  17.995  0.00  0.00    +0.000 NA
ATOM     29  C   UNL     1       3.453  15.550  17.426  0.00  0.00    +0.000 C 
ATOM     30  C   UNL     1       2.576  14.608  18.284  0.00  0.00    +0.000 C 
ATOM     31  N   UNL     1       2.387  15.066  19.680  0.00  0.00    +0.000 NA
ATOM     32  C   UNL     1       3.719  15.349  20.265  0.00  0.00    +0.000 C 
ATOM     33  C   UNL     1       4.625  16.263  19.395  0.00  0.00    +0.000 C 
BRANCH  28  34
ATOM     34  C   UNL     1       5.671  14.619  17.956  0.00  0.00    +0.000 C 
BRANCH  34  36
ATOM     35  C   UNL     1       7.975  14.357  18.920  0.00  0.00    +0.000 C 
ATOM     36  C   UNL     1       7.157  14.949  17.783  0.00  0.00    +0.000 C 
ENDBRANCH  34  36
ENDBRANCH  28  34
ENDBRANCH  27  31
ENDBRANCH  26  27
ENDBRANCH  25  26
ENDBRANCH  23  25
ENDBRANCH  21  23
ENDBRANCH   1  21
TORSDOF 9
ENDMDL
MODEL 9
REMARK VINA RESULT:      -6.9      1.940      3.219
REMARK  Name = 
REMARK  12 active torsions:
REMARK  status: ('A' for Active; 'I' for Inactive)
REMARK    1  A    between atoms: C_1  and  C_2
REMARK    2  A    between atoms: C_2  and  C_3
REMARK    3  A    between atoms: C_3  and  N_4
REMARK    4  A    between atoms: N_7  and  C_8
REMARK    5  A    between atoms: C_8  and  C_9
REMARK    6  A    between atoms: C_9  and  C_10
REMARK    7  A    between atoms: C_10  and  N_11
REMARK    8  A    between atoms: N_11  and  C_12
REMARK    9  A    between atoms: C_12  and  N_14
REMARK   10  A    between atoms: N_14  and  C_15
REMARK   11  A    between atoms: N_24  and  C_25
REMARK   12  A    between atoms: C_29  and  C_30
REMARK                            x       y       z     vdW  Elec       q    Type
REMARK                         _______ _______ _______ _____ _____    ______ ____
ROOT
ATOM      1  N   UNL     1       2.340   7.455  19.145  0.00  0.00    +0.000 N 
ATOM      2  H   UNL     1       3.175   7.683  18.628  0.00  0.00    +0.000 HD
ENDROOT
BRANCH   1   3
ATOM      3  C   UNL     1       1.503   8.540  19.471  0.00  0.00    +0.000 A 
ATOM      4  C   UNL     1       0.925   9.312  18.470  0.00  0.00    +0.000 A 
ATOM      5  C   UNL     1       0.059  10.358  18.812  0.00  0.00    +0.000 A 
ATOM      6  C   UNL     1      -0.298  10.624  20.130  0.00  0.00    +0.000 A 
ATOM      7  N   UNL     1      -1.170  11.630  20.396  0.00  0.00    +0.000 NA
ATOM      8  C   UNL     1      -1.575  11.852  21.663  0.00  0.00    +0.000 A 
ATOM      9  N   UNL     1      -2.501  12.843  21.911  0.00  0.00    +0.000 N 
ATOM     10  C   UNL     1      -2.654  13.958  20.977  0.00  0.00    +0.000 C 
ATOM     11  C   UNL     1      -4.132  14.148  20.564  0.00  0.00    +0.000 C 
ATOM     12  N   UNL     1      -5.112  14.183  21.677  0.00  0.00    +0.000 NA
ATOM     13  C   UNL     1      -4.993  15.408  22.465  0.00  0.00    +0.000 C 
ATOM     14  C   UNL     1      -4.906  12.983  22.516  0.00  0.00    +0.000 C 
ATOM     15  C   UNL     1      -3.460  12.761  23.017  0.00  0.00    +0.000 C 
ATOM     16  C   UNL     1      -1.060  11.089  22.708  0.00  0.00    +0.000 A 
ATOM     17  C   UNL     1      -0.149  10.060  22.469  0.00  0.00    +0.000 A 
ATOM     18  C   UNL     1       0.357   9.250  23.622  0.00  0.00    +0.000 C 
ATOM     19  C   UNL     1       0.245   9.822  21.139  0.00  0.00    +0.000 A 
ATOM     20  C   UNL     1       1.149   8.796  20.800  0.00  0.00    +0.000 A 
ENDBRANCH   1   3
BRANCH   1  21
ATOM     21  C   UNL     1       2.093   6.115  19.408  0.00  0.00    +0.000 C 
ATOM     22  S   UNL     1       1.783   5.455  20.924  0.00  0.00    +0.000 S 
BRANCH  21  23
ATOM     23  N   UNL     1       2.088   5.370  18.243  0.00  0.00    +0.000 N 
ATOM     24  H   UNL     1       1.663   5.770  17.417  0.00  0.00    +0.000 HD
BRANCH  23  25
ATOM     25  C   UNL     1       2.369   3.938  18.181  0.00  0.00    +0.000 C 
BRANCH  25  26
ATOM     26  C   UNL     1       3.852   3.610  18.441  0.00  0.00    +0.000 C 
BRANCH  26  27
ATOM     27  C   UNL     1       4.790   4.799  18.223  0.00  0.00    +0.000 C 
BRANCH  27  31
ATOM     28  N   UNL     1       7.301   4.533  15.455  0.00  0.00    +0.000 NA
ATOM     29  C   UNL     1       7.245   5.599  16.479  0.00  0.00    +0.000 C 
ATOM     30  C   UNL     1       5.864   6.288  16.592  0.00  0.00    +0.000 C 
ATOM     31  N   UNL     1       4.745   5.354  16.858  0.00  0.00    +0.000 NA
ATOM     32  C   UNL     1       4.795   4.264  15.856  0.00  0.00    +0.000 C 
ATOM     33  C   UNL     1       6.185   3.589  15.705  0.00  0.00    +0.000 C 
BRANCH  28  34
ATOM     34  C   UNL     1       7.222   5.053  14.078  0.00  0.00    +0.000 C 
BRANCH  34  36
ATOM     35  C   UNL     1       7.265   4.260  11.695  0.00  0.00    +0.000 C 
ATOM     36  C   UNL     1       6.644   4.057  13.068  0.00  0.00    +0.000 C 
ENDBRANCH  34  36
ENDBRANCH  28  34
ENDBRANCH  27  31
ENDBRANCH  26  27
ENDBRANCH  25  26
ENDBRANCH  23  25
ENDBRANCH  21  23
ENDBRANCH   1  21
TORSDOF 9
ENDMDL
