MODEL 1
REMARK VINA RESULT:      -7.3      0.000      0.000
REMARK  Name = 
REMARK  3 active torsions:
REMARK  status: ('A' for Active; 'I' for Inactive)
REMARK    1  A    between atoms: C_2  and  C_11
REMARK    2  A    between atoms: N_3  and  C_4
REMARK    3  A    between atoms: C_4  and  C_5
REMARK                            x       y       z     vdW  Elec       q    Type
REMARK                         _______ _______ _______ _____ _____    ______ ____
ROOT
ATOM      1  O   UNL     1       7.351   4.452  18.261  0.00  0.00    +0.000 OA
ATOM      2  C   UNL     1       6.380   4.631  17.533  0.00  0.00    +0.000 C 
ATOM      3  N   UNL     1       5.145   4.986  18.013  0.00  0.00    +0.000 N 
ATOM      4  H   UNL     1       4.360   5.037  17.384  0.00  0.00    +0.000 HD
ENDROOT
BRANCH   2   5
ATOM      5  C   UNL     1       6.479   4.493  16.098  0.00  0.00    +0.000 A 
ATOM      6  C   UNL     1       5.816   3.699  15.169  0.00  0.00    +0.000 A 
ATOM      7  C   UNL     1       6.327   4.019  13.888  0.00  0.00    +0.000 A 
ATOM      8 BR   UNL     1       5.715   3.215  12.309  0.00  0.00    +0.000 Br
ATOM      9  C   UNL     1       7.291   4.979  14.047  0.00  0.00    +0.000 A 
ATOM     10 BR   UNL     1       8.324   5.790  12.728  0.00  0.00    +0.000 Br
ATOM     11  N   UNL     1       7.377   5.263  15.378  0.00  0.00    +0.000 N 
ATOM     12  H   UNL     1       7.997   5.944  15.799  0.00  0.00    +0.000 HD
ENDBRANCH   2   5
BRANCH   3  13
ATOM     13  C   UNL     1       4.898   5.151  19.427  0.00  0.00    +0.000 C 
BRANCH  13  14
ATOM     14  C   UNL     1       3.584   4.546  19.850  0.00  0.00    +0.000 A 
ATOM     15  C   UNL     1       3.468   3.161  20.042  0.00  0.00    +0.000 A 
ATOM     16  C   UNL     1       2.253   2.596  20.438  0.00  0.00    +0.000 A 
ATOM     17  C   UNL     1       1.141   3.410  20.642  0.00  0.00    +0.000 A 
ATOM     18  C   UNL     1       1.241   4.786  20.450  0.00  0.00    +0.000 A 
ATOM     19  C   UNL     1       2.455   5.353  20.052  0.00  0.00    +0.000 A 
ENDBRANCH  13  14
ENDBRANCH   3  13
TORSDOF 3
ENDMDL
MODEL 2
REMARK VINA RESULT:      -7.2      0.860      1.048
REMARK  Name = 
REMARK  3 active torsions:
REMARK  status: ('A' for Active; 'I' for Inactive)
REMARK    1  A    between atoms: C_2  and  C_11
REMARK    2  A    between atoms: N_3  and  C_4
REMARK    3  A    between atoms: C_4  and  C_5
REMARK                            x       y       z     vdW  Elec       q    Type
REMARK                         _______ _______ _______ _____ _____    ______ ____
ROOT
ATOM      1  O   UNL     1       6.719   4.379  18.212  0.00  0.00    +0.000 OA
ATOM      2  C   UNL     1       5.906   4.703  17.351  0.00  0.00    +0.000 C 
ATOM      3  N   UNL     1       4.686   5.254  17.649  0.00  0.00    +0.000 N 
ATOM      4  H   UNL     1       4.020   5.423  16.912  0.00  0.00    +0.000 HD
ENDROOT
BRANCH   2   5
ATOM      5  C   UNL     1       6.193   4.536  15.944  0.00  0.00    +0.000 A 
ATOM      6  C   UNL     1       5.662   3.718  14.954  0.00  0.00    +0.000 A 
ATOM      7  C   UNL     1       6.334   4.016  13.744  0.00  0.00    +0.000 A 
ATOM      8 BR   UNL     1       5.939   3.174  12.116  0.00  0.00    +0.000 Br
ATOM      9  C   UNL     1       7.263   4.988  14.007  0.00  0.00    +0.000 A 
ATOM     10 BR   UNL     1       8.454   5.781  12.817  0.00  0.00    +0.000 Br
ATOM     11  N   UNL     1       7.172   5.300  15.331  0.00  0.00    +0.000 N 
ATOM     12  H   UNL     1       7.728   5.995  15.815  0.00  0.00    +0.000 HD
ENDBRANCH   2   5
BRANCH   3  13
ATOM     13  C   UNL     1       4.262   5.470  19.013  0.00  0.00    +0.000 C 
BRANCH  13  14
ATOM     14  C   UNL     1       3.055   4.642  19.373  0.00  0.00    +0.000 A 
ATOM     15  C   UNL     1       2.643   4.530  20.709  0.00  0.00    +0.000 A 
ATOM     16  C   UNL     1       1.523   3.767  21.047  0.00  0.00    +0.000 A 
ATOM     17  C   UNL     1       0.806   3.104  20.053  0.00  0.00    +0.000 A 
ATOM     18  C   UNL     1       1.208   3.204  18.722  0.00  0.00    +0.000 A 
ATOM     19  C   UNL     1       2.330   3.965  18.383  0.00  0.00    +0.000 A 
ENDBRANCH  13  14
ENDBRANCH   3  13
TORSDOF 3
ENDMDL
MODEL 3
REMARK VINA RESULT:      -7.0      0.692      1.205
REMARK  Name = 
REMARK  3 active torsions:
REMARK  status: ('A' for Active; 'I' for Inactive)
REMARK    1  A    between atoms: C_2  and  C_11
REMARK    2  A    between atoms: N_3  and  C_4
REMARK    3  A    between atoms: C_4  and  C_5
REMARK                            x       y       z     vdW  Elec       q    Type
REMARK                         _______ _______ _______ _____ _____    ______ ____
ROOT
ATOM      1  O   UNL     1       7.374   4.750  18.108  0.00  0.00    +0.000 OA
ATOM      2  C   UNL     1       6.424   4.382  17.424  0.00  0.00    +0.000 C 
ATOM      3  N   UNL     1       5.216   4.018  17.963  0.00  0.00    +0.000 N 
ATOM      4  H   UNL     1       4.496   3.642  17.367  0.00  0.00    +0.000 HD
ENDROOT
BRANCH   2   5
ATOM      5  C   UNL     1       6.512   4.323  15.983  0.00  0.00    +0.000 A 
ATOM      6  C   UNL     1       5.833   3.591  15.016  0.00  0.00    +0.000 A 
ATOM      7  C   UNL     1       6.338   3.976  13.751  0.00  0.00    +0.000 A 
ATOM      8 BR   UNL     1       5.706   3.268  12.134  0.00  0.00    +0.000 Br
ATOM      9  C   UNL     1       7.314   4.914  13.956  0.00  0.00    +0.000 A 
ATOM     10 BR   UNL     1       8.347   5.787  12.677  0.00  0.00    +0.000 Br
ATOM     11  N   UNL     1       7.413   5.123  15.300  0.00  0.00    +0.000 N 
ATOM     12  H   UNL     1       8.044   5.772  15.753  0.00  0.00    +0.000 HD
ENDBRANCH   2   5
BRANCH   3  13
ATOM     13  C   UNL     1       4.988   4.020  19.390  0.00  0.00    +0.000 C 
BRANCH  13  14
ATOM     14  C   UNL     1       3.552   3.724  19.738  0.00  0.00    +0.000 A 
ATOM     15  C   UNL     1       2.508   4.353  19.045  0.00  0.00    +0.000 A 
ATOM     16  C   UNL     1       1.176   4.079  19.362  0.00  0.00    +0.000 A 
ATOM     17  C   UNL     1       0.873   3.175  20.378  0.00  0.00    +0.000 A 
ATOM     18  C   UNL     1       1.902   2.547  21.079  0.00  0.00    +0.000 A 
ATOM     19  C   UNL     1       3.235   2.822  20.764  0.00  0.00    +0.000 A 
ENDBRANCH  13  14
ENDBRANCH   3  13
TORSDOF 3
ENDMDL
MODEL 4
REMARK VINA RESULT:      -7.0      1.028      1.052
REMARK  Name = 
REMARK  3 active torsions:
REMARK  status: ('A' for Active; 'I' for Inactive)
REMARK    1  A    between atoms: C_2  and  C_11
REMARK    2  A    between atoms: N_3  and  C_4
REMARK    3  A    between atoms: C_4  and  C_5
REMARK                            x       y       z     vdW  Elec       q    Type
REMARK                         _______ _______ _______ _____ _____    ______ ____
ROOT
ATOM      1  O   UNL     1       5.620   5.891  17.795  0.00  0.00    +0.000 OA
ATOM      2  C   UNL     1       5.635   4.773  17.291  0.00  0.00    +0.000 C 
ATOM      3  N   UNL     1       5.293   3.639  17.983  0.00  0.00    +0.000 N 
ATOM      4  H   UNL     1       5.404   2.736  17.549  0.00  0.00    +0.000 HD
ENDROOT
BRANCH   2   5
ATOM      5  C   UNL     1       6.005   4.576  15.907  0.00  0.00    +0.000 A 
ATOM      6  C   UNL     1       5.529   3.741  14.903  0.00  0.00    +0.000 A 
ATOM      7  C   UNL     1       6.274   4.011  13.730  0.00  0.00    +0.000 A 
ATOM      8 BR   UNL     1       5.971   3.138  12.099  0.00  0.00    +0.000 Br
ATOM      9  C   UNL     1       7.192   4.982  14.029  0.00  0.00    +0.000 A 
ATOM     10 BR   UNL     1       8.458   5.744  12.897  0.00  0.00    +0.000 Br
ATOM     11  N   UNL     1       7.025   5.321  15.339  0.00  0.00    +0.000 N 
ATOM     12  H   UNL     1       7.555   6.023  15.841  0.00  0.00    +0.000 HD
ENDBRANCH   2   5
BRANCH   3  13
ATOM     13  C   UNL     1       4.911   3.685  19.375  0.00  0.00    +0.000 C 
BRANCH  13  14
ATOM     14  C   UNL     1       3.428   3.498  19.566  0.00  0.00    +0.000 A 
ATOM     15  C   UNL     1       2.764   2.418  18.965  0.00  0.00    +0.000 A 
ATOM     16  C   UNL     1       1.390   2.239  19.141  0.00  0.00    +0.000 A 
ATOM     17  C   UNL     1       0.665   3.140  19.918  0.00  0.00    +0.000 A 
ATOM     18  C   UNL     1       1.311   4.220  20.517  0.00  0.00    +0.000 A 
ATOM     19  C   UNL     1       2.685   4.402  20.339  0.00  0.00    +0.000 A 
ENDBRANCH  13  14
ENDBRANCH   3  13
TORSDOF 3
ENDMDL
MODEL 5
REMARK VINA RESULT:      -6.9      1.187      1.265
REMARK  Name = 
REMARK  3 active torsions:
REMARK  status: ('A' for Active; 'I' for Inactive)
REMARK    1  A    between atoms: C_2  and  C_11
REMARK    2  A    between atoms: N_3  and  C_4
REMARK    3  A    between atoms: C_4  and  C_5
REMARK                            x       y       z     vdW  Elec       q    Type
REMARK                         _______ _______ _______ _____ _____    ______ ____
ROOT
ATOM      1  O   UNL     1       6.037   4.962  18.098  0.00  0.00    +0.000 OA
ATOM      2  C   UNL     1       5.334   5.166  17.113  0.00  0.00    +0.000 C 
ATOM      3  N   UNL     1       4.083   5.724  17.193  0.00  0.00    +0.000 N 
ATOM      4  H   UNL     1       3.512   5.792  16.366  0.00  0.00    +0.000 HD
ENDROOT
BRANCH   2   5
ATOM      5  C   UNL     1       5.791   4.840  15.781  0.00  0.00    +0.000 A 
ATOM      6  C   UNL     1       5.375   3.915  14.831  0.00  0.00    +0.000 A 
ATOM      7  C   UNL     1       6.196   4.072  13.689  0.00  0.00    +0.000 A 
ATOM      8 BR   UNL     1       5.994   3.051  12.130  0.00  0.00    +0.000 Br
ATOM      9  C   UNL     1       7.100   5.066  13.954  0.00  0.00    +0.000 A 
ATOM     10 BR   UNL     1       8.442   5.718  12.841  0.00  0.00    +0.000 Br
ATOM     11  N   UNL     1       6.850   5.527  15.214  0.00  0.00    +0.000 N 
ATOM     12  H   UNL     1       7.352   6.273  15.681  0.00  0.00    +0.000 HD
ENDBRANCH   2   5
BRANCH   3  13
ATOM     13  C   UNL     1       3.495   6.092  18.460  0.00  0.00    +0.000 C 
BRANCH  13  14
ATOM     14  C   UNL     1       2.558   5.034  18.982  0.00  0.00    +0.000 A 
ATOM     15  C   UNL     1       1.970   4.110  18.106  0.00  0.00    +0.000 A 
ATOM     16  C   UNL     1       1.103   3.125  18.586  0.00  0.00    +0.000 A 
ATOM     17  C   UNL     1       0.812   3.057  19.946  0.00  0.00    +0.000 A 
ATOM     18  C   UNL     1       1.384   3.973  20.827  0.00  0.00    +0.000 A 
ATOM     19  C   UNL     1       2.250   4.960  20.348  0.00  0.00    +0.000 A 
ENDBRANCH  13  14
ENDBRANCH   3  13
TORSDOF 3
ENDMDL
MODEL 6
REMARK VINA RESULT:      -6.7      1.166      1.938
REMARK  Name = 
REMARK  3 active torsions:
REMARK  status: ('A' for Active; 'I' for Inactive)
REMARK    1  A    between atoms: C_2  and  C_11
REMARK    2  A    between atoms: N_3  and  C_4
REMARK    3  A    between atoms: C_4  and  C_5
REMARK                            x       y       z     vdW  Elec       q    Type
REMARK                         _______ _______ _______ _____ _____    ______ ____
ROOT
ATOM      1  O   UNL     1       7.138   4.682  18.406  0.00  0.00    +0.000 OA
ATOM      2  C   UNL     1       6.320   4.285  17.583  0.00  0.00    +0.000 C 
ATOM      3  N   UNL     1       5.135   3.692  17.939  0.00  0.00    +0.000 N 
ATOM      4  H   UNL     1       4.535   3.306  17.226  0.00  0.00    +0.000 HD
ENDROOT
BRANCH   2   5
ATOM      5  C   UNL     1       6.547   4.433  16.164  0.00  0.00    +0.000 A 
ATOM      6  C   UNL     1       7.424   5.209  15.415  0.00  0.00    +0.000 A 
ATOM      7  C   UNL     1       7.202   4.911  14.049  0.00  0.00    +0.000 A 
ATOM      8 BR   UNL     1       8.174   5.703  12.655  0.00  0.00    +0.000 Br
ATOM      9  C   UNL     1       6.199   3.982  13.978  0.00  0.00    +0.000 A 
ATOM     10 BR   UNL     1       5.462   3.210  12.453  0.00  0.00    +0.000 Br
ATOM     11  N   UNL     1       5.810   3.694  15.253  0.00  0.00    +0.000 N 
ATOM     12  H   UNL     1       5.091   3.031  15.517  0.00  0.00    +0.000 HD
ENDBRANCH   2   5
BRANCH   3  13
ATOM     13  C   UNL     1       4.779   3.472  19.321  0.00  0.00    +0.000 C 
BRANCH  13  14
ATOM     14  C   UNL     1       3.292   3.315  19.510  0.00  0.00    +0.000 A 
ATOM     15  C   UNL     1       2.750   3.163  20.794  0.00  0.00    +0.000 A 
ATOM     16  C   UNL     1       1.372   3.021  20.974  0.00  0.00    +0.000 A 
ATOM     17  C   UNL     1       0.522   3.026  19.870  0.00  0.00    +0.000 A 
ATOM     18  C   UNL     1       1.048   3.171  18.588  0.00  0.00    +0.000 A 
ATOM     19  C   UNL     1       2.427   3.311  18.406  0.00  0.00    +0.000 A 
ENDBRANCH  13  14
ENDBRANCH   3  13
TORSDOF 3
ENDMDL
MODEL 7
REMARK VINA RESULT:      -6.7      1.197      1.910
REMARK  Name = 
REMARK  3 active torsions:
REMARK  status: ('A' for Active; 'I' for Inactive)
REMARK    1  A    between atoms: C_2  and  C_11
REMARK    2  A    between atoms: N_3  and  C_4
REMARK    3  A    between atoms: C_4  and  C_5
REMARK                            x       y       z     vdW  Elec       q    Type
REMARK                         _______ _______ _______ _____ _____    ______ ____
ROOT
ATOM      1  O   UNL     1       6.121   4.014  18.526  0.00  0.00    +0.000 OA
ATOM      2  C   UNL     1       5.577   4.717  17.679  0.00  0.00    +0.000 C 
ATOM      3  N   UNL     1       4.524   5.547  17.965  0.00  0.00    +0.000 N 
ATOM      4  H   UNL     1       4.057   6.038  17.219  0.00  0.00    +0.000 HD
ENDROOT
BRANCH   2   5
ATOM      5  C   UNL     1       6.030   4.727  16.307  0.00  0.00    +0.000 A 
ATOM      6  C   UNL     1       7.070   5.377  15.651  0.00  0.00    +0.000 A 
ATOM      7  C   UNL     1       7.036   4.979  14.293  0.00  0.00    +0.000 A 
ATOM      8 BR   UNL     1       8.270   5.583  13.016  0.00  0.00    +0.000 Br
ATOM      9  C   UNL     1       5.986   4.116  14.133  0.00  0.00    +0.000 A 
ATOM     10 BR   UNL     1       5.432   3.267  12.571  0.00  0.00    +0.000 Br
ATOM     11  N   UNL     1       5.384   3.965  15.348  0.00  0.00    +0.000 N 
ATOM     12  H   UNL     1       4.584   3.376  15.543  0.00  0.00    +0.000 HD
ENDBRANCH   2   5
BRANCH   3  13
ATOM     13  C   UNL     1       3.962   5.632  19.294  0.00  0.00    +0.000 C 
BRANCH  13  14
ATOM     14  C   UNL     1       2.810   4.680  19.487  0.00  0.00    +0.000 A 
ATOM     15  C   UNL     1       2.183   4.087  18.381  0.00  0.00    +0.000 A 
ATOM     16  C   UNL     1       1.118   3.202  18.556  0.00  0.00    +0.000 A 
ATOM     17  C   UNL     1       0.664   2.903  19.839  0.00  0.00    +0.000 A 
ATOM     18  C   UNL     1       1.274   3.489  20.946  0.00  0.00    +0.000 A 
ATOM     19  C   UNL     1       2.339   4.377  20.773  0.00  0.00    +0.000 A 
ENDBRANCH  13  14
ENDBRANCH   3  13
TORSDOF 3
ENDMDL
MODEL 8
REMARK VINA RESULT:      -6.6      1.402      2.031
REMARK  Name = 
REMARK  3 active torsions:
REMARK  status: ('A' for Active; 'I' for Inactive)
REMARK    1  A    between atoms: C_2  and  C_11
REMARK    2  A    between atoms: N_3  and  C_4
REMARK    3  A    between atoms: C_4  and  C_5
REMARK                            x       y       z     vdW  Elec       q    Type
REMARK                         _______ _______ _______ _____ _____    ______ ____
ROOT
ATOM      1  O   UNL     1       4.955   5.778  17.989  0.00  0.00    +0.000 OA
ATOM      2  C   UNL     1       5.322   4.733  17.462  0.00  0.00    +0.000 C 
ATOM      3  N   UNL     1       5.253   3.517  18.093  0.00  0.00    +0.000 N 
ATOM      4  H   UNL     1       5.646   2.701  17.651  0.00  0.00    +0.000 HD
ENDROOT
BRANCH   2   5
ATOM      5  C   UNL     1       5.844   4.711  16.115  0.00  0.00    +0.000 A 
ATOM      6  C   UNL     1       6.934   5.321  15.506  0.00  0.00    +0.000 A 
ATOM      7  C   UNL     1       6.959   4.906  14.152  0.00  0.00    +0.000 A 
ATOM      8 BR   UNL     1       8.273   5.456  12.934  0.00  0.00    +0.000 Br
ATOM      9  C   UNL     1       5.892   4.072  13.949  0.00  0.00    +0.000 A 
ATOM     10 BR   UNL     1       5.393   3.219  12.372  0.00  0.00    +0.000 Br
ATOM     11  N   UNL     1       5.225   3.955  15.133  0.00  0.00    +0.000 N 
ATOM     12  H   UNL     1       4.399   3.393  15.294  0.00  0.00    +0.000 HD
ENDBRANCH   2   5
BRANCH   3  13
ATOM     13  C   UNL     1       4.760   3.389  19.446  0.00  0.00    +0.000 C 
BRANCH  13  14
ATOM     14  C   UNL     1       3.259   3.267  19.496  0.00  0.00    +0.000 A 
ATOM     15  C   UNL     1       2.587   2.393  18.629  0.00  0.00    +0.000 A 
ATOM     16  C   UNL     1       1.196   2.275  18.675  0.00  0.00    +0.000 A 
ATOM     17  C   UNL     1       0.462   3.031  19.586  0.00  0.00    +0.000 A 
ATOM     18  C   UNL     1       1.117   3.907  20.450  0.00  0.00    +0.000 A 
ATOM     19  C   UNL     1       2.508   4.029  20.403  0.00  0.00    +0.000 A 
ENDBRANCH  13  14
ENDBRANCH   3  13
TORSDOF 3
ENDMDL
MODEL 9
REMARK VINA RESULT:      -6.6      3.573      6.835
REMARK  Name = 
REMARK  3 active torsions:
REMARK  status: ('A' for Active; 'I' for Inactive)
REMARK    1  A    between atoms: C_2  and  C_11
REMARK    2  A    between atoms: N_3  and  C_4
REMARK    3  A    between atoms: C_4  and  C_5
REMARK                            x       y       z     vdW  Elec       q    Type
REMARK                         _______ _______ _______ _____ _____    ______ ____
ROOT
ATOM      1  O   UNL     1       7.241   4.356  18.401  0.00  0.00    +0.000 OA
ATOM      2  C   UNL     1       6.139   4.690  17.978  0.00  0.00    +0.000 C 
ATOM      3  N   UNL     1       5.950   5.217  16.726  0.00  0.00    +0.000 N 
ATOM      4  H   UNL     1       5.039   5.554  16.457  0.00  0.00    +0.000 HD
ENDROOT
BRANCH   2   5
ATOM      5  C   UNL     1       4.946   4.532  18.779  0.00  0.00    +0.000 A 
ATOM      6  C   UNL     1       4.337   3.434  19.375  0.00  0.00    +0.000 A 
ATOM      7  C   UNL     1       3.190   3.898  20.061  0.00  0.00    +0.000 A 
ATOM      8 BR   UNL     1       2.055   2.773  21.041  0.00  0.00    +0.000 Br
ATOM      9  C   UNL     1       3.103   5.251  19.869  0.00  0.00    +0.000 A 
ATOM     10 BR   UNL     1       1.805   6.417  20.518  0.00  0.00    +0.000 Br
ATOM     11  N   UNL     1       4.164   5.629  19.099  0.00  0.00    +0.000 N 
ATOM     12  H   UNL     1       4.372   6.574  18.802  0.00  0.00    +0.000 HD
ENDBRANCH   2   5
BRANCH   3  13
ATOM     13  C   UNL     1       7.054   5.439  15.820  0.00  0.00    +0.000 C 
BRANCH  13  14
ATOM     14  C   UNL     1       6.809   4.829  14.464  0.00  0.00    +0.000 A 
ATOM     15  C   UNL     1       5.735   3.950  14.262  0.00  0.00    +0.000 A 
ATOM     16  C   UNL     1       5.503   3.385  13.006  0.00  0.00    +0.000 A 
ATOM     17  C   UNL     1       6.345   3.691  11.939  0.00  0.00    +0.000 A 
ATOM     18  C   UNL     1       7.419   4.559  12.127  0.00  0.00    +0.000 A 
ATOM     19  C   UNL     1       7.654   5.123  13.383  0.00  0.00    +0.000 A 
ENDBRANCH  13  14
ENDBRANCH   3  13
TORSDOF 3
ENDMDL
