MODEL 1
REMARK VINA RESULT:      -6.7      0.000      0.000
REMARK  Name = 
REMARK  7 active torsions:
REMARK  status: ('A' for Active; 'I' for Inactive)
REMARK    1  A    between atoms: C_1  and  C_2
REMARK    2  A    between atoms: C_2  and  C_3
REMARK    3  A    between atoms: C_3  and  N_4
REMARK    4  A    between atoms: C_3  and  C_16
REMARK    5  A    between atoms: C_5  and  C_7
REMARK    6  A    between atoms: C_10  and  C_11
REMARK    7  A    between atoms: N_19  and  C_20
REMARK                            x       y       z     vdW  Elec       q    Type
REMARK                         _______ _______ _______ _____ _____    ______ ____
ROOT
ATOM      1  N   UNL     1       3.814   6.037  18.202  0.00  0.00    +0.000 N 
ATOM      2  C   UNL     1       5.125   5.617  18.216  0.00  0.00    +0.000 C 
ATOM      3  O   UNL     1       5.827   5.580  19.218  0.00  0.00    +0.000 OA
ATOM      4  H   UNL     1       3.369   6.266  17.326  0.00  0.00    +0.000 HD
ENDROOT
BRANCH   2   5
ATOM      5  C   UNL     1       5.675   5.212  16.910  0.00  0.00    +0.000 A 
ATOM      6  C   UNL     1       4.955   4.456  16.017  0.00  0.00    +0.000 A 
ATOM      7  N   UNL     1       5.444   4.047  14.818  0.00  0.00    +0.000 NA
ATOM      8  C   UNL     1       6.698   4.432  14.493  0.00  0.00    +0.000 A 
ATOM      9  N   UNL     1       7.462   5.197  15.302  0.00  0.00    +0.000 NA
ATOM     10  C   UNL     1       6.927   5.580  16.481  0.00  0.00    +0.000 A 
BRANCH   8  11
ATOM     11  C   UNL     1       7.299   3.974  13.186  0.00  0.00    +0.000 C 
ATOM     12  C   UNL     1       6.431   3.521  12.037  0.00  0.00    +0.000 C 
ATOM     13  C   UNL     1       7.140   4.840  11.954  0.00  0.00    +0.000 C 
ENDBRANCH   8  11
ENDBRANCH   2   5
BRANCH   1  14
ATOM     14  C   UNL     1       3.092   6.418  19.409  0.00  0.00    +0.000 C 
BRANCH  14  15
ATOM     15  C   UNL     1       2.357   5.193  19.867  0.00  0.00    +0.000 A 
ATOM     16  C   UNL     1       1.447   4.422  19.104  0.00  0.00    +0.000 A 
ATOM     17  N   UNL     1       0.960   3.378  19.777  0.00  0.00    +0.000 NA
ATOM     18  N   UNL     1       1.547   3.473  20.981  0.00  0.00    +0.000 N 
ATOM     19  C   UNL     1       1.263   2.491  21.999  0.00  0.00    +0.000 C 
ATOM     20  C   UNL     1       2.391   4.542  21.089  0.00  0.00    +0.000 A 
ENDBRANCH  14  15
BRANCH  14  22
ATOM     21  C   UNL     1       2.429   8.286  17.796  0.00  0.00    +0.000 C 
ATOM     22  C   UNL     1       2.168   7.616  19.140  0.00  0.00    +0.000 C 
ENDBRANCH  14  22
ENDBRANCH   1  14
TORSDOF 5
ENDMDL
MODEL 2
REMARK VINA RESULT:      -6.7      0.721      1.086
REMARK  Name = 
REMARK  7 active torsions:
REMARK  status: ('A' for Active; 'I' for Inactive)
REMARK    1  A    between atoms: C_1  and  C_2
REMARK    2  A    between atoms: C_2  and  C_3
REMARK    3  A    between atoms: C_3  and  N_4
REMARK    4  A    between atoms: C_3  and  C_16
REMARK    5  A    between atoms: C_5  and  C_7
REMARK    6  A    between atoms: C_10  and  C_11
REMARK    7  A    between atoms: N_19  and  C_20
REMARK                            x       y       z     vdW  Elec       q    Type
REMARK                         _______ _______ _______ _____ _____    ______ ____
ROOT
ATOM      1  N   UNL     1       3.858   6.145  18.139  0.00  0.00    +0.000 N 
ATOM      2  C   UNL     1       5.126   5.608  18.204  0.00  0.00    +0.000 C 
ATOM      3  O   UNL     1       5.721   5.367  19.245  0.00  0.00    +0.000 OA
ATOM      4  H   UNL     1       3.522   6.533  17.271  0.00  0.00    +0.000 HD
ENDROOT
BRANCH   2   5
ATOM      5  C   UNL     1       5.768   5.340  16.904  0.00  0.00    +0.000 A 
ATOM      6  C   UNL     1       5.183   4.542  15.951  0.00  0.00    +0.000 A 
ATOM      7  N   UNL     1       5.761   4.257  14.756  0.00  0.00    +0.000 NA
ATOM      8  C   UNL     1       6.966   4.814  14.498  0.00  0.00    +0.000 A 
ATOM      9  N   UNL     1       7.596   5.631  15.370  0.00  0.00    +0.000 NA
ATOM     10  C   UNL     1       6.976   5.886  16.542  0.00  0.00    +0.000 A 
BRANCH   8  11
ATOM     11  C   UNL     1       7.665   4.500  13.199  0.00  0.00    +0.000 C 
ATOM     12  C   UNL     1       6.921   3.900  12.030  0.00  0.00    +0.000 C 
ATOM     13  C   UNL     1       7.357   5.334  11.972  0.00  0.00    +0.000 C 
ENDBRANCH   8  11
ENDBRANCH   2   5
BRANCH   1  14
ATOM     14  C   UNL     1       3.053   6.418  19.322  0.00  0.00    +0.000 C 
BRANCH  14  15
ATOM     15  C   UNL     1       2.232   5.188  19.568  0.00  0.00    +0.000 A 
ATOM     16  C   UNL     1       1.611   4.820  20.787  0.00  0.00    +0.000 A 
ATOM     17  N   UNL     1       0.933   3.675  20.699  0.00  0.00    +0.000 NA
ATOM     18  N   UNL     1       1.119   3.291  19.426  0.00  0.00    +0.000 N 
ATOM     19  C   UNL     1       0.516   2.071  18.946  0.00  0.00    +0.000 C 
ATOM     20  C   UNL     1       1.889   4.160  18.706  0.00  0.00    +0.000 A 
ENDBRANCH  14  15
BRANCH  14  22
ATOM     21  C   UNL     1       2.456   8.374  17.791  0.00  0.00    +0.000 C 
ATOM     22  C   UNL     1       2.207   7.685  19.128  0.00  0.00    +0.000 C 
ENDBRANCH  14  22
ENDBRANCH   1  14
TORSDOF 5
ENDMDL
MODEL 3
REMARK VINA RESULT:      -6.6      0.118      1.028
REMARK  Name = 
REMARK  7 active torsions:
REMARK  status: ('A' for Active; 'I' for Inactive)
REMARK    1  A    between atoms: C_1  and  C_2
REMARK    2  A    between atoms: C_2  and  C_3
REMARK    3  A    between atoms: C_3  and  N_4
REMARK    4  A    between atoms: C_3  and  C_16
REMARK    5  A    between atoms: C_5  and  C_7
REMARK    6  A    between atoms: C_10  and  C_11
REMARK    7  A    between atoms: N_19  and  C_20
REMARK                            x       y       z     vdW  Elec       q    Type
REMARK                         _______ _______ _______ _____ _____    ______ ____
ROOT
ATOM      1  N   UNL     1       3.826   5.938  18.184  0.00  0.00    +0.000 N 
ATOM      2  C   UNL     1       5.155   5.579  18.227  0.00  0.00    +0.000 C 
ATOM      3  O   UNL     1       5.846   5.608  19.237  0.00  0.00    +0.000 OA
ATOM      4  H   UNL     1       3.383   6.116  17.295  0.00  0.00    +0.000 HD
ENDROOT
BRANCH   2   5
ATOM      5  C   UNL     1       5.740   5.155  16.941  0.00  0.00    +0.000 A 
ATOM      6  C   UNL     1       6.973   5.592  16.521  0.00  0.00    +0.000 A 
ATOM      7  N   UNL     1       7.525   5.239  15.332  0.00  0.00    +0.000 NA
ATOM      8  C   UNL     1       6.822   4.395  14.544  0.00  0.00    +0.000 A 
ATOM      9  N   UNL     1       5.616   3.900  14.895  0.00  0.00    +0.000 NA
ATOM     10  C   UNL     1       5.113   4.279  16.089  0.00  0.00    +0.000 A 
BRANCH   8  11
ATOM     11  C   UNL     1       7.378   4.001  13.198  0.00  0.00    +0.000 C 
ATOM     12  C   UNL     1       6.476   3.541  12.077  0.00  0.00    +0.000 C 
ATOM     13  C   UNL     1       7.121   4.892  12.000  0.00  0.00    +0.000 C 
ENDBRANCH   8  11
ENDBRANCH   2   5
BRANCH   1  14
ATOM     14  C   UNL     1       3.072   6.326  19.368  0.00  0.00    +0.000 C 
BRANCH  14  15
ATOM     15  C   UNL     1       2.346   5.098  19.829  0.00  0.00    +0.000 A 
ATOM     16  C   UNL     1       1.464   4.301  19.058  0.00  0.00    +0.000 A 
ATOM     17  N   UNL     1       0.978   3.261  19.737  0.00  0.00    +0.000 NA
ATOM     18  N   UNL     1       1.535   3.384  20.952  0.00  0.00    +0.000 N 
ATOM     19  C   UNL     1       1.244   2.413  21.979  0.00  0.00    +0.000 C 
ATOM     20  C   UNL     1       2.362   4.466  21.061  0.00  0.00    +0.000 A 
ENDBRANCH  14  15
BRANCH  14  22
ATOM     21  C   UNL     1       2.517   8.257  17.790  0.00  0.00    +0.000 C 
ATOM     22  C   UNL     1       2.138   7.506  19.061  0.00  0.00    +0.000 C 
ENDBRANCH  14  22
ENDBRANCH   1  14
TORSDOF 5
ENDMDL
MODEL 4
REMARK VINA RESULT:      -6.6      2.432      7.296
REMARK  Name = 
REMARK  7 active torsions:
REMARK  status: ('A' for Active; 'I' for Inactive)
REMARK    1  A    between atoms: C_1  and  C_2
REMARK    2  A    between atoms: C_2  and  C_3
REMARK    3  A    between atoms: C_3  and  N_4
REMARK    4  A    between atoms: C_3  and  C_16
REMARK    5  A    between atoms: C_5  and  C_7
REMARK    6  A    between atoms: C_10  and  C_11
REMARK    7  A    between atoms: N_19  and  C_20
REMARK                            x       y       z     vdW  Elec       q    Type
REMARK                         _______ _______ _______ _____ _____    ______ ____
ROOT
ATOM      1  N   UNL     1       3.364   5.484  17.744  0.00  0.00    +0.000 N 
ATOM      2  C   UNL     1       3.054   6.060  18.956  0.00  0.00    +0.000 C 
ATOM      3  O   UNL     1       3.241   5.528  20.042  0.00  0.00    +0.000 OA
ATOM      4  H   UNL     1       2.977   5.864  16.894  0.00  0.00    +0.000 HD
ENDROOT
BRANCH   2   5
ATOM      5  C   UNL     1       2.444   7.401  18.883  0.00  0.00    +0.000 A 
ATOM      6  C   UNL     1       2.508   8.171  17.748  0.00  0.00    +0.000 A 
ATOM      7  N   UNL     1       1.979   9.419  17.659  0.00  0.00    +0.000 NA
ATOM      8  C   UNL     1       1.339   9.902  18.747  0.00  0.00    +0.000 A 
ATOM      9  N   UNL     1       1.209   9.199  19.893  0.00  0.00    +0.000 NA
ATOM     10  C   UNL     1       1.749   7.962  19.927  0.00  0.00    +0.000 A 
BRANCH   8  11
ATOM     11  C   UNL     1       0.764  11.297  18.710  0.00  0.00    +0.000 C 
ATOM     12  C   UNL     1       0.741  12.172  19.940  0.00  0.00    +0.000 C 
ATOM     13  C   UNL     1       1.695  12.486  18.826  0.00  0.00    +0.000 C 
ENDBRANCH   8  11
ENDBRANCH   2   5
BRANCH   1  14
ATOM     14  C   UNL     1       4.024   4.190  17.629  0.00  0.00    +0.000 C 
BRANCH  14  15
ATOM     15  C   UNL     1       5.234   4.407  16.769  0.00  0.00    +0.000 A 
ATOM     16  C   UNL     1       6.569   4.558  17.216  0.00  0.00    +0.000 A 
ATOM     17  N   UNL     1       7.435   4.723  16.216  0.00  0.00    +0.000 NA
ATOM     18  N   UNL     1       6.664   4.689  15.117  0.00  0.00    +0.000 N 
ATOM     19  C   UNL     1       7.264   4.831  13.812  0.00  0.00    +0.000 C 
ATOM     20  C   UNL     1       5.339   4.503  15.392  0.00  0.00    +0.000 A 
ENDBRANCH  14  15
BRANCH  14  22
ATOM     21  C   UNL     1       2.206   2.470  18.142  0.00  0.00    +0.000 C 
ATOM     22  C   UNL     1       3.062   3.132  17.069  0.00  0.00    +0.000 C 
ENDBRANCH  14  22
ENDBRANCH   1  14
TORSDOF 5
ENDMDL
MODEL 5
REMARK VINA RESULT:      -6.4      2.451      7.481
REMARK  Name = 
REMARK  7 active torsions:
REMARK  status: ('A' for Active; 'I' for Inactive)
REMARK    1  A    between atoms: C_1  and  C_2
REMARK    2  A    between atoms: C_2  and  C_3
REMARK    3  A    between atoms: C_3  and  N_4
REMARK    4  A    between atoms: C_3  and  C_16
REMARK    5  A    between atoms: C_5  and  C_7
REMARK    6  A    between atoms: C_10  and  C_11
REMARK    7  A    between atoms: N_19  and  C_20
REMARK                            x       y       z     vdW  Elec       q    Type
REMARK                         _______ _______ _______ _____ _____    ______ ____
ROOT
ATOM      1  N   UNL     1       3.648   5.413  18.121  0.00  0.00    +0.000 N 
ATOM      2  C   UNL     1       3.098   5.662  19.359  0.00  0.00    +0.000 C 
ATOM      3  O   UNL     1       3.159   4.892  20.309  0.00  0.00    +0.000 OA
ATOM      4  H   UNL     1       3.367   5.968  17.327  0.00  0.00    +0.000 HD
ENDROOT
BRANCH   2   5
ATOM      5  C   UNL     1       2.389   6.947  19.492  0.00  0.00    +0.000 A 
ATOM      6  C   UNL     1       2.323   7.854  18.462  0.00  0.00    +0.000 A 
ATOM      7  N   UNL     1       1.698   9.056  18.563  0.00  0.00    +0.000 NA
ATOM      8  C   UNL     1       1.096   9.349  19.737  0.00  0.00    +0.000 A 
ATOM      9  N   UNL     1       1.092   8.501  20.789  0.00  0.00    +0.000 NA
ATOM     10  C   UNL     1       1.723   7.318  20.635  0.00  0.00    +0.000 A 
BRANCH   8  11
ATOM     11  C   UNL     1       0.419  10.686  19.910  0.00  0.00    +0.000 C 
ATOM     12  C   UNL     1       0.088  11.560  18.724  0.00  0.00    +0.000 C 
ATOM     13  C   UNL     1      -1.016  10.854  19.453  0.00  0.00    +0.000 C 
ENDBRANCH   8  11
ENDBRANCH   2   5
BRANCH   1  14
ATOM     14  C   UNL     1       4.432   4.221  17.828  0.00  0.00    +0.000 C 
BRANCH  14  15
ATOM     15  C   UNL     1       5.449   4.625  16.802  0.00  0.00    +0.000 A 
ATOM     16  C   UNL     1       6.564   5.474  17.010  0.00  0.00    +0.000 A 
ATOM     17  N   UNL     1       7.300   5.641  15.910  0.00  0.00    +0.000 NA
ATOM     18  N   UNL     1       6.662   4.908  14.984  0.00  0.00    +0.000 N 
ATOM     19  C   UNL     1       7.181   4.836  13.639  0.00  0.00    +0.000 C 
ATOM     20  C   UNL     1       5.548   4.280  15.465  0.00  0.00    +0.000 A 
ENDBRANCH  14  15
BRANCH  14  22
ATOM     21  C   UNL     1       3.509   1.894  18.337  0.00  0.00    +0.000 C 
ATOM     22  C   UNL     1       3.527   3.069  17.366  0.00  0.00    +0.000 C 
ENDBRANCH  14  22
ENDBRANCH   1  14
TORSDOF 5
ENDMDL
MODEL 6
REMARK VINA RESULT:      -6.4      2.443      7.474
REMARK  Name = 
REMARK  7 active torsions:
REMARK  status: ('A' for Active; 'I' for Inactive)
REMARK    1  A    between atoms: C_1  and  C_2
REMARK    2  A    between atoms: C_2  and  C_3
REMARK    3  A    between atoms: C_3  and  N_4
REMARK    4  A    between atoms: C_3  and  C_16
REMARK    5  A    between atoms: C_5  and  C_7
REMARK    6  A    between atoms: C_10  and  C_11
REMARK    7  A    between atoms: N_19  and  C_20
REMARK                            x       y       z     vdW  Elec       q    Type
REMARK                         _______ _______ _______ _____ _____    ______ ____
ROOT
ATOM      1  N   UNL     1       3.451   5.587  17.681  0.00  0.00    +0.000 N 
ATOM      2  C   UNL     1       3.125   6.038  18.941  0.00  0.00    +0.000 C 
ATOM      3  O   UNL     1       3.386   5.441  19.977  0.00  0.00    +0.000 OA
ATOM      4  H   UNL     1       3.010   5.997  16.872  0.00  0.00    +0.000 HD
ENDROOT
BRANCH   2   5
ATOM      5  C   UNL     1       2.402   7.322  18.988  0.00  0.00    +0.000 A 
ATOM      6  C   UNL     1       1.882   7.825  20.156  0.00  0.00    +0.000 A 
ATOM      7  N   UNL     1       1.190   8.991  20.226  0.00  0.00    +0.000 NA
ATOM      8  C   UNL     1       1.032   9.691  19.080  0.00  0.00    +0.000 A 
ATOM      9  N   UNL     1       1.534   9.280  17.896  0.00  0.00    +0.000 NA
ATOM     10  C   UNL     1       2.218   8.116  17.882  0.00  0.00    +0.000 A 
BRANCH   8  11
ATOM     11  C   UNL     1       0.240  10.975  19.100  0.00  0.00    +0.000 C 
ATOM     12  C   UNL     1      -1.012  11.141  18.272  0.00  0.00    +0.000 C 
ATOM     13  C   UNL     1      -1.123  10.995  19.760  0.00  0.00    +0.000 C 
ENDBRANCH   8  11
ENDBRANCH   2   5
BRANCH   1  14
ATOM     14  C   UNL     1       4.216   4.369  17.449  0.00  0.00    +0.000 C 
BRANCH  14  15
ATOM     15  C   UNL     1       5.324   4.738  16.508  0.00  0.00    +0.000 A 
ATOM     16  C   UNL     1       6.419   5.592  16.788  0.00  0.00    +0.000 A 
ATOM     17  N   UNL     1       7.253   5.721  15.756  0.00  0.00    +0.000 NA
ATOM     18  N   UNL     1       6.700   4.958  14.801  0.00  0.00    +0.000 N 
ATOM     19  C   UNL     1       7.339   4.841  13.512  0.00  0.00    +0.000 C 
ATOM     20  C   UNL     1       5.544   4.348  15.198  0.00  0.00    +0.000 A 
ENDBRANCH  14  15
BRANCH  14  22
ATOM     21  C   UNL     1       2.731   2.369  18.017  0.00  0.00    +0.000 C 
ATOM     22  C   UNL     1       3.312   3.248  16.915  0.00  0.00    +0.000 C 
ENDBRANCH  14  22
ENDBRANCH   1  14
TORSDOF 5
ENDMDL
MODEL 7
REMARK VINA RESULT:      -6.3      2.861      7.770
REMARK  Name = 
REMARK  7 active torsions:
REMARK  status: ('A' for Active; 'I' for Inactive)
REMARK    1  A    between atoms: C_1  and  C_2
REMARK    2  A    between atoms: C_2  and  C_3
REMARK    3  A    between atoms: C_3  and  N_4
REMARK    4  A    between atoms: C_3  and  C_16
REMARK    5  A    between atoms: C_5  and  C_7
REMARK    6  A    between atoms: C_10  and  C_11
REMARK    7  A    between atoms: N_19  and  C_20
REMARK                            x       y       z     vdW  Elec       q    Type
REMARK                         _______ _______ _______ _____ _____    ______ ____
ROOT
ATOM      1  N   UNL     1       2.881   5.833  18.169  0.00  0.00    +0.000 N 
ATOM      2  C   UNL     1       2.612   6.151  19.482  0.00  0.00    +0.000 C 
ATOM      3  O   UNL     1       2.855   5.419  20.432  0.00  0.00    +0.000 OA
ATOM      4  H   UNL     1       2.451   6.364  17.426  0.00  0.00    +0.000 HD
ENDROOT
BRANCH   2   5
ATOM      5  C   UNL     1       1.977   7.463  19.700  0.00  0.00    +0.000 A 
ATOM      6  C   UNL     1       1.433   7.819  20.910  0.00  0.00    +0.000 A 
ATOM      7  N   UNL     1       0.820   9.010  21.133  0.00  0.00    +0.000 NA
ATOM      8  C   UNL     1       0.771   9.888  20.107  0.00  0.00    +0.000 A 
ATOM      9  N   UNL     1       1.305   9.626  18.894  0.00  0.00    +0.000 NA
ATOM     10  C   UNL     1       1.907   8.430  18.726  0.00  0.00    +0.000 A 
BRANCH   8  11
ATOM     11  C   UNL     1       0.070  11.211  20.295  0.00  0.00    +0.000 C 
ATOM     12  C   UNL     1      -0.227  11.755  21.672  0.00  0.00    +0.000 C 
ATOM     13  C   UNL     1       0.848  12.390  20.841  0.00  0.00    +0.000 C 
ENDBRANCH   8  11
ENDBRANCH   2   5
BRANCH   1  14
ATOM     14  C   UNL     1       3.557   4.605  17.774  0.00  0.00    +0.000 C 
BRANCH  14  15
ATOM     15  C   UNL     1       4.546   4.988  16.713  0.00  0.00    +0.000 A 
ATOM     16  C   UNL     1       4.975   6.300  16.396  0.00  0.00    +0.000 A 
ATOM     17  N   UNL     1       5.874   6.328  15.412  0.00  0.00    +0.000 NA
ATOM     18  N   UNL     1       6.026   5.036  15.081  0.00  0.00    +0.000 N 
ATOM     19  C   UNL     1       6.946   4.663  14.034  0.00  0.00    +0.000 C 
ATOM     20  C   UNL     1       5.253   4.192  15.828  0.00  0.00    +0.000 A 
ENDBRANCH  14  15
BRANCH  14  22
ATOM     21  C   UNL     1       2.802   2.168  17.903  0.00  0.00    +0.000 C 
ATOM     22  C   UNL     1       2.545   3.547  17.309  0.00  0.00    +0.000 C 
ENDBRANCH  14  22
ENDBRANCH   1  14
TORSDOF 5
ENDMDL
MODEL 8
REMARK VINA RESULT:      -6.3      0.901      1.275
REMARK  Name = 
REMARK  7 active torsions:
REMARK  status: ('A' for Active; 'I' for Inactive)
REMARK    1  A    between atoms: C_1  and  C_2
REMARK    2  A    between atoms: C_2  and  C_3
REMARK    3  A    between atoms: C_3  and  N_4
REMARK    4  A    between atoms: C_3  and  C_16
REMARK    5  A    between atoms: C_5  and  C_7
REMARK    6  A    between atoms: C_10  and  C_11
REMARK    7  A    between atoms: N_19  and  C_20
REMARK                            x       y       z     vdW  Elec       q    Type
REMARK                         _______ _______ _______ _____ _____    ______ ____
ROOT
ATOM      1  N   UNL     1       3.594   5.928  18.226  0.00  0.00    +0.000 N 
ATOM      2  C   UNL     1       4.888   5.476  18.089  0.00  0.00    +0.000 C 
ATOM      3  O   UNL     1       5.688   5.383  19.010  0.00  0.00    +0.000 OA
ATOM      4  H   UNL     1       3.068   6.200  17.409  0.00  0.00    +0.000 HD
ENDROOT
BRANCH   2   5
ATOM      5  C   UNL     1       5.289   5.107  16.719  0.00  0.00    +0.000 A 
ATOM      6  C   UNL     1       5.393   6.037  15.714  0.00  0.00    +0.000 A 
ATOM      7  N   UNL     1       5.736   5.723  14.437  0.00  0.00    +0.000 NA
ATOM      8  C   UNL     1       6.007   4.427  14.166  0.00  0.00    +0.000 A 
ATOM      9  N   UNL     1       5.954   3.456  15.103  0.00  0.00    +0.000 NA
ATOM     10  C   UNL     1       5.612   3.822  16.357  0.00  0.00    +0.000 A 
BRANCH   8  11
ATOM     11  C   UNL     1       6.359   4.023  12.755  0.00  0.00    +0.000 C 
ATOM     12  C   UNL     1       6.317   2.579  12.316  0.00  0.00    +0.000 C 
ATOM     13  C   UNL     1       5.264   3.531  11.831  0.00  0.00    +0.000 C 
ENDBRANCH   8  11
ENDBRANCH   2   5
BRANCH   1  14
ATOM     14  C   UNL     1       3.011   6.280  19.514  0.00  0.00    +0.000 C 
BRANCH  14  15
ATOM     15  C   UNL     1       2.285   5.060  19.998  0.00  0.00    +0.000 A 
ATOM     16  C   UNL     1       1.331   4.305  19.274  0.00  0.00    +0.000 A 
ATOM     17  N   UNL     1       0.864   3.262  19.962  0.00  0.00    +0.000 NA
ATOM     18  N   UNL     1       1.509   3.341  21.138  0.00  0.00    +0.000 N 
ATOM     19  C   UNL     1       1.263   2.354  22.162  0.00  0.00    +0.000 C 
ATOM     20  C   UNL     1       2.370   4.399  21.212  0.00  0.00    +0.000 A 
ENDBRANCH  14  15
BRANCH  14  22
ATOM     21  C   UNL     1       1.555   7.996  20.723  0.00  0.00    +0.000 C 
ATOM     22  C   UNL     1       2.106   7.515  19.386  0.00  0.00    +0.000 C 
ENDBRANCH  14  22
ENDBRANCH   1  14
TORSDOF 5
ENDMDL
MODEL 9
REMARK VINA RESULT:      -6.3      0.838      1.600
REMARK  Name = 
REMARK  7 active torsions:
REMARK  status: ('A' for Active; 'I' for Inactive)
REMARK    1  A    between atoms: C_1  and  C_2
REMARK    2  A    between atoms: C_2  and  C_3
REMARK    3  A    between atoms: C_3  and  N_4
REMARK    4  A    between atoms: C_3  and  C_16
REMARK    5  A    between atoms: C_5  and  C_7
REMARK    6  A    between atoms: C_10  and  C_11
REMARK    7  A    between atoms: N_19  and  C_20
REMARK                            x       y       z     vdW  Elec       q    Type
REMARK                         _______ _______ _______ _____ _____    ______ ____
ROOT
ATOM      1  N   UNL     1       3.857   6.298  18.012  0.00  0.00    +0.000 N 
ATOM      2  C   UNL     1       5.027   5.586  18.152  0.00  0.00    +0.000 C 
ATOM      3  O   UNL     1       5.483   5.211  19.224  0.00  0.00    +0.000 OA
ATOM      4  H   UNL     1       3.660   6.773  17.144  0.00  0.00    +0.000 HD
ENDROOT
BRANCH   2   5
ATOM      5  C   UNL     1       5.747   5.295  16.899  0.00  0.00    +0.000 A 
ATOM      6  C   UNL     1       6.921   5.928  16.567  0.00  0.00    +0.000 A 
ATOM      7  N   UNL     1       7.593   5.699  15.410  0.00  0.00    +0.000 NA
ATOM      8  C   UNL     1       7.077   4.782  14.561  0.00  0.00    +0.000 A 
ATOM      9  N   UNL     1       5.943   4.098  14.823  0.00  0.00    +0.000 NA
ATOM     10  C   UNL     1       5.316   4.359  15.990  0.00  0.00    +0.000 A 
BRANCH   8  11
ATOM     11  C   UNL     1       7.768   4.519  13.246  0.00  0.00    +0.000 C 
ATOM     12  C   UNL     1       7.000   4.053  12.032  0.00  0.00    +0.000 C 
ATOM     13  C   UNL     1       7.527   5.456  12.081  0.00  0.00    +0.000 C 
ENDBRANCH   8  11
ENDBRANCH   2   5
BRANCH   1  14
ATOM     14  C   UNL     1       2.989   6.623  19.135  0.00  0.00    +0.000 C 
BRANCH  14  15
ATOM     15  C   UNL     1       2.223   5.373  19.453  0.00  0.00    +0.000 A 
ATOM     16  C   UNL     1       1.742   4.981  20.726  0.00  0.00    +0.000 A 
ATOM     17  N   UNL     1       1.082   3.822  20.697  0.00  0.00    +0.000 NA
ATOM     18  N   UNL     1       1.139   3.455  19.407  0.00  0.00    +0.000 N 
ATOM     19  C   UNL     1       0.513   2.227  18.980  0.00  0.00    +0.000 C 
ATOM     20  C   UNL     1       1.811   4.347  18.620  0.00  0.00    +0.000 A 
ENDBRANCH  14  15
BRANCH  14  22
ATOM     21  C   UNL     1       1.533   8.518  20.039  0.00  0.00    +0.000 C 
ATOM     22  C   UNL     1       2.086   7.821  18.802  0.00  0.00    +0.000 C 
ENDBRANCH  14  22
ENDBRANCH   1  14
TORSDOF 5
ENDMDL
