MODEL 1
REMARK VINA RESULT:      -8.4      0.000      0.000
REMARK  Name = 
REMARK  3 active torsions:
REMARK  status: ('A' for Active; 'I' for Inactive)
REMARK    1  A    between atoms: N_2  and  C_4
REMARK    2  A    between atoms: N_11  and  S_12
REMARK    3  A    between atoms: S_12  and  C_15
REMARK                            x       y       z     vdW  Elec       q    Type
REMARK                         _______ _______ _______ _____ _____    ______ ____
ROOT
ATOM      1  C   UNL     1       6.959   4.789  14.353  0.00  0.00    +0.000 A 
ATOM      2  C   UNL     1       5.626   4.383  14.449  0.00  0.00    +0.000 A 
ATOM      3  C   UNL     1       5.040   4.145  15.701  0.00  0.00    +0.000 A 
ATOM      4  C   UNL     1       5.825   4.325  16.857  0.00  0.00    +0.000 A 
ATOM      5  C   UNL     1       7.148   4.771  16.764  0.00  0.00    +0.000 A 
ATOM      6  C   UNL     1       7.596   4.890  18.094  0.00  0.00    +0.000 A 
ATOM      7  N   UNL     1       6.667   4.554  18.985  0.00  0.00    +0.000 NA
ATOM      8  N   UNL     1       5.614   4.128  18.220  0.00  0.00    +0.000 N 
ATOM      9  C   UNL     1       7.734   4.999  15.503  0.00  0.00    +0.000 A 
ENDROOT
BRANCH   1  11
ATOM     10  O   UNL     1       7.120   4.336  12.081  0.00  0.00    +0.000 OA
ATOM     11  N   UNL     1       7.564   4.998  13.030  0.00  0.00    +0.000 N 
ATOM     12  O   UNL     1       8.485   5.822  12.942  0.00  0.00    +0.000 OA
ENDBRANCH   1  11
BRANCH   8  13
ATOM     13  S   UNL     1       4.210   3.363  18.913  0.00  0.00    +0.000 S 
ATOM     14  O   UNL     1       3.490   2.722  17.828  0.00  0.00    +0.000 OA
ATOM     15  O   UNL     1       4.695   2.608  20.055  0.00  0.00    +0.000 OA
BRANCH  13  16
ATOM     16  C   UNL     1       3.216   4.702  19.519  0.00  0.00    +0.000 A 
ATOM     17  C   UNL     1       3.363   5.978  18.960  0.00  0.00    +0.000 A 
ATOM     18  C   UNL     1       2.596   7.038  19.446  0.00  0.00    +0.000 A 
ATOM     19  C   UNL     1       1.682   6.819  20.478  0.00  0.00    +0.000 A 
ATOM     20 CL   UNL     1       0.769   8.136  21.103  0.00  0.00    +0.000 Cl
ATOM     21  C   UNL     1       1.507   5.540  21.008  0.00  0.00    +0.000 A 
ATOM     22  C   UNL     1       2.268   4.473  20.522  0.00  0.00    +0.000 A 
ENDBRANCH  13  16
ENDBRANCH   8  13
TORSDOF 3
ENDMDL
MODEL 2
REMARK VINA RESULT:      -8.3      0.169      1.234
REMARK  Name = 
REMARK  3 active torsions:
REMARK  status: ('A' for Active; 'I' for Inactive)
REMARK    1  A    between atoms: N_2  and  C_4
REMARK    2  A    between atoms: N_11  and  S_12
REMARK    3  A    between atoms: S_12  and  C_15
REMARK                            x       y       z     vdW  Elec       q    Type
REMARK                         _______ _______ _______ _____ _____    ______ ____
ROOT
ATOM      1  C   UNL     1       6.897   4.751  14.193  0.00  0.00    +0.000 A 
ATOM      2  C   UNL     1       5.563   4.361  14.324  0.00  0.00    +0.000 A 
ATOM      3  C   UNL     1       5.007   4.127  15.591  0.00  0.00    +0.000 A 
ATOM      4  C   UNL     1       5.825   4.294  16.726  0.00  0.00    +0.000 A 
ATOM      5  C   UNL     1       7.151   4.725  16.598  0.00  0.00    +0.000 A 
ATOM      6  C   UNL     1       7.637   4.833  17.916  0.00  0.00    +0.000 A 
ATOM      7  N   UNL     1       6.728   4.507  18.830  0.00  0.00    +0.000 NA
ATOM      8  N   UNL     1       5.649   4.096  18.094  0.00  0.00    +0.000 N 
ATOM      9  C   UNL     1       7.706   4.949  15.322  0.00  0.00    +0.000 A 
ENDROOT
BRANCH   1  11
ATOM     10  O   UNL     1       8.267   5.892  12.705  0.00  0.00    +0.000 OA
ATOM     11  N   UNL     1       7.470   4.956  12.855  0.00  0.00    +0.000 N 
ATOM     12  O   UNL     1       7.118   4.181  11.955  0.00  0.00    +0.000 OA
ENDBRANCH   1  11
BRANCH   8  13
ATOM     13  S   UNL     1       4.255   3.347  18.822  0.00  0.00    +0.000 S 
ATOM     14  O   UNL     1       3.505   2.707  17.757  0.00  0.00    +0.000 OA
ATOM     15  O   UNL     1       4.759   2.592  19.956  0.00  0.00    +0.000 OA
BRANCH  13  16
ATOM     16  C   UNL     1       3.286   4.697  19.445  0.00  0.00    +0.000 A 
ATOM     17  C   UNL     1       2.492   4.507  20.582  0.00  0.00    +0.000 A 
ATOM     18  C   UNL     1       1.714   5.561  21.065  0.00  0.00    +0.000 A 
ATOM     19  C   UNL     1       1.740   6.797  20.419  0.00  0.00    +0.000 A 
ATOM     20 CL   UNL     1       0.748   8.081  20.991  0.00  0.00    +0.000 Cl
ATOM     21  C   UNL     1       2.562   6.998  19.309  0.00  0.00    +0.000 A 
ATOM     22  C   UNL     1       3.347   5.949  18.824  0.00  0.00    +0.000 A 
ENDBRANCH  13  16
ENDBRANCH   8  13
TORSDOF 3
ENDMDL
MODEL 3
REMARK VINA RESULT:      -7.8      3.658      7.095
REMARK  Name = 
REMARK  3 active torsions:
REMARK  status: ('A' for Active; 'I' for Inactive)
REMARK    1  A    between atoms: N_2  and  C_4
REMARK    2  A    between atoms: N_11  and  S_12
REMARK    3  A    between atoms: S_12  and  C_15
REMARK                            x       y       z     vdW  Elec       q    Type
REMARK                         _______ _______ _______ _____ _____    ______ ____
ROOT
ATOM      1  C   UNL     1       2.907   3.842  20.049  0.00  0.00    +0.000 A 
ATOM      2  C   UNL     1       4.189   3.304  19.916  0.00  0.00    +0.000 A 
ATOM      3  C   UNL     1       5.156   3.946  19.129  0.00  0.00    +0.000 A 
ATOM      4  C   UNL     1       4.805   5.144  18.476  0.00  0.00    +0.000 A 
ATOM      5  C   UNL     1       3.534   5.705  18.642  0.00  0.00    +0.000 A 
ATOM      6  C   UNL     1       3.557   6.906  17.903  0.00  0.00    +0.000 A 
ATOM      7  N   UNL     1       4.725   7.122  17.305  0.00  0.00    +0.000 NA
ATOM      8  N   UNL     1       5.456   5.999  17.589  0.00  0.00    +0.000 N 
ATOM      9  C   UNL     1       2.563   5.051  19.426  0.00  0.00    +0.000 A 
ENDROOT
BRANCH   1  11
ATOM     10  O   UNL     1       2.261   2.631  21.922  0.00  0.00    +0.000 OA
ATOM     11  N   UNL     1       1.898   3.134  20.849  0.00  0.00    +0.000 N 
ATOM     12  O   UNL     1       0.744   3.079  20.402  0.00  0.00    +0.000 OA
ENDBRANCH   1  11
BRANCH   8  13
ATOM     13  S   UNL     1       6.998   5.679  16.844  0.00  0.00    +0.000 S 
ATOM     14  O   UNL     1       7.607   6.963  16.546  0.00  0.00    +0.000 OA
ATOM     15  O   UNL     1       7.656   4.707  17.698  0.00  0.00    +0.000 OA
BRANCH  13  16
ATOM     16  C   UNL     1       6.605   4.886  15.306  0.00  0.00    +0.000 A 
ATOM     17  C   UNL     1       5.408   4.168  15.188  0.00  0.00    +0.000 A 
ATOM     18  C   UNL     1       5.103   3.526  13.986  0.00  0.00    +0.000 A 
ATOM     19  C   UNL     1       5.985   3.613  12.908  0.00  0.00    +0.000 A 
ATOM     20 CL   UNL     1       5.627   2.787  11.443  0.00  0.00    +0.000 Cl
ATOM     21  C   UNL     1       7.158   4.362  13.013  0.00  0.00    +0.000 A 
ATOM     22  C   UNL     1       7.467   5.011  14.212  0.00  0.00    +0.000 A 
ENDBRANCH  13  16
ENDBRANCH   8  13
TORSDOF 3
ENDMDL
MODEL 4
REMARK VINA RESULT:      -7.6      3.699      6.986
REMARK  Name = 
REMARK  3 active torsions:
REMARK  status: ('A' for Active; 'I' for Inactive)
REMARK    1  A    between atoms: N_2  and  C_4
REMARK    2  A    between atoms: N_11  and  S_12
REMARK    3  A    between atoms: S_12  and  C_15
REMARK                            x       y       z     vdW  Elec       q    Type
REMARK                         _______ _______ _______ _____ _____    ______ ____
ROOT
ATOM      1  C   UNL     1       2.579   3.798  19.925  0.00  0.00    +0.000 A 
ATOM      2  C   UNL     1       3.896   3.337  19.850  0.00  0.00    +0.000 A 
ATOM      3  C   UNL     1       4.873   4.075  19.165  0.00  0.00    +0.000 A 
ATOM      4  C   UNL     1       4.496   5.288  18.556  0.00  0.00    +0.000 A 
ATOM      5  C   UNL     1       3.187   5.770  18.666  0.00  0.00    +0.000 A 
ATOM      6  C   UNL     1       3.189   7.010  17.997  0.00  0.00    +0.000 A 
ATOM      7  N   UNL     1       4.378   7.323  17.491  0.00  0.00    +0.000 NA
ATOM      8  N   UNL     1       5.153   6.226  17.762  0.00  0.00    +0.000 N 
ATOM      9  C   UNL     1       2.207   5.020  19.347  0.00  0.00    +0.000 A 
ENDROOT
BRANCH   1  11
ATOM     10  O   UNL     1       0.512   2.743  20.009  0.00  0.00    +0.000 OA
ATOM     11  N   UNL     1       1.563   2.991  20.617  0.00  0.00    +0.000 N 
ATOM     12  O   UNL     1       1.817   2.609  21.767  0.00  0.00    +0.000 OA
ENDBRANCH   1  11
BRANCH   8  13
ATOM     13  S   UNL     1       6.755   6.034  17.107  0.00  0.00    +0.000 S 
ATOM     14  O   UNL     1       7.242   7.357  16.763  0.00  0.00    +0.000 OA
ATOM     15  O   UNL     1       7.466   5.183  18.045  0.00  0.00    +0.000 OA
BRANCH  13  16
ATOM     16  C   UNL     1       6.524   5.123  15.602  0.00  0.00    +0.000 A 
ATOM     17  C   UNL     1       7.437   5.286  14.552  0.00  0.00    +0.000 A 
ATOM     18  C   UNL     1       7.249   4.585  13.359  0.00  0.00    +0.000 A 
ATOM     19  C   UNL     1       6.161   3.722  13.223  0.00  0.00    +0.000 A 
ATOM     20 CL   UNL     1       5.909   2.894  11.737  0.00  0.00    +0.000 Cl
ATOM     21  C   UNL     1       5.274   3.530  14.283  0.00  0.00    +0.000 A 
ATOM     22  C   UNL     1       5.459   4.224  15.482  0.00  0.00    +0.000 A 
ENDBRANCH  13  16
ENDBRANCH   8  13
TORSDOF 3
ENDMDL
MODEL 5
REMARK VINA RESULT:      -7.5      1.572      1.842
REMARK  Name = 
REMARK  3 active torsions:
REMARK  status: ('A' for Active; 'I' for Inactive)
REMARK    1  A    between atoms: N_2  and  C_4
REMARK    2  A    between atoms: N_11  and  S_12
REMARK    3  A    between atoms: S_12  and  C_15
REMARK                            x       y       z     vdW  Elec       q    Type
REMARK                         _______ _______ _______ _____ _____    ______ ____
ROOT
ATOM      1  C   UNL     1       6.585   5.066  15.112  0.00  0.00    +0.000 A 
ATOM      2  C   UNL     1       5.191   5.139  15.067  0.00  0.00    +0.000 A 
ATOM      3  C   UNL     1       4.440   5.202  16.250  0.00  0.00    +0.000 A 
ATOM      4  C   UNL     1       5.123   5.190  17.483  0.00  0.00    +0.000 A 
ATOM      5  C   UNL     1       6.521   5.158  17.527  0.00  0.00    +0.000 A 
ATOM      6  C   UNL     1       6.852   5.213  18.896  0.00  0.00    +0.000 A 
ATOM      7  N   UNL     1       5.783   5.274  19.684  0.00  0.00    +0.000 NA
ATOM      8  N   UNL     1       4.726   5.173  18.818  0.00  0.00    +0.000 N 
ATOM      9  C   UNL     1       7.270   5.085  16.336  0.00  0.00    +0.000 A 
ENDROOT
BRANCH   1  11
ATOM     10  O   UNL     1       6.972   4.137  13.019  0.00  0.00    +0.000 OA
ATOM     11  N   UNL     1       7.350   4.963  13.861  0.00  0.00    +0.000 N 
ATOM     12  O   UNL     1       8.330   5.708  13.724  0.00  0.00    +0.000 OA
ENDBRANCH   1  11
BRANCH   8  13
ATOM     13  S   UNL     1       3.086   4.976  19.370  0.00  0.00    +0.000 S 
ATOM     14  O   UNL     1       2.383   4.203  18.363  0.00  0.00    +0.000 OA
ATOM     15  O   UNL     1       3.183   4.521  20.746  0.00  0.00    +0.000 OA
BRANCH  13  16
ATOM     16  C   UNL     1       2.409   6.617  19.378  0.00  0.00    +0.000 A 
ATOM     17  C   UNL     1       2.423   7.373  18.200  0.00  0.00    +0.000 A 
ATOM     18  C   UNL     1       1.908   8.671  18.206  0.00  0.00    +0.000 A 
ATOM     19  C   UNL     1       1.375   9.202  19.381  0.00  0.00    +0.000 A 
ATOM     20 CL   UNL     1       0.780  10.816  19.396  0.00  0.00    +0.000 Cl
ATOM     21  C   UNL     1       1.324   8.434  20.545  0.00  0.00    +0.000 A 
ATOM     22  C   UNL     1       1.833   7.132  20.544  0.00  0.00    +0.000 A 
ENDBRANCH  13  16
ENDBRANCH   8  13
TORSDOF 3
ENDMDL
MODEL 6
REMARK VINA RESULT:      -7.4      3.983      6.806
REMARK  Name = 
REMARK  3 active torsions:
REMARK  status: ('A' for Active; 'I' for Inactive)
REMARK    1  A    between atoms: N_2  and  C_4
REMARK    2  A    between atoms: N_11  and  S_12
REMARK    3  A    between atoms: S_12  and  C_15
REMARK                            x       y       z     vdW  Elec       q    Type
REMARK                         _______ _______ _______ _____ _____    ______ ____
ROOT
ATOM      1  C   UNL     1       2.641   7.572  18.755  0.00  0.00    +0.000 A 
ATOM      2  C   UNL     1       3.358   7.914  17.606  0.00  0.00    +0.000 A 
ATOM      3  C   UNL     1       4.453   7.142  17.191  0.00  0.00    +0.000 A 
ATOM      4  C   UNL     1       4.812   6.016  17.958  0.00  0.00    +0.000 A 
ATOM      5  C   UNL     1       4.069   5.649  19.086  0.00  0.00    +0.000 A 
ATOM      6  C   UNL     1       4.670   4.466  19.561  0.00  0.00    +0.000 A 
ATOM      7  N   UNL     1       5.710   4.084  18.825  0.00  0.00    +0.000 NA
ATOM      8  N   UNL     1       5.845   5.082  17.897  0.00  0.00    +0.000 N 
ATOM      9  C   UNL     1       2.976   6.434  19.504  0.00  0.00    +0.000 A 
ENDROOT
BRANCH   1  11
ATOM     10  O   UNL     1       0.983   9.146  18.347  0.00  0.00    +0.000 OA
ATOM     11  N   UNL     1       1.520   8.416  19.192  0.00  0.00    +0.000 N 
ATOM     12  O   UNL     1       1.179   8.348  20.381  0.00  0.00    +0.000 OA
ENDBRANCH   1  11
BRANCH   8  13
ATOM     13  S   UNL     1       7.212   5.174  16.821  0.00  0.00    +0.000 S 
ATOM     14  O   UNL     1       7.558   6.577  16.684  0.00  0.00    +0.000 OA
ATOM     15  O   UNL     1       8.169   4.200  17.314  0.00  0.00    +0.000 OA
BRANCH  13  16
ATOM     16  C   UNL     1       6.599   4.602  15.257  0.00  0.00    +0.000 A 
ATOM     17  C   UNL     1       5.322   4.033  15.185  0.00  0.00    +0.000 A 
ATOM     18  C   UNL     1       4.843   3.565  13.959  0.00  0.00    +0.000 A 
ATOM     19  C   UNL     1       5.634   3.676  12.815  0.00  0.00    +0.000 A 
ATOM     20 CL   UNL     1       5.058   3.060  11.316  0.00  0.00    +0.000 Cl
ATOM     21  C   UNL     1       6.890   4.279  12.880  0.00  0.00    +0.000 A 
ATOM     22  C   UNL     1       7.374   4.754  14.102  0.00  0.00    +0.000 A 
ENDBRANCH  13  16
ENDBRANCH   8  13
TORSDOF 3
ENDMDL
MODEL 7
REMARK VINA RESULT:      -7.4      1.557      2.050
REMARK  Name = 
REMARK  3 active torsions:
REMARK  status: ('A' for Active; 'I' for Inactive)
REMARK    1  A    between atoms: N_2  and  C_4
REMARK    2  A    between atoms: N_11  and  S_12
REMARK    3  A    between atoms: S_12  and  C_15
REMARK                            x       y       z     vdW  Elec       q    Type
REMARK                         _______ _______ _______ _____ _____    ______ ____
ROOT
ATOM      1  C   UNL     1       6.541   4.912  15.090  0.00  0.00    +0.000 A 
ATOM      2  C   UNL     1       5.146   4.974  15.059  0.00  0.00    +0.000 A 
ATOM      3  C   UNL     1       4.408   5.080  16.247  0.00  0.00    +0.000 A 
ATOM      4  C   UNL     1       5.105   5.124  17.471  0.00  0.00    +0.000 A 
ATOM      5  C   UNL     1       6.504   5.103  17.500  0.00  0.00    +0.000 A 
ATOM      6  C   UNL     1       6.850   5.217  18.862  0.00  0.00    +0.000 A 
ATOM      7  N   UNL     1       5.789   5.302  19.659  0.00  0.00    +0.000 NA
ATOM      8  N   UNL     1       4.724   5.159  18.810  0.00  0.00    +0.000 N 
ATOM      9  C   UNL     1       7.240   4.986  16.304  0.00  0.00    +0.000 A 
ENDROOT
BRANCH   1  11
ATOM     10  O   UNL     1       6.893   3.922  13.020  0.00  0.00    +0.000 OA
ATOM     11  N   UNL     1       7.292   4.764  13.836  0.00  0.00    +0.000 N 
ATOM     12  O   UNL     1       8.283   5.489  13.670  0.00  0.00    +0.000 OA
ENDBRANCH   1  11
BRANCH   8  13
ATOM     13  S   UNL     1       3.091   4.973  19.389  0.00  0.00    +0.000 S 
ATOM     14  O   UNL     1       2.371   4.189  18.402  0.00  0.00    +0.000 OA
ATOM     15  O   UNL     1       3.208   4.535  20.768  0.00  0.00    +0.000 OA
BRANCH  13  16
ATOM     16  C   UNL     1       2.418   6.615  19.387  0.00  0.00    +0.000 A 
ATOM     17  C   UNL     1       1.833   7.121  20.554  0.00  0.00    +0.000 A 
ATOM     18  C   UNL     1       1.286   8.406  20.551  0.00  0.00    +0.000 A 
ATOM     19  C   UNL     1       1.334   9.179  19.392  0.00  0.00    +0.000 A 
ATOM     20 CL   UNL     1       0.621  10.745  19.380  0.00  0.00    +0.000 Cl
ATOM     21  C   UNL     1       1.952   8.690  18.240  0.00  0.00    +0.000 A 
ATOM     22  C   UNL     1       2.507   7.407  18.237  0.00  0.00    +0.000 A 
ENDBRANCH  13  16
ENDBRANCH   8  13
TORSDOF 3
ENDMDL
MODEL 8
REMARK VINA RESULT:      -7.3      3.717      6.786
REMARK  Name = 
REMARK  3 active torsions:
REMARK  status: ('A' for Active; 'I' for Inactive)
REMARK    1  A    between atoms: N_2  and  C_4
REMARK    2  A    between atoms: N_11  and  S_12
REMARK    3  A    between atoms: S_12  and  C_15
REMARK                            x       y       z     vdW  Elec       q    Type
REMARK                         _______ _______ _______ _____ _____    ______ ____
ROOT
ATOM      1  C   UNL     1       1.497   7.830  20.531  0.00  0.00    +0.000 A 
ATOM      2  C   UNL     1       2.146   7.822  19.294  0.00  0.00    +0.000 A 
ATOM      3  C   UNL     1       2.566   6.615  18.716  0.00  0.00    +0.000 A 
ATOM      4  C   UNL     1       2.318   5.414  19.410  0.00  0.00    +0.000 A 
ATOM      5  C   UNL     1       1.632   5.418  20.630  0.00  0.00    +0.000 A 
ATOM      6  C   UNL     1       1.518   4.063  20.998  0.00  0.00    +0.000 A 
ATOM      7  N   UNL     1       2.074   3.239  20.115  0.00  0.00    +0.000 NA
ATOM      8  N   UNL     1       2.637   4.075  19.189  0.00  0.00    +0.000 N 
ATOM      9  C   UNL     1       1.221   6.635  21.210  0.00  0.00    +0.000 A 
ENDROOT
BRANCH   1  11
ATOM     10  O   UNL     1       1.589   9.407  22.234  0.00  0.00    +0.000 OA
ATOM     11  N   UNL     1       1.098   9.109  21.136  0.00  0.00    +0.000 N 
ATOM     12  O   UNL     1       0.291   9.813  20.513  0.00  0.00    +0.000 OA
ENDBRANCH   1  11
BRANCH   8  13
ATOM     13  S   UNL     1       3.688   3.495  17.927  0.00  0.00    +0.000 S 
ATOM     14  O   UNL     1       4.311   2.277  18.412  0.00  0.00    +0.000 OA
ATOM     15  O   UNL     1       2.893   3.510  16.712  0.00  0.00    +0.000 OA
BRANCH  13  16
ATOM     16  C   UNL     1       4.948   4.736  17.778  0.00  0.00    +0.000 A 
ATOM     17  C   UNL     1       5.884   4.894  18.808  0.00  0.00    +0.000 A 
ATOM     18  C   UNL     1       6.865   5.882  18.703  0.00  0.00    +0.000 A 
ATOM     19  C   UNL     1       6.914   6.696  17.571  0.00  0.00    +0.000 A 
ATOM     20 CL   UNL     1       8.098   7.939  17.464  0.00  0.00    +0.000 Cl
ATOM     21  C   UNL     1       6.006   6.512  16.527  0.00  0.00    +0.000 A 
ATOM     22  C   UNL     1       5.024   5.522  16.623  0.00  0.00    +0.000 A 
ENDBRANCH  13  16
ENDBRANCH   8  13
TORSDOF 3
ENDMDL
MODEL 9
REMARK VINA RESULT:      -7.2      3.917      6.339
REMARK  Name = 
REMARK  3 active torsions:
REMARK  status: ('A' for Active; 'I' for Inactive)
REMARK    1  A    between atoms: N_2  and  C_4
REMARK    2  A    between atoms: N_11  and  S_12
REMARK    3  A    between atoms: S_12  and  C_15
REMARK                            x       y       z     vdW  Elec       q    Type
REMARK                         _______ _______ _______ _____ _____    ______ ____
ROOT
ATOM      1  C   UNL     1       2.196   8.559  18.197  0.00  0.00    +0.000 A 
ATOM      2  C   UNL     1       3.388   8.221  17.551  0.00  0.00    +0.000 A 
ATOM      3  C   UNL     1       4.062   7.033  17.869  0.00  0.00    +0.000 A 
ATOM      4  C   UNL     1       3.510   6.190  18.854  0.00  0.00    +0.000 A 
ATOM      5  C   UNL     1       2.295   6.507  19.472  0.00  0.00    +0.000 A 
ATOM      6  C   UNL     1       2.027   5.432  20.342  0.00  0.00    +0.000 A 
ATOM      7  N   UNL     1       2.969   4.493  20.309  0.00  0.00    +0.000 NA
ATOM      8  N   UNL     1       3.915   5.003  19.460  0.00  0.00    +0.000 N 
ATOM      9  C   UNL     1       1.628   7.707  19.155  0.00  0.00    +0.000 A 
ENDROOT
BRANCH   1  11
ATOM     10  O   UNL     1       0.289   9.860  17.945  0.00  0.00    +0.000 OA
ATOM     11  N   UNL     1       1.526   9.827  17.874  0.00  0.00    +0.000 N 
ATOM     12  O   UNL     1       2.237  10.787  17.547  0.00  0.00    +0.000 OA
ENDBRANCH   1  11
BRANCH   8  13
ATOM     13  S   UNL     1       5.473   4.253  19.245  0.00  0.00    +0.000 S 
ATOM     14  O   UNL     1       6.461   5.134  19.840  0.00  0.00    +0.000 OA
ATOM     15  O   UNL     1       5.315   2.879  19.689  0.00  0.00    +0.000 OA
BRANCH  13  16
ATOM     16  C   UNL     1       5.733   4.239  17.490  0.00  0.00    +0.000 A 
ATOM     17  C   UNL     1       4.731   3.737  16.650  0.00  0.00    +0.000 A 
ATOM     18  C   UNL     1       4.938   3.707  15.269  0.00  0.00    +0.000 A 
ATOM     19  C   UNL     1       6.135   4.185  14.735  0.00  0.00    +0.000 A 
ATOM     20 CL   UNL     1       6.405   4.108  13.038  0.00  0.00    +0.000 Cl
ATOM     21  C   UNL     1       7.117   4.722  15.569  0.00  0.00    +0.000 A 
ATOM     22  C   UNL     1       6.914   4.759  16.952  0.00  0.00    +0.000 A 
ENDBRANCH  13  16
ENDBRANCH   8  13
TORSDOF 3
ENDMDL
