MODEL 1
REMARK VINA RESULT:      -8.6      0.000      0.000
REMARK  Name = 
REMARK  5 active torsions:
REMARK  status: ('A' for Active; 'I' for Inactive)
REMARK    1  A    between atoms: C_1  and  C_2
REMARK    2  A    between atoms: C_2  and  C_3
REMARK    3  A    between atoms: C_2  and  C_4
REMARK    4  A    between atoms: C_10  and  O_11
REMARK    5  A    between atoms: C_10  and  C_12
REMARK                            x       y       z     vdW  Elec       q    Type
REMARK                         _______ _______ _______ _____ _____    ______ ____
ROOT
ATOM      1  C   UNL     1       5.477   4.647  15.382  0.00  0.00    +0.000 A 
ATOM      2  C   UNL     1       5.455   6.035  15.643  0.00  0.00    +0.000 A 
ATOM      3  C   UNL     1       4.668   6.574  16.665  0.00  0.00    +0.000 A 
ATOM      4  C   UNL     1       3.907   5.717  17.435  0.00  0.00    +0.000 A 
ATOM      5  C   UNL     1       3.905   4.330  17.178  0.00  0.00    +0.000 A 
ATOM      6  C   UNL     1       4.676   3.790  16.153  0.00  0.00    +0.000 A 
ATOM      7  C   UNL     1       2.981   3.613  18.164  0.00  0.00    +0.000 C 
ATOM      8  C   UNL     1       2.500   4.779  19.032  0.00  0.00    +0.000 A 
ATOM      9  C   UNL     1       1.639   4.757  20.122  0.00  0.00    +0.000 A 
ATOM     10  C   UNL     1       1.348   5.966  20.761  0.00  0.00    +0.000 A 
ATOM     11  C   UNL     1       1.899   7.173  20.300  0.00  0.00    +0.000 A 
ATOM     12  C   UNL     1       2.753   7.190  19.194  0.00  0.00    +0.000 A 
ATOM     13  C   UNL     1       3.052   5.992  18.568  0.00  0.00    +0.000 A 
ENDROOT
BRANCH   7  14
ATOM     14  C   UNL     1       3.675   2.466  18.965  0.00  0.00    +0.000 C 
ATOM     15  F   UNL     1       2.990   2.096  20.074  0.00  0.00    +0.000 F 
ATOM     16  F   UNL     1       3.893   1.343  18.244  0.00  0.00    +0.000 F 
ATOM     17  F   UNL     1       4.894   2.890  19.403  0.00  0.00    +0.000 F 
ENDBRANCH   7  14
BRANCH   1  19
ATOM     18  C   UNL     1       5.542   3.597  13.090  0.00  0.00    +0.000 C 
ATOM     19  C   UNL     1       6.365   4.071  14.289  0.00  0.00    +0.000 C 
ATOM     20  C   UNL     1       7.439   5.072  13.855  0.00  0.00    +0.000 C 
ENDBRANCH   1  19
BRANCH   7  21
ATOM     21  O   UNL     1       1.834   3.169  17.411  0.00  0.00    +0.000 OA
ATOM     22  H   UNL     1       1.394   2.484  17.946  0.00  0.00    +0.000 HD
ENDBRANCH   7  21
TORSDOF 3
ENDMDL
MODEL 2
REMARK VINA RESULT:      -8.3      2.415      5.956
REMARK  Name = 
REMARK  5 active torsions:
REMARK  status: ('A' for Active; 'I' for Inactive)
REMARK    1  A    between atoms: C_1  and  C_2
REMARK    2  A    between atoms: C_2  and  C_3
REMARK    3  A    between atoms: C_2  and  C_4
REMARK    4  A    between atoms: C_10  and  O_11
REMARK    5  A    between atoms: C_10  and  C_12
REMARK                            x       y       z     vdW  Elec       q    Type
REMARK                         _______ _______ _______ _____ _____    ______ ____
ROOT
ATOM      1  C   UNL     1       2.971   4.593  19.334  0.00  0.00    +0.000 A 
ATOM      2  C   UNL     1       2.489   3.772  18.290  0.00  0.00    +0.000 A 
ATOM      3  C   UNL     1       3.174   3.654  17.077  0.00  0.00    +0.000 A 
ATOM      4  C   UNL     1       4.353   4.355  16.913  0.00  0.00    +0.000 A 
ATOM      5  C   UNL     1       4.841   5.190  17.939  0.00  0.00    +0.000 A 
ATOM      6  C   UNL     1       4.156   5.322  19.143  0.00  0.00    +0.000 A 
ATOM      7  C   UNL     1       6.151   5.849  17.503  0.00  0.00    +0.000 C 
ATOM      8  C   UNL     1       6.351   5.238  16.114  0.00  0.00    +0.000 A 
ATOM      9  C   UNL     1       7.389   5.442  15.213  0.00  0.00    +0.000 A 
ATOM     10  C   UNL     1       7.350   4.761  13.993  0.00  0.00    +0.000 A 
ATOM     11  C   UNL     1       6.279   3.906  13.680  0.00  0.00    +0.000 A 
ATOM     12  C   UNL     1       5.232   3.716  14.585  0.00  0.00    +0.000 A 
ATOM     13  C   UNL     1       5.275   4.381  15.800  0.00  0.00    +0.000 A 
ENDROOT
BRANCH   7  14
ATOM     14  C   UNL     1       7.341   5.606  18.485  0.00  0.00    +0.000 C 
ATOM     15  F   UNL     1       6.957   5.509  19.781  0.00  0.00    +0.000 F 
ATOM     16  F   UNL     1       8.070   4.501  18.206  0.00  0.00    +0.000 F 
ATOM     17  F   UNL     1       8.200   6.663  18.428  0.00  0.00    +0.000 F 
ENDBRANCH   7  14
BRANCH   1  19
ATOM     18  C   UNL     1       1.548   6.041  20.829  0.00  0.00    +0.000 C 
ATOM     19  C   UNL     1       2.234   4.683  20.661  0.00  0.00    +0.000 C 
ATOM     20  C   UNL     1       1.230   3.539  20.822  0.00  0.00    +0.000 C 
ENDBRANCH   1  19
BRANCH   7  21
ATOM     21  O   UNL     1       5.863   7.247  17.293  0.00  0.00    +0.000 OA
ATOM     22  H   UNL     1       5.251   7.297  16.537  0.00  0.00    +0.000 HD
ENDBRANCH   7  21
TORSDOF 3
ENDMDL
MODEL 3
REMARK VINA RESULT:      -7.9      2.276      5.889
REMARK  Name = 
REMARK  5 active torsions:
REMARK  status: ('A' for Active; 'I' for Inactive)
REMARK    1  A    between atoms: C_1  and  C_2
REMARK    2  A    between atoms: C_2  and  C_3
REMARK    3  A    between atoms: C_2  and  C_4
REMARK    4  A    between atoms: C_10  and  O_11
REMARK    5  A    between atoms: C_10  and  C_12
REMARK                            x       y       z     vdW  Elec       q    Type
REMARK                         _______ _______ _______ _____ _____    ______ ____
ROOT
ATOM      1  C   UNL     1       2.610   4.203  19.063  0.00  0.00    +0.000 A 
ATOM      2  C   UNL     1       2.257   3.384  17.967  0.00  0.00    +0.000 A 
ATOM      3  C   UNL     1       3.023   3.357  16.798  0.00  0.00    +0.000 A 
ATOM      4  C   UNL     1       4.154   4.147  16.730  0.00  0.00    +0.000 A 
ATOM      5  C   UNL     1       4.512   4.983  17.808  0.00  0.00    +0.000 A 
ATOM      6  C   UNL     1       3.746   5.024  18.969  0.00  0.00    +0.000 A 
ATOM      7  C   UNL     1       5.793   5.750  17.476  0.00  0.00    +0.000 C 
ATOM      8  C   UNL     1       6.124   5.201  16.086  0.00  0.00    +0.000 A 
ATOM      9  C   UNL     1       7.198   5.510  15.260  0.00  0.00    +0.000 A 
ATOM     10  C   UNL     1       7.286   4.869  14.021  0.00  0.00    +0.000 A 
ATOM     11  C   UNL     1       6.305   3.948  13.616  0.00  0.00    +0.000 A 
ATOM     12  C   UNL     1       5.221   3.652  14.447  0.00  0.00    +0.000 A 
ATOM     13  C   UNL     1       5.138   4.277  15.679  0.00  0.00    +0.000 A 
ENDROOT
BRANCH   7  14
ATOM     14  C   UNL     1       6.935   5.564  18.525  0.00  0.00    +0.000 C 
ATOM     15  F   UNL     1       7.897   6.515  18.445  0.00  0.00    +0.000 F 
ATOM     16  F   UNL     1       6.509   5.541  19.808  0.00  0.00    +0.000 F 
ATOM     17  F   UNL     1       7.566   4.375  18.304  0.00  0.00    +0.000 F 
ENDBRANCH   7  14
BRANCH   1  19
ATOM     18  C   UNL     1       2.371   3.232  21.378  0.00  0.00    +0.000 C 
ATOM     19  C   UNL     1       1.787   4.196  20.342  0.00  0.00    +0.000 C 
ATOM     20  C   UNL     1       1.645   5.604  20.924  0.00  0.00    +0.000 C 
ENDBRANCH   1  19
BRANCH   7  21
ATOM     21  O   UNL     1       5.414   7.129  17.287  0.00  0.00    +0.000 OA
ATOM     22  H   UNL     1       5.171   7.477  18.165  0.00  0.00    +0.000 HD
ENDBRANCH   7  21
TORSDOF 3
ENDMDL
MODEL 4
REMARK VINA RESULT:      -7.9      2.131      5.672
REMARK  Name = 
REMARK  5 active torsions:
REMARK  status: ('A' for Active; 'I' for Inactive)
REMARK    1  A    between atoms: C_1  and  C_2
REMARK    2  A    between atoms: C_2  and  C_3
REMARK    3  A    between atoms: C_2  and  C_4
REMARK    4  A    between atoms: C_10  and  O_11
REMARK    5  A    between atoms: C_10  and  C_12
REMARK                            x       y       z     vdW  Elec       q    Type
REMARK                         _______ _______ _______ _____ _____    ______ ____
ROOT
ATOM      1  C   UNL     1       1.352   8.820  19.557  0.00  0.00    +0.000 A 
ATOM      2  C   UNL     1       1.962   9.417  18.432  0.00  0.00    +0.000 A 
ATOM      3  C   UNL     1       2.860   8.710  17.626  0.00  0.00    +0.000 A 
ATOM      4  C   UNL     1       3.141   7.396  17.945  0.00  0.00    +0.000 A 
ATOM      5  C   UNL     1       2.553   6.789  19.074  0.00  0.00    +0.000 A 
ATOM      6  C   UNL     1       1.668   7.492  19.887  0.00  0.00    +0.000 A 
ATOM      7  C   UNL     1       3.031   5.342  19.203  0.00  0.00    +0.000 C 
ATOM      8  C   UNL     1       3.933   5.209  17.973  0.00  0.00    +0.000 A 
ATOM      9  C   UNL     1       4.651   4.104  17.533  0.00  0.00    +0.000 A 
ATOM     10  C   UNL     1       5.409   4.229  16.366  0.00  0.00    +0.000 A 
ATOM     11  C   UNL     1       5.457   5.446  15.666  0.00  0.00    +0.000 A 
ATOM     12  C   UNL     1       4.743   6.557  16.121  0.00  0.00    +0.000 A 
ATOM     13  C   UNL     1       3.981   6.432  17.270  0.00  0.00    +0.000 A 
ENDROOT
BRANCH   7  14
ATOM     14  C   UNL     1       1.875   4.294  19.263  0.00  0.00    +0.000 C 
ATOM     15  F   UNL     1       0.999   4.519  20.272  0.00  0.00    +0.000 F 
ATOM     16  F   UNL     1       1.151   4.204  18.125  0.00  0.00    +0.000 F 
ATOM     17  F   UNL     1       2.396   3.055  19.491  0.00  0.00    +0.000 F 
ENDBRANCH   7  14
BRANCH   1  19
ATOM     18  C   UNL     1      -0.760  10.197  19.542  0.00  0.00    +0.000 C 
ATOM     19  C   UNL     1       0.349   9.590  20.403  0.00  0.00    +0.000 C 
ATOM     20  C   UNL     1      -0.236   8.713  21.513  0.00  0.00    +0.000 C 
ENDBRANCH   1  19
BRANCH   7  21
ATOM     21  O   UNL     1       3.903   5.294  20.351  0.00  0.00    +0.000 OA
ATOM     22  H   UNL     1       4.755   4.936  20.042  0.00  0.00    +0.000 HD
ENDBRANCH   7  21
TORSDOF 3
ENDMDL
MODEL 5
REMARK VINA RESULT:      -7.8      0.572      1.292
REMARK  Name = 
REMARK  5 active torsions:
REMARK  status: ('A' for Active; 'I' for Inactive)
REMARK    1  A    between atoms: C_1  and  C_2
REMARK    2  A    between atoms: C_2  and  C_3
REMARK    3  A    between atoms: C_2  and  C_4
REMARK    4  A    between atoms: C_10  and  O_11
REMARK    5  A    between atoms: C_10  and  C_12
REMARK                            x       y       z     vdW  Elec       q    Type
REMARK                         _______ _______ _______ _____ _____    ______ ____
ROOT
ATOM      1  C   UNL     1       5.336   5.287  15.456  0.00  0.00    +0.000 A 
ATOM      2  C   UNL     1       5.243   6.600  15.970  0.00  0.00    +0.000 A 
ATOM      3  C   UNL     1       4.423   6.901  17.062  0.00  0.00    +0.000 A 
ATOM      4  C   UNL     1       3.701   5.880  17.647  0.00  0.00    +0.000 A 
ATOM      5  C   UNL     1       3.770   4.567  17.138  0.00  0.00    +0.000 A 
ATOM      6  C   UNL     1       4.573   4.264  16.043  0.00  0.00    +0.000 A 
ATOM      7  C   UNL     1       2.877   3.636  17.959  0.00  0.00    +0.000 C 
ATOM      8  C   UNL     1       2.332   4.596  19.021  0.00  0.00    +0.000 A 
ATOM      9  C   UNL     1       1.467   4.330  20.075  0.00  0.00    +0.000 A 
ATOM     10  C   UNL     1       1.112   5.383  20.922  0.00  0.00    +0.000 A 
ATOM     11  C   UNL     1       1.604   6.681  20.702  0.00  0.00    +0.000 A 
ATOM     12  C   UNL     1       2.463   6.944  19.632  0.00  0.00    +0.000 A 
ATOM     13  C   UNL     1       2.826   5.899  18.799  0.00  0.00    +0.000 A 
ENDROOT
BRANCH   7  14
ATOM     14  C   UNL     1       3.622   2.394  18.544  0.00  0.00    +0.000 C 
ATOM     15  F   UNL     1       3.998   1.500  17.598  0.00  0.00    +0.000 F 
ATOM     16  F   UNL     1       4.728   2.699  19.259  0.00  0.00    +0.000 F 
ATOM     17  F   UNL     1       2.788   1.719  19.385  0.00  0.00    +0.000 F 
ENDBRANCH   7  14
BRANCH   1  19
ATOM     18  C   UNL     1       7.719   4.890  14.737  0.00  0.00    +0.000 C 
ATOM     19  C   UNL     1       6.258   4.968  14.290  0.00  0.00    +0.000 C 
ATOM     20  C   UNL     1       5.835   3.681  13.578  0.00  0.00    +0.000 C 
ENDBRANCH   1  19
BRANCH   7  21
ATOM     21  O   UNL     1       1.758   3.285  17.119  0.00  0.00    +0.000 OA
ATOM     22  H   UNL     1       1.594   4.049  16.536  0.00  0.00    +0.000 HD
ENDBRANCH   7  21
TORSDOF 3
ENDMDL
MODEL 6
REMARK VINA RESULT:      -7.7      2.035      5.679
REMARK  Name = 
REMARK  5 active torsions:
REMARK  status: ('A' for Active; 'I' for Inactive)
REMARK    1  A    between atoms: C_1  and  C_2
REMARK    2  A    between atoms: C_2  and  C_3
REMARK    3  A    between atoms: C_2  and  C_4
REMARK    4  A    between atoms: C_10  and  O_11
REMARK    5  A    between atoms: C_10  and  C_12
REMARK                            x       y       z     vdW  Elec       q    Type
REMARK                         _______ _______ _______ _____ _____    ______ ____
ROOT
ATOM      1  C   UNL     1       1.477   8.610  19.631  0.00  0.00    +0.000 A 
ATOM      2  C   UNL     1       2.006   9.264  18.496  0.00  0.00    +0.000 A 
ATOM      3  C   UNL     1       2.896   8.621  17.631  0.00  0.00    +0.000 A 
ATOM      4  C   UNL     1       3.251   7.313  17.899  0.00  0.00    +0.000 A 
ATOM      5  C   UNL     1       2.744   6.650  19.036  0.00  0.00    +0.000 A 
ATOM      6  C   UNL     1       1.868   7.290  19.908  0.00  0.00    +0.000 A 
ATOM      7  C   UNL     1       3.293   5.225  19.102  0.00  0.00    +0.000 C 
ATOM      8  C   UNL     1       4.141   5.166  17.829  0.00  0.00    +0.000 A 
ATOM      9  C   UNL     1       4.887   4.107  17.326  0.00  0.00    +0.000 A 
ATOM     10  C   UNL     1       5.584   4.297  16.129  0.00  0.00    +0.000 A 
ATOM     11  C   UNL     1       5.543   5.533  15.462  0.00  0.00    +0.000 A 
ATOM     12  C   UNL     1       4.802   6.598  15.981  0.00  0.00    +0.000 A 
ATOM     13  C   UNL     1       4.101   6.407  17.160  0.00  0.00    +0.000 A 
ENDROOT
BRANCH   7  14
ATOM     14  C   UNL     1       2.189   4.122  19.185  0.00  0.00    +0.000 C 
ATOM     15  F   UNL     1       2.691   2.865  19.238  0.00  0.00    +0.000 F 
ATOM     16  F   UNL     1       1.352   4.258  20.238  0.00  0.00    +0.000 F 
ATOM     17  F   UNL     1       1.415   4.169  18.064  0.00  0.00    +0.000 F 
ENDBRANCH   7  14
BRANCH   1  19
ATOM     18  C   UNL     1       0.815   9.077  22.018  0.00  0.00    +0.000 C 
ATOM     19  C   UNL     1       0.481   9.310  20.543  0.00  0.00    +0.000 C 
ATOM     20  C   UNL     1       0.394  10.806  20.232  0.00  0.00    +0.000 C 
ENDBRANCH   1  19
BRANCH   7  21
ATOM     21  O   UNL     1       4.219   5.187  20.207  0.00  0.00    +0.000 OA
ATOM     22  H   UNL     1       3.692   5.285  21.020  0.00  0.00    +0.000 HD
ENDBRANCH   7  21
TORSDOF 3
ENDMDL
MODEL 7
REMARK VINA RESULT:      -7.2      5.850      9.467
REMARK  Name = 
REMARK  5 active torsions:
REMARK  status: ('A' for Active; 'I' for Inactive)
REMARK    1  A    between atoms: C_1  and  C_2
REMARK    2  A    between atoms: C_2  and  C_3
REMARK    3  A    between atoms: C_2  and  C_4
REMARK    4  A    between atoms: C_10  and  O_11
REMARK    5  A    between atoms: C_10  and  C_12
REMARK                            x       y       z     vdW  Elec       q    Type
REMARK                         _______ _______ _______ _____ _____    ______ ____
ROOT
ATOM      1  C   UNL     1      -1.101  11.355  22.433  0.00  0.00    +0.000 A 
ATOM      2  C   UNL     1      -0.738  10.121  23.018  0.00  0.00    +0.000 A 
ATOM      3  C   UNL     1       0.016   9.174  22.318  0.00  0.00    +0.000 A 
ATOM      4  C   UNL     1       0.417   9.470  21.030  0.00  0.00    +0.000 A 
ATOM      5  C   UNL     1       0.050  10.690  20.425  0.00  0.00    +0.000 A 
ATOM      6  C   UNL     1      -0.712  11.630  21.112  0.00  0.00    +0.000 A 
ATOM      7  C   UNL     1       0.614  10.764  19.006  0.00  0.00    +0.000 C 
ATOM      8  C   UNL     1       1.379   9.440  18.912  0.00  0.00    +0.000 A 
ATOM      9  C   UNL     1       2.124   8.937  17.853  0.00  0.00    +0.000 A 
ATOM     10  C   UNL     1       2.738   7.691  18.010  0.00  0.00    +0.000 A 
ATOM     11  C   UNL     1       2.591   6.961  19.201  0.00  0.00    +0.000 A 
ATOM     12  C   UNL     1       1.829   7.468  20.257  0.00  0.00    +0.000 A 
ATOM     13  C   UNL     1       1.230   8.707  20.109  0.00  0.00    +0.000 A 
ENDROOT
BRANCH   7  14
ATOM     14  C   UNL     1       1.491  12.028  18.735  0.00  0.00    +0.000 C 
ATOM     15  F   UNL     1       2.491  11.807  17.848  0.00  0.00    +0.000 F 
ATOM     16  F   UNL     1       0.795  13.097  18.288  0.00  0.00    +0.000 F 
ATOM     17  F   UNL     1       2.098  12.416  19.893  0.00  0.00    +0.000 F 
ENDBRANCH   7  14
BRANCH   1  19
ATOM     18  C   UNL     1      -1.176  13.742  23.242  0.00  0.00    +0.000 C 
ATOM     19  C   UNL     1      -1.892  12.390  23.219  0.00  0.00    +0.000 C 
ATOM     20  C   UNL     1      -3.316  12.534  22.678  0.00  0.00    +0.000 C 
ENDBRANCH   1  19
BRANCH   7  21
ATOM     21  O   UNL     1      -0.508  10.647  18.106  0.00  0.00    +0.000 OA
ATOM     22  H   UNL     1      -0.140  10.505  17.215  0.00  0.00    +0.000 HD
ENDBRANCH   7  21
TORSDOF 3
ENDMDL
MODEL 8
REMARK VINA RESULT:      -7.1      1.400      5.321
REMARK  Name = 
REMARK  5 active torsions:
REMARK  status: ('A' for Active; 'I' for Inactive)
REMARK    1  A    between atoms: C_1  and  C_2
REMARK    2  A    between atoms: C_2  and  C_3
REMARK    3  A    between atoms: C_2  and  C_4
REMARK    4  A    between atoms: C_10  and  O_11
REMARK    5  A    between atoms: C_10  and  C_12
REMARK                            x       y       z     vdW  Elec       q    Type
REMARK                         _______ _______ _______ _____ _____    ______ ____
ROOT
ATOM      1  C   UNL     1       2.556   6.932  19.537  0.00  0.00    +0.000 A 
ATOM      2  C   UNL     1       2.899   7.849  18.518  0.00  0.00    +0.000 A 
ATOM      3  C   UNL     1       3.683   7.467  17.425  0.00  0.00    +0.000 A 
ATOM      4  C   UNL     1       4.117   6.158  17.348  0.00  0.00    +0.000 A 
ATOM      5  C   UNL     1       3.797   5.234  18.364  0.00  0.00    +0.000 A 
ATOM      6  C   UNL     1       3.029   5.612  19.461  0.00  0.00    +0.000 A 
ATOM      7  C   UNL     1       4.400   3.867  18.040  0.00  0.00    +0.000 C 
ATOM      8  C   UNL     1       5.065   4.140  16.688  0.00  0.00    +0.000 A 
ATOM      9  C   UNL     1       5.771   3.265  15.871  0.00  0.00    +0.000 A 
ATOM     10  C   UNL     1       6.287   3.754  14.668  0.00  0.00    +0.000 A 
ATOM     11  C   UNL     1       6.110   5.099  14.303  0.00  0.00    +0.000 A 
ATOM     12  C   UNL     1       5.411   5.976  15.136  0.00  0.00    +0.000 A 
ATOM     13  C   UNL     1       4.888   5.491  16.323  0.00  0.00    +0.000 A 
ENDROOT
BRANCH   7  14
ATOM     14  C   UNL     1       3.359   2.703  18.017  0.00  0.00    +0.000 C 
ATOM     15  F   UNL     1       3.902   1.504  17.696  0.00  0.00    +0.000 F 
ATOM     16  F   UNL     1       2.692   2.535  19.181  0.00  0.00    +0.000 F 
ATOM     17  F   UNL     1       2.418   2.954  17.062  0.00  0.00    +0.000 F 
ENDBRANCH   7  14
BRANCH   1  19
ATOM     18  C   UNL     1       1.096   8.754  20.490  0.00  0.00    +0.000 C 
ATOM     19  C   UNL     1       1.673   7.352  20.702  0.00  0.00    +0.000 C 
ATOM     20  C   UNL     1       0.559   6.334  20.955  0.00  0.00    +0.000 C 
ENDBRANCH   1  19
BRANCH   7  21
ATOM     21  O   UNL     1       5.472   3.652  18.982  0.00  0.00    +0.000 OA
ATOM     22  H   UNL     1       5.108   3.829  19.868  0.00  0.00    +0.000 HD
ENDBRANCH   7  21
TORSDOF 3
ENDMDL
MODEL 9
REMARK VINA RESULT:      -7.0      5.474      7.384
REMARK  Name = 
REMARK  5 active torsions:
REMARK  status: ('A' for Active; 'I' for Inactive)
REMARK    1  A    between atoms: C_1  and  C_2
REMARK    2  A    between atoms: C_2  and  C_3
REMARK    3  A    between atoms: C_2  and  C_4
REMARK    4  A    between atoms: C_10  and  O_11
REMARK    5  A    between atoms: C_10  and  C_12
REMARK                            x       y       z     vdW  Elec       q    Type
REMARK                         _______ _______ _______ _____ _____    ______ ____
ROOT
ATOM      1  C   UNL     1       2.040   7.696  18.625  0.00  0.00    +0.000 A 
ATOM      2  C   UNL     1       2.107   7.440  20.013  0.00  0.00    +0.000 A 
ATOM      3  C   UNL     1       1.427   8.238  20.938  0.00  0.00    +0.000 A 
ATOM      4  C   UNL     1       0.667   9.292  20.468  0.00  0.00    +0.000 A 
ATOM      5  C   UNL     1       0.601   9.571  19.088  0.00  0.00    +0.000 A 
ATOM      6  C   UNL     1       1.287   8.788  18.164  0.00  0.00    +0.000 A 
ATOM      7  C   UNL     1      -0.296  10.784  18.838  0.00  0.00    +0.000 C 
ATOM      8  C   UNL     1      -0.756  11.120  20.260  0.00  0.00    +0.000 A 
ATOM      9  C   UNL     1      -1.611  12.129  20.684  0.00  0.00    +0.000 A 
ATOM     10  C   UNL     1      -1.884  12.234  22.051  0.00  0.00    +0.000 A 
ATOM     11  C   UNL     1      -1.295  11.352  22.972  0.00  0.00    +0.000 A 
ATOM     12  C   UNL     1      -0.425  10.348  22.540  0.00  0.00    +0.000 A 
ATOM     13  C   UNL     1      -0.163  10.234  21.185  0.00  0.00    +0.000 A 
ENDROOT
BRANCH   7  14
ATOM     14  C   UNL     1      -1.464  10.515  17.837  0.00  0.00    +0.000 C 
ATOM     15  F   UNL     1      -2.048  11.648  17.377  0.00  0.00    +0.000 F 
ATOM     16  F   UNL     1      -1.107   9.788  16.755  0.00  0.00    +0.000 F 
ATOM     17  F   UNL     1      -2.451   9.815  18.467  0.00  0.00    +0.000 F 
ENDBRANCH   7  14
BRANCH   1  19
ATOM     18  C   UNL     1       4.221   7.207  17.459  0.00  0.00    +0.000 C 
ATOM     19  C   UNL     1       2.756   6.798  17.629  0.00  0.00    +0.000 C 
ATOM     20  C   UNL     1       2.642   5.323  18.022  0.00  0.00    +0.000 C 
ENDBRANCH   1  19
BRANCH   7  21
ATOM     21  O   UNL     1       0.568  11.863  18.427  0.00  0.00    +0.000 OA
ATOM     22  H   UNL     1       1.336  11.457  17.986  0.00  0.00    +0.000 HD
ENDBRANCH   7  21
TORSDOF 3
ENDMDL
