MODEL 1
REMARK VINA RESULT:      -8.3      0.000      0.000
REMARK  Name = 
REMARK  2 active torsions:
REMARK  status: ('A' for Active; 'I' for Inactive)
REMARK    1  A    between atoms: C_16  and  C_17
REMARK    2  A    between atoms: C_17  and  C_18
REMARK                            x       y       z     vdW  Elec       q    Type
REMARK                         _______ _______ _______ _____ _____    ______ ____
ROOT
ATOM      1  C   UNL     1      -0.854  12.740  20.325  0.00  0.00    +0.000 C 
ENDROOT
BRANCH   1  17
ATOM      2  O   UNL     1      -2.167  11.845  23.190  0.00  0.00    +0.000 OA
ATOM      3  C   UNL     1      -1.250  11.231  22.655  0.00  0.00    +0.000 C 
ATOM      4  N   UNL     1      -0.798  10.188  23.415  0.00  0.00    +0.000 N 
ATOM      5  C   UNL     1      -0.618   8.973  22.704  0.00  0.00    +0.000 C 
ATOM      6  C   UNL     1       0.248   9.134  21.470  0.00  0.00    +0.000 A 
ATOM      7  N   UNL     1       0.886   8.080  21.105  0.00  0.00    +0.000 NA
ATOM      8  C   UNL     1       1.606   8.109  19.916  0.00  0.00    +0.000 A 
ATOM      9  C   UNL     1       2.187   6.931  19.449  0.00  0.00    +0.000 A 
ATOM     10  C   UNL     1       2.882   6.923  18.238  0.00  0.00    +0.000 A 
ATOM     11  C   UNL     1       3.009   8.098  17.498  0.00  0.00    +0.000 A 
ATOM     12  C   UNL     1       2.447   9.283  17.971  0.00  0.00    +0.000 A 
ATOM     13  C   UNL     1       1.742   9.278  19.177  0.00  0.00    +0.000 A 
ATOM     14  C   UNL     1       1.125  10.499  19.720  0.00  0.00    +0.000 A 
ATOM     15  O   UNL     1       1.482  11.584  19.267  0.00  0.00    +0.000 OA
ATOM     16  N   UNL     1       0.213  10.335  20.751  0.00  0.00    +0.000 N 
ATOM     17  C   UNL     1      -0.337  11.580  21.377  0.00  0.00    +0.000 C 
ATOM     18  H   UNL     1      -1.395  10.123  24.234  0.00  0.00    +0.000 HD
ENDBRANCH   1  17
BRANCH   1  19
ATOM     19  C   UNL     1      -2.052  12.184  19.553  0.00  0.00    +0.000 C 
ATOM     20  O   UNL     1      -1.479  12.449  18.223  0.00  0.00    +0.000 OA
ATOM     21  C   UNL     1      -1.114  11.203  17.656  0.00  0.00    +0.000 C 
ATOM     22  N   UNL     1      -2.266  10.340  17.795  0.00  0.00    +0.000 NA
ATOM     23  C   UNL     1      -2.800  10.886  19.086  0.00  0.00    +0.000 C 
ATOM     24  N   UNL     1      -4.153  11.392  18.729  0.00  0.00    +0.000 N 
ATOM     25  C   UNL     1      -4.341  11.528  17.376  0.00  0.00    +0.000 C 
ATOM     26  O   UNL     1      -5.164  12.189  16.757  0.00  0.00    +0.000 OA
ATOM     27  C   UNL     1      -3.292  10.698  16.734  0.00  0.00    +0.000 C 
ATOM     28  C   UNL     1      -3.764   9.646  15.760  0.00  0.00    +0.000 C 
ATOM     29  C   UNL     1      -2.946  10.796  15.262  0.00  0.00    +0.000 C 
ATOM     30  C   UNL     1      -4.444  12.471  19.556  0.00  0.00    +0.000 A 
ATOM     31  C   UNL     1      -5.683  13.048  19.781  0.00  0.00    +0.000 A 
ATOM     32  C   UNL     1      -5.781  13.994  20.801  0.00  0.00    +0.000 A 
ATOM     33  C   UNL     1      -4.662  14.322  21.568  0.00  0.00    +0.000 A 
ATOM     34  C   UNL     1      -3.410  13.770  21.270  0.00  0.00    +0.000 A 
ATOM     35  C   UNL     1      -3.293  12.896  20.184  0.00  0.00    +0.000 A 
ENDBRANCH   1  19
TORSDOF 2
ENDMDL
MODEL 2
REMARK VINA RESULT:      -7.6      3.104      5.267
REMARK  Name = 
REMARK  2 active torsions:
REMARK  status: ('A' for Active; 'I' for Inactive)
REMARK    1  A    between atoms: C_16  and  C_17
REMARK    2  A    between atoms: C_17  and  C_18
REMARK                            x       y       z     vdW  Elec       q    Type
REMARK                         _______ _______ _______ _____ _____    ______ ____
ROOT
ATOM      1  C   UNL     1      -0.847  13.516  22.923  0.00  0.00    +0.000 C 
ENDROOT
BRANCH   1  17
ATOM      2  O   UNL     1      -1.101  15.812  20.599  0.00  0.00    +0.000 OA
ATOM      3  C   UNL     1      -0.923  14.624  20.348  0.00  0.00    +0.000 C 
ATOM      4  N   UNL     1      -0.916  14.363  19.006  0.00  0.00    +0.000 N 
ATOM      5  C   UNL     1       0.145  13.526  18.573  0.00  0.00    +0.000 C 
ATOM      6  C   UNL     1       0.233  12.231  19.358  0.00  0.00    +0.000 A 
ATOM      7  N   UNL     1       0.754  11.240  18.727  0.00  0.00    +0.000 NA
ATOM      8  C   UNL     1       0.981  10.053  19.413  0.00  0.00    +0.000 A 
ATOM      9  C   UNL     1       1.667   9.022  18.771  0.00  0.00    +0.000 A 
ATOM     10  C   UNL     1       1.944   7.833  19.449  0.00  0.00    +0.000 A 
ATOM     11  C   UNL     1       1.523   7.668  20.768  0.00  0.00    +0.000 A 
ATOM     12  C   UNL     1       0.820   8.687  21.408  0.00  0.00    +0.000 A 
ATOM     13  C   UNL     1       0.560   9.879  20.725  0.00  0.00    +0.000 A 
ATOM     14  C   UNL     1      -0.175  10.988  21.354  0.00  0.00    +0.000 A 
ATOM     15  O   UNL     1      -0.819  10.758  22.375  0.00  0.00    +0.000 OA
ATOM     16  N   UNL     1      -0.126  12.216  20.711  0.00  0.00    +0.000 N 
ATOM     17  C   UNL     1      -0.957  13.320  21.290  0.00  0.00    +0.000 C 
ATOM     18  H   UNL     1      -0.989  15.252  18.519  0.00  0.00    +0.000 HD
ENDBRANCH   1  17
BRANCH   1  19
ATOM     19  C   UNL     1      -2.234  13.887  23.453  0.00  0.00    +0.000 C 
ATOM     20  O   UNL     1      -2.945  13.510  22.220  0.00  0.00    +0.000 OA
ATOM     21  C   UNL     1      -3.662  12.317  22.486  0.00  0.00    +0.000 C 
ATOM     22  N   UNL     1      -4.397  12.548  23.709  0.00  0.00    +0.000 NA
ATOM     23  C   UNL     1      -3.418  13.458  24.390  0.00  0.00    +0.000 C 
ATOM     24  N   UNL     1      -4.174  14.726  24.572  0.00  0.00    +0.000 N 
ATOM     25  C   UNL     1      -5.310  14.795  23.805  0.00  0.00    +0.000 C 
ATOM     26  O   UNL     1      -5.972  15.766  23.462  0.00  0.00    +0.000 OA
ATOM     27  C   UNL     1      -5.618  13.399  23.408  0.00  0.00    +0.000 C 
ATOM     28  C   UNL     1      -6.995  12.886  23.753  0.00  0.00    +0.000 C 
ATOM     29  C   UNL     1      -6.609  13.049  22.316  0.00  0.00    +0.000 C 
ATOM     30  C   UNL     1      -3.269  15.781  24.523  0.00  0.00    +0.000 A 
ATOM     31  C   UNL     1      -3.476  17.086  24.937  0.00  0.00    +0.000 A 
ATOM     32  C   UNL     1      -2.370  17.934  24.983  0.00  0.00    +0.000 A 
ATOM     33  C   UNL     1      -1.104  17.460  24.635  0.00  0.00    +0.000 A 
ATOM     34  C   UNL     1      -0.941  16.154  24.157  0.00  0.00    +0.000 A 
ATOM     35  C   UNL     1      -2.066  15.336  24.017  0.00  0.00    +0.000 A 
ENDBRANCH   1  19
TORSDOF 2
ENDMDL
MODEL 3
REMARK VINA RESULT:      -7.5      6.266      7.595
REMARK  Name = 
REMARK  2 active torsions:
REMARK  status: ('A' for Active; 'I' for Inactive)
REMARK    1  A    between atoms: C_16  and  C_17
REMARK    2  A    between atoms: C_17  and  C_18
REMARK                            x       y       z     vdW  Elec       q    Type
REMARK                         _______ _______ _______ _____ _____    ______ ____
ROOT
ATOM      1  C   UNL     1       4.177  16.214  17.697  0.00  0.00    +0.000 C 
ENDROOT
BRANCH   1  17
ATOM      2  O   UNL     1       3.699  18.219  20.244  0.00  0.00    +0.000 OA
ATOM      3  C   UNL     1       4.728  17.570  20.090  0.00  0.00    +0.000 C 
ATOM      4  N   UNL     1       5.666  17.830  21.049  0.00  0.00    +0.000 N 
ATOM      5  C   UNL     1       6.277  16.676  21.607  0.00  0.00    +0.000 C 
ATOM      6  C   UNL     1       6.849  15.746  20.556  0.00  0.00    +0.000 A 
ATOM      7  N   UNL     1       7.837  15.020  20.943  0.00  0.00    +0.000 NA
ATOM      8  C   UNL     1       8.340  14.054  20.078  0.00  0.00    +0.000 A 
ATOM      9  C   UNL     1       9.320  13.178  20.542  0.00  0.00    +0.000 A 
ATOM     10  C   UNL     1       9.815  12.173  19.708  0.00  0.00    +0.000 A 
ATOM     11  C   UNL     1       9.340  12.053  18.402  0.00  0.00    +0.000 A 
ATOM     12  C   UNL     1       8.374  12.939  17.928  0.00  0.00    +0.000 A 
ATOM     13  C   UNL     1       7.875  13.933  18.775  0.00  0.00    +0.000 A 
ATOM     14  C   UNL     1       6.854  14.892  18.327  0.00  0.00    +0.000 A 
ATOM     15  O   UNL     1       6.654  15.012  17.120  0.00  0.00    +0.000 OA
ATOM     16  N   UNL     1       6.220  15.637  19.310  0.00  0.00    +0.000 N 
ATOM     17  C   UNL     1       5.255  16.688  18.851  0.00  0.00    +0.000 C 
ATOM     18  H   UNL     1       5.249  18.464  21.724  0.00  0.00    +0.000 HD
ENDBRANCH   1  17
BRANCH   1  19
ATOM     19  C   UNL     1       2.923  15.692  18.403  0.00  0.00    +0.000 C 
ATOM     20  O   UNL     1       3.074  14.309  17.921  0.00  0.00    +0.000 OA
ATOM     21  C   UNL     1       3.473  13.511  19.022  0.00  0.00    +0.000 C 
ATOM     22  N   UNL     1       2.553  13.813  20.096  0.00  0.00    +0.000 NA
ATOM     23  C   UNL     1       2.299  15.256  19.774  0.00  0.00    +0.000 C 
ATOM     24  N   UNL     1       0.836  15.310  19.505  0.00  0.00    +0.000 N 
ATOM     25  C   UNL     1       0.277  14.075  19.292  0.00  0.00    +0.000 C 
ATOM     26  O   UNL     1      -0.775  13.768  18.749  0.00  0.00    +0.000 OA
ATOM     27  C   UNL     1       1.239  13.092  19.850  0.00  0.00    +0.000 C 
ATOM     28  C   UNL     1       0.703  12.133  20.886  0.00  0.00    +0.000 C 
ATOM     29  C   UNL     1       1.164  11.606  19.563  0.00  0.00    +0.000 C 
ATOM     30  C   UNL     1       0.603  16.318  18.576  0.00  0.00    +0.000 A 
ATOM     31  C   UNL     1      -0.608  16.913  18.266  0.00  0.00    +0.000 A 
ATOM     32  C   UNL     1      -0.585  18.040  17.447  0.00  0.00    +0.000 A 
ATOM     33  C   UNL     1       0.629  18.547  16.979  0.00  0.00    +0.000 A 
ATOM     34  C   UNL     1       1.830  17.882  17.256  0.00  0.00    +0.000 A 
ATOM     35  C   UNL     1       1.796  16.696  17.995  0.00  0.00    +0.000 A 
ENDBRANCH   1  19
TORSDOF 2
ENDMDL
MODEL 4
REMARK VINA RESULT:      -7.5      2.507      4.128
REMARK  Name = 
REMARK  2 active torsions:
REMARK  status: ('A' for Active; 'I' for Inactive)
REMARK    1  A    between atoms: C_16  and  C_17
REMARK    2  A    between atoms: C_17  and  C_18
REMARK                            x       y       z     vdW  Elec       q    Type
REMARK                         _______ _______ _______ _____ _____    ______ ____
ROOT
ATOM      1  C   UNL     1      -1.115  12.041  19.709  0.00  0.00    +0.000 C 
ENDROOT
BRANCH   1  17
ATOM      2  O   UNL     1      -2.021  11.692  22.839  0.00  0.00    +0.000 OA
ATOM      3  C   UNL     1      -1.088  11.071  22.341  0.00  0.00    +0.000 C 
ATOM      4  N   UNL     1      -0.434  10.283  23.247  0.00  0.00    +0.000 N 
ATOM      5  C   UNL     1      -0.168   8.963  22.798  0.00  0.00    +0.000 C 
ATOM      6  C   UNL     1       0.548   8.928  21.462  0.00  0.00    +0.000 A 
ATOM      7  N   UNL     1       1.279   7.890  21.257  0.00  0.00    +0.000 NA
ATOM      8  C   UNL     1       1.871   7.722  20.010  0.00  0.00    +0.000 A 
ATOM      9  C   UNL     1       2.552   6.536  19.741  0.00  0.00    +0.000 A 
ATOM     10  C   UNL     1       3.124   6.323  18.485  0.00  0.00    +0.000 A 
ATOM     11  C   UNL     1       3.026   7.305  17.499  0.00  0.00    +0.000 A 
ATOM     12  C   UNL     1       2.364   8.502  17.770  0.00  0.00    +0.000 A 
ATOM     13  C   UNL     1       1.784   8.699  19.026  0.00  0.00    +0.000 A 
ATOM     14  C   UNL     1       1.070   9.940  19.364  0.00  0.00    +0.000 A 
ATOM     15  O   UNL     1       1.238  10.924  18.648  0.00  0.00    +0.000 OA
ATOM     16  N   UNL     1       0.289   9.922  20.510  0.00  0.00    +0.000 N 
ATOM     17  C   UNL     1      -0.354  11.213  20.915  0.00  0.00    +0.000 C 
ATOM     18  H   UNL     1      -0.936  10.345  24.127  0.00  0.00    +0.000 HD
ENDBRANCH   1  17
BRANCH   1  19
ATOM     19  C   UNL     1      -0.914  13.538  19.960  0.00  0.00    +0.000 C 
ATOM     20  O   UNL     1       0.301  13.367  20.773  0.00  0.00    +0.000 OA
ATOM     21  C   UNL     1       1.402  13.813  20.000  0.00  0.00    +0.000 C 
ATOM     22  N   UNL     1       1.041  15.118  19.494  0.00  0.00    +0.000 NA
ATOM     23  C   UNL     1      -0.436  14.899  19.344  0.00  0.00    +0.000 C 
ATOM     24  N   UNL     1      -1.041  15.907  20.255  0.00  0.00    +0.000 N 
ATOM     25  C   UNL     1      -0.146  16.436  21.151  0.00  0.00    +0.000 C 
ATOM     26  O   UNL     1      -0.339  17.017  22.211  0.00  0.00    +0.000 OA
ATOM     27  C   UNL     1       1.201  16.148  20.598  0.00  0.00    +0.000 C 
ATOM     28  C   UNL     1       2.116  17.331  20.396  0.00  0.00    +0.000 C 
ATOM     29  C   UNL     1       2.474  16.287  21.407  0.00  0.00    +0.000 C 
ATOM     30  C   UNL     1      -2.241  15.393  20.734  0.00  0.00    +0.000 A 
ATOM     31  C   UNL     1      -3.265  16.087  21.357  0.00  0.00    +0.000 A 
ATOM     32  C   UNL     1      -4.464  15.412  21.579  0.00  0.00    +0.000 A 
ATOM     33  C   UNL     1      -4.614  14.087  21.166  0.00  0.00    +0.000 A 
ATOM     34  C   UNL     1      -3.537  13.393  20.600  0.00  0.00    +0.000 A 
ATOM     35  C   UNL     1      -2.304  14.042  20.468  0.00  0.00    +0.000 A 
ENDBRANCH   1  19
TORSDOF 2
ENDMDL
MODEL 5
REMARK VINA RESULT:      -7.4      3.308      6.788
REMARK  Name = 
REMARK  2 active torsions:
REMARK  status: ('A' for Active; 'I' for Inactive)
REMARK    1  A    between atoms: C_16  and  C_17
REMARK    2  A    between atoms: C_17  and  C_18
REMARK                            x       y       z     vdW  Elec       q    Type
REMARK                         _______ _______ _______ _____ _____    ______ ____
ROOT
ATOM      1  C   UNL     1      -1.074  12.345  20.942  0.00  0.00    +0.000 C 
ENDROOT
BRANCH   1  17
ATOM      2  O   UNL     1      -0.421  13.850  18.106  0.00  0.00    +0.000 OA
ATOM      3  C   UNL     1      -0.299  14.398  19.196  0.00  0.00    +0.000 C 
ATOM      4  N   UNL     1       0.204  15.666  19.097  0.00  0.00    +0.000 N 
ATOM      5  C   UNL     1      -0.485  16.637  19.871  0.00  0.00    +0.000 C 
ATOM      6  C   UNL     1      -0.620  16.240  21.328  0.00  0.00    +0.000 A 
ATOM      7  N   UNL     1      -0.715  17.218  22.157  0.00  0.00    +0.000 NA
ATOM      8  C   UNL     1      -0.963  16.941  23.497  0.00  0.00    +0.000 A 
ATOM      9  C   UNL     1      -1.200  17.999  24.373  0.00  0.00    +0.000 A 
ATOM     10  C   UNL     1      -1.491  17.749  25.715  0.00  0.00    +0.000 A 
ATOM     11  C   UNL     1      -1.531  16.437  26.187  0.00  0.00    +0.000 A 
ATOM     12  C   UNL     1      -1.276  15.376  25.320  0.00  0.00    +0.000 A 
ATOM     13  C   UNL     1      -0.999  15.637  23.975  0.00  0.00    +0.000 A 
ATOM     14  C   UNL     1      -0.726  14.555  23.016  0.00  0.00    +0.000 A 
ATOM     15  O   UNL     1      -0.446  13.442  23.454  0.00  0.00    +0.000 OA
ATOM     16  N   UNL     1      -0.755  14.889  21.670  0.00  0.00    +0.000 N 
ATOM     17  C   UNL     1      -0.374  13.817  20.695  0.00  0.00    +0.000 C 
ATOM     18  H   UNL     1       0.290  15.886  18.109  0.00  0.00    +0.000 HD
ENDBRANCH   1  17
BRANCH   1  19
ATOM     19  C   UNL     1      -2.517  12.413  20.433  0.00  0.00    +0.000 C 
ATOM     20  O   UNL     1      -3.123  12.077  21.732  0.00  0.00    +0.000 OA
ATOM     21  C   UNL     1      -3.729  13.253  22.241  0.00  0.00    +0.000 C 
ATOM     22  N   UNL     1      -4.543  13.786  21.171  0.00  0.00    +0.000 NA
ATOM     23  C   UNL     1      -3.695  13.358  20.010  0.00  0.00    +0.000 C 
ATOM     24  N   UNL     1      -4.584  12.453  19.233  0.00  0.00    +0.000 N 
ATOM     25  C   UNL     1      -5.682  12.031  19.941  0.00  0.00    +0.000 C 
ATOM     26  O   UNL     1      -6.421  11.074  19.754  0.00  0.00    +0.000 OA
ATOM     27  C   UNL     1      -5.827  12.982  21.070  0.00  0.00    +0.000 C 
ATOM     28  C   UNL     1      -7.161  13.678  21.201  0.00  0.00    +0.000 C 
ATOM     29  C   UNL     1      -6.722  12.719  22.264  0.00  0.00    +0.000 C 
ATOM     30  C   UNL     1      -3.789  11.501  18.603  0.00  0.00    +0.000 A 
ATOM     31  C   UNL     1      -4.147  10.663  17.560  0.00  0.00    +0.000 A 
ATOM     32  C   UNL     1      -3.137   9.925  16.947  0.00  0.00    +0.000 A 
ATOM     33  C   UNL     1      -1.814  10.051  17.372  0.00  0.00    +0.000 A 
ATOM     34  C   UNL     1      -1.496  10.856  18.474  0.00  0.00    +0.000 A 
ATOM     35  C   UNL     1      -2.524  11.519  19.150  0.00  0.00    +0.000 A 
ENDBRANCH   1  19
TORSDOF 2
ENDMDL
MODEL 6
REMARK VINA RESULT:      -7.3      2.260      4.193
REMARK  Name = 
REMARK  2 active torsions:
REMARK  status: ('A' for Active; 'I' for Inactive)
REMARK    1  A    between atoms: C_16  and  C_17
REMARK    2  A    between atoms: C_17  and  C_18
REMARK                            x       y       z     vdW  Elec       q    Type
REMARK                         _______ _______ _______ _____ _____    ______ ____
ROOT
ATOM      1  C   UNL     1      -1.711  11.998  19.990  0.00  0.00    +0.000 C 
ENDROOT
BRANCH   1  17
ATOM      2  O   UNL     1      -2.299  11.578  23.185  0.00  0.00    +0.000 OA
ATOM      3  C   UNL     1      -1.348  11.061  22.608  0.00  0.00    +0.000 C 
ATOM      4  N   UNL     1      -0.534  10.359  23.453  0.00  0.00    +0.000 N 
ATOM      5  C   UNL     1      -0.161   9.073  22.982  0.00  0.00    +0.000 C 
ATOM      6  C   UNL     1       0.437   9.107  21.589  0.00  0.00    +0.000 A 
ATOM      7  N   UNL     1       1.259   8.155  21.321  0.00  0.00    +0.000 NA
ATOM      8  C   UNL     1       1.757   8.044  20.028  0.00  0.00    +0.000 A 
ATOM      9  C   UNL     1       2.541   6.939  19.699  0.00  0.00    +0.000 A 
ATOM     10  C   UNL     1       3.023   6.780  18.398  0.00  0.00    +0.000 A 
ATOM     11  C   UNL     1       2.731   7.737  17.426  0.00  0.00    +0.000 A 
ATOM     12  C   UNL     1       1.964   8.853  17.754  0.00  0.00    +0.000 A 
ATOM     13  C   UNL     1       1.476   8.995  19.055  0.00  0.00    +0.000 A 
ATOM     14  C   UNL     1       0.658  10.152  19.455  0.00  0.00    +0.000 A 
ATOM     15  O   UNL     1       0.653  11.142  18.728  0.00  0.00    +0.000 OA
ATOM     16  N   UNL     1      -0.013  10.056  20.664  0.00  0.00    +0.000 N 
ATOM     17  C   UNL     1      -0.761  11.271  21.124  0.00  0.00    +0.000 C 
ATOM     18  H   UNL     1      -0.963  10.372  24.374  0.00  0.00    +0.000 HD
ENDBRANCH   1  17
BRANCH   1  19
ATOM     19  C   UNL     1      -2.062  13.401  20.491  0.00  0.00    +0.000 C 
ATOM     20  O   UNL     1      -3.451  13.364  20.003  0.00  0.00    +0.000 OA
ATOM     21  C   UNL     1      -4.300  13.243  21.131  0.00  0.00    +0.000 C 
ATOM     22  N   UNL     1      -3.882  14.264  22.065  0.00  0.00    +0.000 NA
ATOM     23  C   UNL     1      -2.417  14.274  21.745  0.00  0.00    +0.000 C 
ATOM     24  N   UNL     1      -2.165  15.660  21.266  0.00  0.00    +0.000 N 
ATOM     25  C   UNL     1      -3.314  16.340  20.943  0.00  0.00    +0.000 C 
ATOM     26  O   UNL     1      -3.474  17.331  20.244  0.00  0.00    +0.000 OA
ATOM     27  C   UNL     1      -4.419  15.610  21.612  0.00  0.00    +0.000 C 
ATOM     28  C   UNL     1      -5.302  16.416  22.533  0.00  0.00    +0.000 C 
ATOM     29  C   UNL     1      -5.880  15.837  21.280  0.00  0.00    +0.000 C 
ATOM     30  C   UNL     1      -1.131  15.617  20.337  0.00  0.00    +0.000 A 
ATOM     31  C   UNL     1      -0.378  16.680  19.867  0.00  0.00    +0.000 A 
ATOM     32  C   UNL     1       0.740  16.386  19.089  0.00  0.00    +0.000 A 
ATOM     33  C   UNL     1       1.082  15.060  18.817  0.00  0.00    +0.000 A 
ATOM     34  C   UNL     1       0.260  14.012  19.250  0.00  0.00    +0.000 A 
ATOM     35  C   UNL     1      -0.915  14.313  19.947  0.00  0.00    +0.000 A 
ENDBRANCH   1  19
TORSDOF 2
ENDMDL
MODEL 7
REMARK VINA RESULT:      -7.3      9.092     11.982
REMARK  Name = 
REMARK  2 active torsions:
REMARK  status: ('A' for Active; 'I' for Inactive)
REMARK    1  A    between atoms: C_16  and  C_17
REMARK    2  A    between atoms: C_17  and  C_18
REMARK                            x       y       z     vdW  Elec       q    Type
REMARK                         _______ _______ _______ _____ _____    ______ ____
ROOT
ATOM      1  C   UNL     1       8.870  16.333  21.688  0.00  0.00    +0.000 C 
ENDROOT
BRANCH   1  17
ATOM      2  O   UNL     1       6.316  16.824  19.695  0.00  0.00    +0.000 OA
ATOM      3  C   UNL     1       6.208  16.312  20.805  0.00  0.00    +0.000 C 
ATOM      4  N   UNL     1       4.910  16.042  21.139  0.00  0.00    +0.000 N 
ATOM      5  C   UNL     1       4.698  14.750  21.687  0.00  0.00    +0.000 C 
ATOM      6  C   UNL     1       5.612  14.449  22.858  0.00  0.00    +0.000 A 
ATOM      7  N   UNL     1       5.153  13.605  23.712  0.00  0.00    +0.000 NA
ATOM      8  C   UNL     1       5.977  13.183  24.749  0.00  0.00    +0.000 A 
ATOM      9  C   UNL     1       5.531  12.169  25.596  0.00  0.00    +0.000 A 
ATOM     10  C   UNL     1       6.352  11.698  26.622  0.00  0.00    +0.000 A 
ATOM     11  C   UNL     1       7.619  12.252  26.811  0.00  0.00    +0.000 A 
ATOM     12  C   UNL     1       8.062  13.279  25.979  0.00  0.00    +0.000 A 
ATOM     13  C   UNL     1       7.237  13.733  24.947  0.00  0.00    +0.000 A 
ATOM     14  C   UNL     1       7.656  14.812  24.038  0.00  0.00    +0.000 A 
ATOM     15  O   UNL     1       8.606  15.518  24.367  0.00  0.00    +0.000 OA
ATOM     16  N   UNL     1       6.905  14.986  22.885  0.00  0.00    +0.000 N 
ATOM     17  C   UNL     1       7.264  16.148  22.009  0.00  0.00    +0.000 C 
ATOM     18  H   UNL     1       4.333  16.268  20.335  0.00  0.00    +0.000 HD
ENDBRANCH   1  17
BRANCH   1  19
ATOM     19  C   UNL     1       9.208  15.494  20.453  0.00  0.00    +0.000 C 
ATOM     20  O   UNL     1      10.123  14.586  21.164  0.00  0.00    +0.000 OA
ATOM     21  C   UNL     1       9.478  13.329  21.279  0.00  0.00    +0.000 C 
ATOM     22  N   UNL     1       9.002  12.995  19.956  0.00  0.00    +0.000 NA
ATOM     23  C   UNL     1       8.704  14.382  19.468  0.00  0.00    +0.000 C 
ATOM     24  N   UNL     1       9.601  14.548  18.293  0.00  0.00    +0.000 N 
ATOM     25  C   UNL     1      10.601  13.609  18.236  0.00  0.00    +0.000 C 
ATOM     26  O   UNL     1      11.663  13.624  17.629  0.00  0.00    +0.000 OA
ATOM     27  C   UNL     1      10.164  12.496  19.114  0.00  0.00    +0.000 C 
ATOM     28  C   UNL     1      10.104  11.124  18.489  0.00  0.00    +0.000 C 
ATOM     29  C   UNL     1      11.094  11.394  19.578  0.00  0.00    +0.000 C 
ATOM     30  C   UNL     1       9.941  15.893  18.193  0.00  0.00    +0.000 A 
ATOM     31  C   UNL     1      10.497  16.542  17.104  0.00  0.00    +0.000 A 
ATOM     32  C   UNL     1      10.573  17.933  17.148  0.00  0.00    +0.000 A 
ATOM     33  C   UNL     1      10.086  18.631  18.254  0.00  0.00    +0.000 A 
ATOM     34  C   UNL     1       9.592  17.940  19.368  0.00  0.00    +0.000 A 
ATOM     35  C   UNL     1       9.607  16.542  19.363  0.00  0.00    +0.000 A 
ENDBRANCH   1  19
TORSDOF 2
ENDMDL
MODEL 8
REMARK VINA RESULT:      -7.3      2.466      7.557
REMARK  Name = 
REMARK  2 active torsions:
REMARK  status: ('A' for Active; 'I' for Inactive)
REMARK    1  A    between atoms: C_16  and  C_17
REMARK    2  A    between atoms: C_17  and  C_18
REMARK                            x       y       z     vdW  Elec       q    Type
REMARK                         _______ _______ _______ _____ _____    ______ ____
ROOT
ATOM      1  C   UNL     1      -1.455  11.729  20.683  0.00  0.00    +0.000 C 
ENDROOT
BRANCH   1  17
ATOM      2  O   UNL     1      -2.066  11.143  17.518  0.00  0.00    +0.000 OA
ATOM      3  C   UNL     1      -2.856  11.725  18.254  0.00  0.00    +0.000 C 
ATOM      4  N   UNL     1      -3.973  12.158  17.594  0.00  0.00    +0.000 N 
ATOM      5  C   UNL     1      -5.197  11.878  18.257  0.00  0.00    +0.000 C 
ATOM      6  C   UNL     1      -5.215  12.367  19.692  0.00  0.00    +0.000 A 
ATOM      7  N   UNL     1      -6.378  12.648  20.162  0.00  0.00    +0.000 NA
ATOM      8  C   UNL     1      -6.495  12.986  21.506  0.00  0.00    +0.000 A 
ATOM      9  C   UNL     1      -7.767  13.160  22.050  0.00  0.00    +0.000 A 
ATOM     10  C   UNL     1      -7.916  13.461  23.405  0.00  0.00    +0.000 A 
ATOM     11  C   UNL     1      -6.790  13.603  24.216  0.00  0.00    +0.000 A 
ATOM     12  C   UNL     1      -5.516  13.450  23.673  0.00  0.00    +0.000 A 
ATOM     13  C   UNL     1      -5.378  13.135  22.318  0.00  0.00    +0.000 A 
ATOM     14  C   UNL     1      -4.057  12.959  21.694  0.00  0.00    +0.000 A 
ATOM     15  O   UNL     1      -3.069  13.380  22.290  0.00  0.00    +0.000 OA
ATOM     16  N   UNL     1      -4.031  12.368  20.440  0.00  0.00    +0.000 N 
ATOM     17  C   UNL     1      -2.700  12.282  19.756  0.00  0.00    +0.000 C 
ATOM     18  H   UNL     1      -3.915  11.821  16.638  0.00  0.00    +0.000 HD
ENDBRANCH   1  17
BRANCH   1  19
ATOM     19  C   UNL     1      -0.171  12.422  20.220  0.00  0.00    +0.000 C 
ATOM     20  O   UNL     1      -0.857  13.604  19.673  0.00  0.00    +0.000 OA
ATOM     21  C   UNL     1      -0.593  14.695  20.539  0.00  0.00    +0.000 C 
ATOM     22  N   UNL     1       0.838  14.712  20.744  0.00  0.00    +0.000 NA
ATOM     23  C   UNL     1       1.093  13.236  20.669  0.00  0.00    +0.000 C 
ATOM     24  N   UNL     1       2.011  13.090  19.507  0.00  0.00    +0.000 N 
ATOM     25  C   UNL     1       2.051  14.203  18.704  0.00  0.00    +0.000 C 
ATOM     26  O   UNL     1       2.420  14.326  17.544  0.00  0.00    +0.000 OA
ATOM     27  C   UNL     1       1.513  15.316  19.525  0.00  0.00    +0.000 C 
ATOM     28  C   UNL     1       2.395  16.531  19.680  0.00  0.00    +0.000 C 
ATOM     29  C   UNL     1       1.100  16.651  18.940  0.00  0.00    +0.000 C 
ATOM     30  C   UNL     1       1.775  11.852  18.920  0.00  0.00    +0.000 A 
ATOM     31  C   UNL     1       2.583  11.180  18.019  0.00  0.00    +0.000 A 
ATOM     32  C   UNL     1       2.252   9.862  17.709  0.00  0.00    +0.000 A 
ATOM     33  C   UNL     1       1.150   9.252  18.310  0.00  0.00    +0.000 A 
ATOM     34  C   UNL     1       0.314   9.981  19.165  0.00  0.00    +0.000 A 
ATOM     35  C   UNL     1       0.590  11.332  19.398  0.00  0.00    +0.000 A 
ENDBRANCH   1  19
TORSDOF 2
ENDMDL
MODEL 9
REMARK VINA RESULT:      -7.3      3.015      6.901
REMARK  Name = 
REMARK  2 active torsions:
REMARK  status: ('A' for Active; 'I' for Inactive)
REMARK    1  A    between atoms: C_16  and  C_17
REMARK    2  A    between atoms: C_17  and  C_18
REMARK                            x       y       z     vdW  Elec       q    Type
REMARK                         _______ _______ _______ _____ _____    ______ ____
ROOT
ATOM      1  C   UNL     1      -0.887  11.849  21.225  0.00  0.00    +0.000 C 
ENDROOT
BRANCH   1  17
ATOM      2  O   UNL     1       0.701   9.956  19.073  0.00  0.00    +0.000 OA
ATOM      3  C   UNL     1      -0.359  10.516  18.815  0.00  0.00    +0.000 C 
ATOM      4  N   UNL     1      -0.759  10.321  17.521  0.00  0.00    +0.000 N 
ATOM      5  C   UNL     1      -2.126   9.970  17.372  0.00  0.00    +0.000 C 
ATOM      6  C   UNL     1      -3.062  10.938  18.068  0.00  0.00    +0.000 A 
ATOM      7  N   UNL     1      -4.240  11.024  17.561  0.00  0.00    +0.000 NA
ATOM      8  C   UNL     1      -5.196  11.796  18.211  0.00  0.00    +0.000 A 
ATOM      9  C   UNL     1      -6.508  11.784  17.740  0.00  0.00    +0.000 A 
ATOM     10  C   UNL     1      -7.498  12.519  18.396  0.00  0.00    +0.000 A 
ATOM     11  C   UNL     1      -7.172  13.280  19.519  0.00  0.00    +0.000 A 
ATOM     12  C   UNL     1      -5.858  13.311  19.983  0.00  0.00    +0.000 A 
ATOM     13  C   UNL     1      -4.878  12.561  19.327  0.00  0.00    +0.000 A 
ATOM     14  C   UNL     1      -3.477  12.554  19.775  0.00  0.00    +0.000 A 
ATOM     15  O   UNL     1      -3.105  13.438  20.544  0.00  0.00    +0.000 OA
ATOM     16  N   UNL     1      -2.656  11.567  19.251  0.00  0.00    +0.000 N 
ATOM     17  C   UNL     1      -1.205  11.620  19.624  0.00  0.00    +0.000 C 
ATOM     18  H   UNL     1      -0.100   9.679  17.090  0.00  0.00    +0.000 HD
ENDBRANCH   1  17
BRANCH   1  19
ATOM     19  C   UNL     1      -0.127  13.169  21.376  0.00  0.00    +0.000 C 
ATOM     20  O   UNL     1       1.207  12.548  21.374  0.00  0.00    +0.000 OA
ATOM     21  C   UNL     1       1.825  12.860  20.137  0.00  0.00    +0.000 C 
ATOM     22  N   UNL     1       1.685  14.288  19.962  0.00  0.00    +0.000 NA
ATOM     23  C   UNL     1       0.363  14.469  20.647  0.00  0.00    +0.000 C 
ATOM     24  N   UNL     1       0.668  15.388  21.776  0.00  0.00    +0.000 N 
ATOM     25  C   UNL     1       2.010  15.491  22.045  0.00  0.00    +0.000 C 
ATOM     26  O   UNL     1       2.586  15.875  23.054  0.00  0.00    +0.000 OA
ATOM     27  C   UNL     1       2.706  15.003  20.829  0.00  0.00    +0.000 C 
ATOM     28  C   UNL     1       3.703  15.944  20.195  0.00  0.00    +0.000 C 
ATOM     29  C   UNL     1       4.183  14.662  20.801  0.00  0.00    +0.000 C 
ATOM     30  C   UNL     1      -0.202  15.095  22.821  0.00  0.00    +0.000 A 
ATOM     31  C   UNL     1      -0.477  15.877  23.930  0.00  0.00    +0.000 A 
ATOM     32  C   UNL     1      -1.530  15.482  24.755  0.00  0.00    +0.000 A 
ATOM     33  C   UNL     1      -2.279  14.345  24.447  0.00  0.00    +0.000 A 
ATOM     34  C   UNL     1      -1.931  13.540  23.355  0.00  0.00    +0.000 A 
ATOM     35  C   UNL     1      -0.814  13.882  22.586  0.00  0.00    +0.000 A 
ENDBRANCH   1  19
TORSDOF 2
ENDMDL
