MODEL 1
REMARK VINA RESULT:      -8.0      0.000      0.000
REMARK  Name = 
REMARK  11 active torsions:
REMARK  status: ('A' for Active; 'I' for Inactive)
REMARK    1  A    between atoms: C_1  and  C_2
REMARK    2  A    between atoms: C_2  and  N_3
REMARK    3  A    between atoms: N_3  and  C_4
REMARK    4  A    between atoms: C_4  and  C_5
REMARK    5  A    between atoms: C_4  and  C_6
REMARK    6  A    between atoms: N_9  and  C_10
REMARK    7  A    between atoms: C_17  and  C_18
REMARK    8  A    between atoms: C_18  and  O_20
REMARK    9  A    between atoms: N_22  and  C_23
REMARK   10  A    between atoms: C_27  and  O_28
REMARK   11  A    between atoms: O_28  and  C_29
REMARK                            x       y       z     vdW  Elec       q    Type
REMARK                         _______ _______ _______ _____ _____    ______ ____
ROOT
ATOM      1  C   UNL     1       4.802   5.342  17.008  0.00  0.00    +0.000 A 
ATOM      2  C   UNL     1       4.539   6.684  16.671  0.00  0.00    +0.000 A 
ATOM      3  F   UNL     1       5.024   7.217  15.538  0.00  0.00    +0.000 F 
ATOM      4  C   UNL     1       3.706   7.491  17.430  0.00  0.00    +0.000 A 
ATOM      5  C   UNL     1       3.068   6.966  18.552  0.00  0.00    +0.000 A 
ATOM      6  C   UNL     1       2.144   7.855  19.300  0.00  0.00    +0.000 A 
ATOM      7  O   UNL     1       1.954   9.022  18.959  0.00  0.00    +0.000 OA
ATOM      8  C   UNL     1       1.446   7.316  20.478  0.00  0.00    +0.000 A 
ATOM      9  C   UNL     1       1.695   6.037  20.791  0.00  0.00    +0.000 A 
ATOM     10  N   UNL     1       2.526   5.166  20.106  0.00  0.00    +0.000 N 
ATOM     11  C   UNL     1       3.264   5.629  18.959  0.00  0.00    +0.000 A 
ATOM     12  C   UNL     1       4.177   4.837  18.195  0.00  0.00    +0.000 A 
ENDROOT
BRANCH   1  16
ATOM     13  C   UNL     1       6.148   3.639  14.066  0.00  0.00    +0.000 C 
ATOM     14  C   UNL     1       7.333   4.443  14.608  0.00  0.00    +0.000 C 
ATOM     15  C   UNL     1       7.025   4.533  16.105  0.00  0.00    +0.000 C 
ATOM     16  N   UNL     1       5.559   4.496  16.189  0.00  0.00    +0.000 N 
ATOM     17  C   UNL     1       4.993   4.284  14.845  0.00  0.00    +0.000 C 
BRANCH  13  18
ATOM     18  C   UNL     1       5.941   3.659  12.535  0.00  0.00    +0.000 C 
ATOM     19  C   UNL     1       4.434   3.630  12.227  0.00  0.00    +0.000 C 
BRANCH  18  20
ATOM     20  N   UNL     1       6.645   2.514  11.924  0.00  0.00    +0.000 NA
ATOM     21  H   UNL     1       7.351   2.860  11.274  0.00  0.00    +0.000 HD
BRANCH  20  23
ATOM     22  C   UNL     1       6.286   0.167  11.294  0.00  0.00    +0.000 C 
ATOM     23  C   UNL     1       5.761   1.593  11.205  0.00  0.00    +0.000 C 
ENDBRANCH  20  23
ENDBRANCH  18  20
ENDBRANCH  13  18
ENDBRANCH   1  16
BRANCH  10  24
ATOM     24  C   UNL     1       2.638   3.781  20.613  0.00  0.00    +0.000 C 
ATOM     25  C   UNL     1       2.057   3.278  21.914  0.00  0.00    +0.000 C 
ATOM     26  C   UNL     1       1.424   2.880  20.622  0.00  0.00    +0.000 C 
ENDBRANCH  10  24
BRANCH   8  27
ATOM     27  C   UNL     1       0.499   8.093  21.302  0.00  0.00    +0.000 C 
ATOM     28  O   UNL     1      -0.680   7.797  21.429  0.00  0.00    +0.000 OA
BRANCH  27  29
ATOM     29  O   UNL     1       1.034   9.175  21.909  0.00  0.00    +0.000 OA
ATOM     30  H   UNL     1       1.525   9.778  21.298  0.00  0.00    +0.000 HD
ENDBRANCH  27  29
ENDBRANCH   8  27
BRANCH  12  31
ATOM     31  O   UNL     1       4.365   3.524  18.580  0.00  0.00    +0.000 OA
ATOM     32  C   UNL     1       3.674   2.542  17.810  0.00  0.00    +0.000 C 
ENDBRANCH  12  31
TORSDOF 8
ENDMDL
MODEL 2
REMARK VINA RESULT:      -7.8      0.929      1.197
REMARK  Name = 
REMARK  11 active torsions:
REMARK  status: ('A' for Active; 'I' for Inactive)
REMARK    1  A    between atoms: C_1  and  C_2
REMARK    2  A    between atoms: C_2  and  N_3
REMARK    3  A    between atoms: N_3  and  C_4
REMARK    4  A    between atoms: C_4  and  C_5
REMARK    5  A    between atoms: C_4  and  C_6
REMARK    6  A    between atoms: N_9  and  C_10
REMARK    7  A    between atoms: C_17  and  C_18
REMARK    8  A    between atoms: C_18  and  O_20
REMARK    9  A    between atoms: N_22  and  C_23
REMARK   10  A    between atoms: C_27  and  O_28
REMARK   11  A    between atoms: O_28  and  C_29
REMARK                            x       y       z     vdW  Elec       q    Type
REMARK                         _______ _______ _______ _____ _____    ______ ____
ROOT
ATOM      1  C   UNL     1       4.828   5.324  17.026  0.00  0.00    +0.000 A 
ATOM      2  C   UNL     1       4.551   6.652  16.650  0.00  0.00    +0.000 A 
ATOM      3  F   UNL     1       5.033   7.160  15.505  0.00  0.00    +0.000 F 
ATOM      4  C   UNL     1       3.706   7.470  17.384  0.00  0.00    +0.000 A 
ATOM      5  C   UNL     1       3.070   6.968  18.519  0.00  0.00    +0.000 A 
ATOM      6  C   UNL     1       2.133   7.867  19.238  0.00  0.00    +0.000 A 
ATOM      7  O   UNL     1       1.930   9.022  18.864  0.00  0.00    +0.000 OA
ATOM      8  C   UNL     1       1.438   7.352  20.429  0.00  0.00    +0.000 A 
ATOM      9  C   UNL     1       1.700   6.086  20.777  0.00  0.00    +0.000 A 
ATOM     10  N   UNL     1       2.544   5.206  20.120  0.00  0.00    +0.000 N 
ATOM     11  C   UNL     1       3.280   5.646  18.963  0.00  0.00    +0.000 A 
ATOM     12  C   UNL     1       4.205   4.844  18.223  0.00  0.00    +0.000 A 
ENDROOT
BRANCH   1  16
ATOM     13  C   UNL     1       6.229   3.582  14.131  0.00  0.00    +0.000 C 
ATOM     14  C   UNL     1       7.407   4.383  14.693  0.00  0.00    +0.000 C 
ATOM     15  C   UNL     1       7.066   4.491  16.181  0.00  0.00    +0.000 C 
ATOM     16  N   UNL     1       5.598   4.464  16.232  0.00  0.00    +0.000 N 
ATOM     17  C   UNL     1       5.061   4.242  14.878  0.00  0.00    +0.000 C 
BRANCH  13  18
ATOM     18  C   UNL     1       6.057   3.588  12.596  0.00  0.00    +0.000 C 
ATOM     19  C   UNL     1       7.050   4.587  11.979  0.00  0.00    +0.000 C 
BRANCH  18  20
ATOM     20  N   UNL     1       4.661   3.924  12.255  0.00  0.00    +0.000 NA
ATOM     21  H   UNL     1       4.085   3.866  13.095  0.00  0.00    +0.000 HD
BRANCH  20  23
ATOM     22  C   UNL     1       3.265   3.871  10.235  0.00  0.00    +0.000 C 
ATOM     23  C   UNL     1       4.078   3.055  11.230  0.00  0.00    +0.000 C 
ENDBRANCH  20  23
ENDBRANCH  18  20
ENDBRANCH  13  18
ENDBRANCH   1  16
BRANCH  10  24
ATOM     24  C   UNL     1       2.670   3.837  20.665  0.00  0.00    +0.000 C 
ATOM     25  C   UNL     1       1.997   3.332  21.920  0.00  0.00    +0.000 C 
ATOM     26  C   UNL     1       1.501   2.882  20.585  0.00  0.00    +0.000 C 
ENDBRANCH  10  24
BRANCH   8  27
ATOM     27  C   UNL     1       0.478   8.141  21.228  0.00  0.00    +0.000 C 
ATOM     28  O   UNL     1      -0.678   7.796  21.422  0.00  0.00    +0.000 OA
BRANCH  27  29
ATOM     29  O   UNL     1       0.975   9.291  21.732  0.00  0.00    +0.000 OA
ATOM     30  H   UNL     1       1.962   9.319  21.777  0.00  0.00    +0.000 HD
ENDBRANCH  27  29
ENDBRANCH   8  27
BRANCH  12  31
ATOM     31  O   UNL     1       4.407   3.545  18.645  0.00  0.00    +0.000 OA
ATOM     32  C   UNL     1       3.778   2.529  17.865  0.00  0.00    +0.000 C 
ENDBRANCH  12  31
TORSDOF 8
ENDMDL
MODEL 3
REMARK VINA RESULT:      -6.6      5.013      8.408
REMARK  Name = 
REMARK  11 active torsions:
REMARK  status: ('A' for Active; 'I' for Inactive)
REMARK    1  A    between atoms: C_1  and  C_2
REMARK    2  A    between atoms: C_2  and  N_3
REMARK    3  A    between atoms: N_3  and  C_4
REMARK    4  A    between atoms: C_4  and  C_5
REMARK    5  A    between atoms: C_4  and  C_6
REMARK    6  A    between atoms: N_9  and  C_10
REMARK    7  A    between atoms: C_17  and  C_18
REMARK    8  A    between atoms: C_18  and  O_20
REMARK    9  A    between atoms: N_22  and  C_23
REMARK   10  A    between atoms: C_27  and  O_28
REMARK   11  A    between atoms: O_28  and  C_29
REMARK                            x       y       z     vdW  Elec       q    Type
REMARK                         _______ _______ _______ _____ _____    ______ ____
ROOT
ATOM      1  C   UNL     1       0.046  10.137  18.770  0.00  0.00    +0.000 A 
ATOM      2  C   UNL     1      -0.863   9.830  17.739  0.00  0.00    +0.000 A 
ATOM      3  F   UNL     1      -0.560   8.917  16.802  0.00  0.00    +0.000 F 
ATOM      4  C   UNL     1      -2.135  10.377  17.683  0.00  0.00    +0.000 A 
ATOM      5  C   UNL     1      -2.563  11.239  18.693  0.00  0.00    +0.000 A 
ATOM      6  C   UNL     1      -3.953  11.755  18.616  0.00  0.00    +0.000 A 
ATOM      7  O   UNL     1      -4.704  11.453  17.689  0.00  0.00    +0.000 OA
ATOM      8  C   UNL     1      -4.431  12.651  19.681  0.00  0.00    +0.000 A 
ATOM      9  C   UNL     1      -3.564  12.934  20.662  0.00  0.00    +0.000 A 
ATOM     10  N   UNL     1      -2.271  12.454  20.787  0.00  0.00    +0.000 N 
ATOM     11  C   UNL     1      -1.724  11.593  19.770  0.00  0.00    +0.000 A 
ATOM     12  C   UNL     1      -0.395  11.064  19.770  0.00  0.00    +0.000 A 
ENDROOT
BRANCH   1  16
ATOM     13  C   UNL     1       2.626   7.593  19.262  0.00  0.00    +0.000 C 
ATOM     14  C   UNL     1       2.795   8.019  17.800  0.00  0.00    +0.000 C 
ATOM     15  C   UNL     1       2.291   9.465  17.809  0.00  0.00    +0.000 C 
ATOM     16  N   UNL     1       1.292   9.508  18.885  0.00  0.00    +0.000 N 
ATOM     17  C   UNL     1       1.255   8.207  19.576  0.00  0.00    +0.000 C 
BRANCH  13  18
ATOM     18  C   UNL     1       2.702   6.078  19.554  0.00  0.00    +0.000 C 
ATOM     19  C   UNL     1       2.270   5.298  18.300  0.00  0.00    +0.000 C 
BRANCH  18  20
ATOM     20  N   UNL     1       1.853   5.755  20.717  0.00  0.00    +0.000 NA
ATOM     21  H   UNL     1       2.415   5.799  21.567  0.00  0.00    +0.000 HD
BRANCH  20  23
ATOM     22  C   UNL     1       1.976   3.434  21.513  0.00  0.00    +0.000 C 
ATOM     23  C   UNL     1       1.227   4.432  20.641  0.00  0.00    +0.000 C 
ENDBRANCH  20  23
ENDBRANCH  18  20
ENDBRANCH  13  18
ENDBRANCH   1  16
BRANCH  10  24
ATOM     24  C   UNL     1      -1.492  12.877  21.970  0.00  0.00    +0.000 C 
ATOM     25  C   UNL     1      -2.049  13.616  23.164  0.00  0.00    +0.000 C 
ATOM     26  C   UNL     1      -1.686  12.174  23.294  0.00  0.00    +0.000 C 
ENDBRANCH  10  24
BRANCH   8  27
ATOM     27  C   UNL     1      -5.791  13.227  19.725  0.00  0.00    +0.000 C 
ATOM     28  O   UNL     1      -6.579  13.017  20.635  0.00  0.00    +0.000 OA
BRANCH  27  29
ATOM     29  O   UNL     1      -6.107  14.006  18.669  0.00  0.00    +0.000 OA
ATOM     30  H   UNL     1      -6.015  13.557  17.793  0.00  0.00    +0.000 HD
ENDBRANCH  27  29
ENDBRANCH   8  27
BRANCH  12  31
ATOM     31  O   UNL     1       0.428  11.397  20.827  0.00  0.00    +0.000 OA
ATOM     32  C   UNL     1       1.447  12.356  20.547  0.00  0.00    +0.000 C 
ENDBRANCH  12  31
TORSDOF 8
ENDMDL
MODEL 4
REMARK VINA RESULT:      -6.5      0.874      1.604
REMARK  Name = 
REMARK  11 active torsions:
REMARK  status: ('A' for Active; 'I' for Inactive)
REMARK    1  A    between atoms: C_1  and  C_2
REMARK    2  A    between atoms: C_2  and  N_3
REMARK    3  A    between atoms: N_3  and  C_4
REMARK    4  A    between atoms: C_4  and  C_5
REMARK    5  A    between atoms: C_4  and  C_6
REMARK    6  A    between atoms: N_9  and  C_10
REMARK    7  A    between atoms: C_17  and  C_18
REMARK    8  A    between atoms: C_18  and  O_20
REMARK    9  A    between atoms: N_22  and  C_23
REMARK   10  A    between atoms: C_27  and  O_28
REMARK   11  A    between atoms: O_28  and  C_29
REMARK                            x       y       z     vdW  Elec       q    Type
REMARK                         _______ _______ _______ _____ _____    ______ ____
ROOT
ATOM      1  C   UNL     1       4.651   5.307  17.087  0.00  0.00    +0.000 A 
ATOM      2  C   UNL     1       4.417   6.659  16.772  0.00  0.00    +0.000 A 
ATOM      3  F   UNL     1       4.896   7.196  15.638  0.00  0.00    +0.000 F 
ATOM      4  C   UNL     1       3.618   7.476  17.557  0.00  0.00    +0.000 A 
ATOM      5  C   UNL     1       2.987   6.951  18.683  0.00  0.00    +0.000 A 
ATOM      6  C   UNL     1       2.099   7.853  19.459  0.00  0.00    +0.000 A 
ATOM      7  O   UNL     1       1.932   9.030  19.137  0.00  0.00    +0.000 OA
ATOM      8  C   UNL     1       1.408   7.315  20.642  0.00  0.00    +0.000 A 
ATOM      9  C   UNL     1       1.629   6.026  20.932  0.00  0.00    +0.000 A 
ATOM     10  N   UNL     1       2.426   5.144  20.221  0.00  0.00    +0.000 N 
ATOM     11  C   UNL     1       3.155   5.604  19.068  0.00  0.00    +0.000 A 
ATOM     12  C   UNL     1       4.034   4.800  18.277  0.00  0.00    +0.000 A 
ENDROOT
BRANCH   1  16
ATOM     13  C   UNL     1       6.027   3.723  14.091  0.00  0.00    +0.000 C 
ATOM     14  C   UNL     1       7.248   4.333  14.787  0.00  0.00    +0.000 C 
ATOM     15  C   UNL     1       6.836   4.327  16.262  0.00  0.00    +0.000 C 
ATOM     16  N   UNL     1       5.373   4.453  16.243  0.00  0.00    +0.000 N 
ATOM     17  C   UNL     1       4.893   4.426  14.850  0.00  0.00    +0.000 C 
BRANCH  13  18
ATOM     18  C   UNL     1       5.943   3.901  12.559  0.00  0.00    +0.000 C 
ATOM     19  C   UNL     1       5.303   2.647  11.938  0.00  0.00    +0.000 C 
BRANCH  18  20
ATOM     20  N   UNL     1       7.292   4.153  12.014  0.00  0.00    +0.000 NA
ATOM     21  H   UNL     1       7.988   3.949  12.731  0.00  0.00    +0.000 HD
BRANCH  20  23
ATOM     22  C   UNL     1       8.648   6.182  12.287  0.00  0.00    +0.000 C 
ATOM     23  C   UNL     1       7.492   5.526  11.546  0.00  0.00    +0.000 C 
ENDBRANCH  20  23
ENDBRANCH  18  20
ENDBRANCH  13  18
ENDBRANCH   1  16
BRANCH  10  24
ATOM     24  C   UNL     1       2.510   3.750  20.707  0.00  0.00    +0.000 C 
ATOM     25  C   UNL     1       1.821   3.211  21.939  0.00  0.00    +0.000 C 
ATOM     26  C   UNL     1       1.314   2.834  20.587  0.00  0.00    +0.000 C 
ENDBRANCH  10  24
BRANCH   8  27
ATOM     27  C   UNL     1       0.494   8.105  21.493  0.00  0.00    +0.000 C 
ATOM     28  O   UNL     1       0.877   8.972  22.264  0.00  0.00    +0.000 OA
BRANCH  27  29
ATOM     29  O   UNL     1      -0.813   7.790  21.360  0.00  0.00    +0.000 OA
ATOM     30  H   UNL     1      -1.382   8.113  22.100  0.00  0.00    +0.000 HD
ENDBRANCH  27  29
ENDBRANCH   8  27
BRANCH  12  31
ATOM     31  O   UNL     1       4.195   3.478  18.641  0.00  0.00    +0.000 OA
ATOM     32  C   UNL     1       3.562   2.516  17.798  0.00  0.00    +0.000 C 
ENDBRANCH  12  31
TORSDOF 8
ENDMDL
MODEL 5
REMARK VINA RESULT:      -6.5      3.970      8.205
REMARK  Name = 
REMARK  11 active torsions:
REMARK  status: ('A' for Active; 'I' for Inactive)
REMARK    1  A    between atoms: C_1  and  C_2
REMARK    2  A    between atoms: C_2  and  N_3
REMARK    3  A    between atoms: N_3  and  C_4
REMARK    4  A    between atoms: C_4  and  C_5
REMARK    5  A    between atoms: C_4  and  C_6
REMARK    6  A    between atoms: N_9  and  C_10
REMARK    7  A    between atoms: C_17  and  C_18
REMARK    8  A    between atoms: C_18  and  O_20
REMARK    9  A    between atoms: N_22  and  C_23
REMARK   10  A    between atoms: C_27  and  O_28
REMARK   11  A    between atoms: O_28  and  C_29
REMARK                            x       y       z     vdW  Elec       q    Type
REMARK                         _______ _______ _______ _____ _____    ______ ____
ROOT
ATOM      1  C   UNL     1       1.102   8.908  19.601  0.00  0.00    +0.000 A 
ATOM      2  C   UNL     1       0.638   8.164  20.702  0.00  0.00    +0.000 A 
ATOM      3  F   UNL     1      -0.365   8.621  21.470  0.00  0.00    +0.000 F 
ATOM      4  C   UNL     1       1.120   6.899  21.001  0.00  0.00    +0.000 A 
ATOM      5  C   UNL     1       2.074   6.309  20.173  0.00  0.00    +0.000 A 
ATOM      6  C   UNL     1       2.518   4.932  20.505  0.00  0.00    +0.000 A 
ATOM      7  O   UNL     1       2.078   4.329  21.483  0.00  0.00    +0.000 OA
ATOM      8  C   UNL     1       3.512   4.283  19.634  0.00  0.00    +0.000 A 
ATOM      9  C   UNL     1       3.945   4.993  18.584  0.00  0.00    +0.000 A 
ATOM     10  N   UNL     1       3.538   6.267  18.223  0.00  0.00    +0.000 N 
ATOM     11  C   UNL     1       2.588   6.976  19.041  0.00  0.00    +0.000 A 
ATOM     12  C   UNL     1       2.120   8.304  18.793  0.00  0.00    +0.000 A 
ENDROOT
BRANCH   1  16
ATOM     13  C   UNL     1      -1.185  11.439  18.285  0.00  0.00    +0.000 C 
ATOM     14  C   UNL     1      -1.147  11.716  19.790  0.00  0.00    +0.000 C 
ATOM     15  C   UNL     1       0.244  11.216  20.192  0.00  0.00    +0.000 C 
ATOM     16  N   UNL     1       0.545  10.141  19.238  0.00  0.00    +0.000 N 
ATOM     17  C   UNL     1      -0.534  10.049  18.239  0.00  0.00    +0.000 C 
BRANCH  13  18
ATOM     18  C   UNL     1      -2.573  11.489  17.607  0.00  0.00    +0.000 C 
ATOM     19  C   UNL     1      -3.379  10.243  18.010  0.00  0.00    +0.000 C 
BRANCH  18  20
ATOM     20  N   UNL     1      -2.407  11.581  16.143  0.00  0.00    +0.000 NA
ATOM     21  H   UNL     1      -2.360  12.563  15.871  0.00  0.00    +0.000 HD
BRANCH  20  23
ATOM     22  C   UNL     1      -2.911   9.967  14.363  0.00  0.00    +0.000 C 
ATOM     23  C   UNL     1      -3.483  10.938  15.385  0.00  0.00    +0.000 C 
ENDBRANCH  20  23
ENDBRANCH  18  20
ENDBRANCH  13  18
ENDBRANCH   1  16
BRANCH  10  24
ATOM     24  C   UNL     1       4.130   6.858  17.004  0.00  0.00    +0.000 C 
ATOM     25  C   UNL     1       5.602   7.128  16.791  0.00  0.00    +0.000 C 
ATOM     26  C   UNL     1       4.946   5.998  16.067  0.00  0.00    +0.000 C 
ENDBRANCH  10  24
BRANCH   8  27
ATOM     27  C   UNL     1       4.030   2.917  19.850  0.00  0.00    +0.000 C 
ATOM     28  O   UNL     1       5.220   2.658  19.951  0.00  0.00    +0.000 OA
BRANCH  27  29
ATOM     29  O   UNL     1       3.080   1.959  19.923  0.00  0.00    +0.000 OA
ATOM     30  H   UNL     1       2.471   1.935  19.144  0.00  0.00    +0.000 HD
ENDBRANCH  27  29
ENDBRANCH   8  27
BRANCH  12  31
ATOM     31  O   UNL     1       2.610   8.959  17.680  0.00  0.00    +0.000 OA
ATOM     32  C   UNL     1       2.846  10.359  17.832  0.00  0.00    +0.000 C 
ENDBRANCH  12  31
TORSDOF 8
ENDMDL
MODEL 6
REMARK VINA RESULT:      -6.3      5.282      8.503
REMARK  Name = 
REMARK  11 active torsions:
REMARK  status: ('A' for Active; 'I' for Inactive)
REMARK    1  A    between atoms: C_1  and  C_2
REMARK    2  A    between atoms: C_2  and  N_3
REMARK    3  A    between atoms: N_3  and  C_4
REMARK    4  A    between atoms: C_4  and  C_5
REMARK    5  A    between atoms: C_4  and  C_6
REMARK    6  A    between atoms: N_9  and  C_10
REMARK    7  A    between atoms: C_17  and  C_18
REMARK    8  A    between atoms: C_18  and  O_20
REMARK    9  A    between atoms: N_22  and  C_23
REMARK   10  A    between atoms: C_27  and  O_28
REMARK   11  A    between atoms: O_28  and  C_29
REMARK                            x       y       z     vdW  Elec       q    Type
REMARK                         _______ _______ _______ _____ _____    ______ ____
ROOT
ATOM      1  C   UNL     1      -0.282  10.374  18.834  0.00  0.00    +0.000 A 
ATOM      2  C   UNL     1      -1.167  10.072  17.782  0.00  0.00    +0.000 A 
ATOM      3  F   UNL     1      -0.836   9.177  16.837  0.00  0.00    +0.000 F 
ATOM      4  C   UNL     1      -2.445  10.605  17.710  0.00  0.00    +0.000 A 
ATOM      5  C   UNL     1      -2.902  11.445  18.724  0.00  0.00    +0.000 A 
ATOM      6  C   UNL     1      -4.296  11.946  18.629  0.00  0.00    +0.000 A 
ATOM      7  O   UNL     1      -5.026  11.649  17.683  0.00  0.00    +0.000 OA
ATOM      8  C   UNL     1      -4.805  12.821  19.698  0.00  0.00    +0.000 A 
ATOM      9  C   UNL     1      -3.961  13.099  20.699  0.00  0.00    +0.000 A 
ATOM     10  N   UNL     1      -2.664  12.632  20.842  0.00  0.00    +0.000 N 
ATOM     11  C   UNL     1      -2.087  11.793  19.823  0.00  0.00    +0.000 A 
ATOM     12  C   UNL     1      -0.753  11.280  19.839  0.00  0.00    +0.000 A 
ENDROOT
BRANCH   1  16
ATOM     13  C   UNL     1       2.322   7.845  19.277  0.00  0.00    +0.000 C 
ATOM     14  C   UNL     1       2.543   8.365  17.854  0.00  0.00    +0.000 C 
ATOM     15  C   UNL     1       2.013   9.799  17.930  0.00  0.00    +0.000 C 
ATOM     16  N   UNL     1       0.970   9.758  18.963  0.00  0.00    +0.000 N 
ATOM     17  C   UNL     1       0.927   8.416  19.569  0.00  0.00    +0.000 C 
BRANCH  13  18
ATOM     18  C   UNL     1       2.412   6.315  19.476  0.00  0.00    +0.000 C 
ATOM     19  C   UNL     1       1.557   5.911  20.689  0.00  0.00    +0.000 C 
BRANCH  18  20
ATOM     20  N   UNL     1       3.824   5.920  19.648  0.00  0.00    +0.000 NA
ATOM     21  H   UNL     1       4.420   6.562  19.124  0.00  0.00    +0.000 HD
BRANCH  20  23
ATOM     22  C   UNL     1       3.785   4.385  17.732  0.00  0.00    +0.000 C 
ATOM     23  C   UNL     1       4.112   4.553  19.208  0.00  0.00    +0.000 C 
ENDBRANCH  20  23
ENDBRANCH  18  20
ENDBRANCH  13  18
ENDBRANCH   1  16
BRANCH  10  24
ATOM     24  C   UNL     1      -1.912  13.047  22.045  0.00  0.00    +0.000 C 
ATOM     25  C   UNL     1      -2.496  13.784  23.228  0.00  0.00    +0.000 C 
ATOM     26  C   UNL     1      -2.143  12.340  23.361  0.00  0.00    +0.000 C 
ENDBRANCH  10  24
BRANCH   8  27
ATOM     27  C   UNL     1      -6.173  13.379  19.724  0.00  0.00    +0.000 C 
ATOM     28  O   UNL     1      -6.963  13.177  20.635  0.00  0.00    +0.000 OA
BRANCH  27  29
ATOM     29  O   UNL     1      -6.494  14.134  18.652  0.00  0.00    +0.000 OA
ATOM     30  H   UNL     1      -6.935  13.632  17.923  0.00  0.00    +0.000 HD
ENDBRANCH  27  29
ENDBRANCH   8  27
BRANCH  12  31
ATOM     31  O   UNL     1       0.046  11.608  20.916  0.00  0.00    +0.000 OA
ATOM     32  C   UNL     1       1.152  12.466  20.636  0.00  0.00    +0.000 C 
ENDBRANCH  12  31
TORSDOF 8
ENDMDL
MODEL 7
REMARK VINA RESULT:      -6.3      3.740      9.012
REMARK  Name = 
REMARK  11 active torsions:
REMARK  status: ('A' for Active; 'I' for Inactive)
REMARK    1  A    between atoms: C_1  and  C_2
REMARK    2  A    between atoms: C_2  and  N_3
REMARK    3  A    between atoms: N_3  and  C_4
REMARK    4  A    between atoms: C_4  and  C_5
REMARK    5  A    between atoms: C_4  and  C_6
REMARK    6  A    between atoms: N_9  and  C_10
REMARK    7  A    between atoms: C_17  and  C_18
REMARK    8  A    between atoms: C_18  and  O_20
REMARK    9  A    between atoms: N_22  and  C_23
REMARK   10  A    between atoms: C_27  and  O_28
REMARK   11  A    between atoms: O_28  and  C_29
REMARK                            x       y       z     vdW  Elec       q    Type
REMARK                         _______ _______ _______ _____ _____    ______ ____
ROOT
ATOM      1  C   UNL     1       1.334   8.522  20.100  0.00  0.00    +0.000 A 
ATOM      2  C   UNL     1       0.781   7.613  21.022  0.00  0.00    +0.000 A 
ATOM      3  F   UNL     1      -0.229   7.976  21.828  0.00  0.00    +0.000 F 
ATOM      4  C   UNL     1       1.180   6.287  21.087  0.00  0.00    +0.000 A 
ATOM      5  C   UNL     1       2.137   5.807  20.194  0.00  0.00    +0.000 A 
ATOM      6  C   UNL     1       2.490   4.367  20.270  0.00  0.00    +0.000 A 
ATOM      7  O   UNL     1       1.974   3.618  21.099  0.00  0.00    +0.000 OA
ATOM      8  C   UNL     1       3.485   3.836  19.324  0.00  0.00    +0.000 A 
ATOM      9  C   UNL     1       4.003   4.704  18.445  0.00  0.00    +0.000 A 
ATOM     10  N   UNL     1       3.682   6.046  18.322  0.00  0.00    +0.000 N 
ATOM     11  C   UNL     1       2.736   6.644  19.229  0.00  0.00    +0.000 A 
ATOM     12  C   UNL     1       2.353   8.021  19.225  0.00  0.00    +0.000 A 
ENDROOT
BRANCH   1  16
ATOM     13  C   UNL     1      -0.872  11.384  19.537  0.00  0.00    +0.000 C 
ATOM     14  C   UNL     1      -0.456  11.515  21.005  0.00  0.00    +0.000 C 
ATOM     15  C   UNL     1       0.919  10.841  21.029  0.00  0.00    +0.000 C 
ATOM     16  N   UNL     1       0.861   9.833  19.962  0.00  0.00    +0.000 N 
ATOM     17  C   UNL     1      -0.422   9.945  19.246  0.00  0.00    +0.000 C 
BRANCH  13  18
ATOM     18  C   UNL     1      -2.362  11.637  19.215  0.00  0.00    +0.000 C 
ATOM     19  C   UNL     1      -2.579  11.523  17.696  0.00  0.00    +0.000 C 
BRANCH  18  20
ATOM     20  N   UNL     1      -2.761  12.964  19.725  0.00  0.00    +0.000 NA
ATOM     21  H   UNL     1      -2.062  13.293  20.391  0.00  0.00    +0.000 HD
BRANCH  20  23
ATOM     22  C   UNL     1      -3.921  12.787  21.882  0.00  0.00    +0.000 C 
ATOM     23  C   UNL     1      -4.071  12.974  20.380  0.00  0.00    +0.000 C 
ENDBRANCH  20  23
ENDBRANCH  18  20
ENDBRANCH  13  18
ENDBRANCH   1  16
BRANCH  10  24
ATOM     24  C   UNL     1       4.359   6.820  17.261  0.00  0.00    +0.000 C 
ATOM     25  C   UNL     1       5.855   6.902  17.059  0.00  0.00    +0.000 C 
ATOM     26  C   UNL     1       5.025   6.102  16.109  0.00  0.00    +0.000 C 
ENDBRANCH  10  24
BRANCH   8  27
ATOM     27  C   UNL     1       3.918   2.424  19.291  0.00  0.00    +0.000 C 
ATOM     28  O   UNL     1       3.290   1.542  18.723  0.00  0.00    +0.000 OA
BRANCH  27  29
ATOM     29  O   UNL     1       5.071   2.172  19.947  0.00  0.00    +0.000 OA
ATOM     30  H   UNL     1       5.832   1.951  19.356  0.00  0.00    +0.000 HD
ENDBRANCH  27  29
ENDBRANCH   8  27
BRANCH  12  31
ATOM     31  O   UNL     1       2.927   8.844  18.277  0.00  0.00    +0.000 OA
ATOM     32  C   UNL     1       2.038   9.394  17.305  0.00  0.00    +0.000 C 
ENDBRANCH  12  31
TORSDOF 8
ENDMDL
MODEL 8
REMARK VINA RESULT:      -6.2      4.125      6.547
REMARK  Name = 
REMARK  11 active torsions:
REMARK  status: ('A' for Active; 'I' for Inactive)
REMARK    1  A    between atoms: C_1  and  C_2
REMARK    2  A    between atoms: C_2  and  N_3
REMARK    3  A    between atoms: N_3  and  C_4
REMARK    4  A    between atoms: C_4  and  C_5
REMARK    5  A    between atoms: C_4  and  C_6
REMARK    6  A    between atoms: N_9  and  C_10
REMARK    7  A    between atoms: C_17  and  C_18
REMARK    8  A    between atoms: C_18  and  O_20
REMARK    9  A    between atoms: N_22  and  C_23
REMARK   10  A    between atoms: C_27  and  O_28
REMARK   11  A    between atoms: O_28  and  C_29
REMARK                            x       y       z     vdW  Elec       q    Type
REMARK                         _______ _______ _______ _____ _____    ______ ____
ROOT
ATOM      1  C   UNL     1       1.742   7.671  19.583  0.00  0.00    +0.000 A 
ATOM      2  C   UNL     1       1.502   7.246  20.903  0.00  0.00    +0.000 A 
ATOM      3  F   UNL     1       1.969   6.067  21.344  0.00  0.00    +0.000 F 
ATOM      4  C   UNL     1       0.857   8.045  21.835  0.00  0.00    +0.000 A 
ATOM      5  C   UNL     1       0.454   9.332  21.482  0.00  0.00    +0.000 A 
ATOM      6  C   UNL     1      -0.183  10.167  22.532  0.00  0.00    +0.000 A 
ATOM      7  O   UNL     1      -0.370   9.741  23.671  0.00  0.00    +0.000 OA
ATOM      8  C   UNL     1      -0.600  11.536  22.186  0.00  0.00    +0.000 A 
ATOM      9  C   UNL     1      -0.363  11.937  20.930  0.00  0.00    +0.000 A 
ATOM     10  N   UNL     1       0.253  11.202  19.930  0.00  0.00    +0.000 N 
ATOM     11  C   UNL     1       0.664   9.846  20.185  0.00  0.00    +0.000 A 
ATOM     12  C   UNL     1       1.275   8.978  19.226  0.00  0.00    +0.000 A 
ENDROOT
BRANCH   1  16
ATOM     13  C   UNL     1       4.227   5.397  18.160  0.00  0.00    +0.000 C 
ATOM     14  C   UNL     1       2.890   4.694  17.910  0.00  0.00    +0.000 C 
ATOM     15  C   UNL     1       1.904   5.863  17.817  0.00  0.00    +0.000 C 
ATOM     16  N   UNL     1       2.483   6.909  18.671  0.00  0.00    +0.000 N 
ATOM     17  C   UNL     1       3.795   6.467  19.173  0.00  0.00    +0.000 C 
BRANCH  13  18
ATOM     18  C   UNL     1       5.391   4.512  18.660  0.00  0.00    +0.000 C 
ATOM     19  C   UNL     1       4.820   3.320  19.447  0.00  0.00    +0.000 C 
BRANCH  18  20
ATOM     20  N   UNL     1       6.309   5.321  19.485  0.00  0.00    +0.000 NA
ATOM     21  H   UNL     1       5.881   6.227  19.677  0.00  0.00    +0.000 HD
BRANCH  20  23
ATOM     22  C   UNL     1       7.604   6.820  18.033  0.00  0.00    +0.000 C 
ATOM     23  C   UNL     1       7.617   5.546  18.865  0.00  0.00    +0.000 C 
ENDBRANCH  20  23
ENDBRANCH  18  20
ENDBRANCH  13  18
ENDBRANCH   1  16
BRANCH  10  24
ATOM     24  C   UNL     1       0.438  11.852  18.615  0.00  0.00    +0.000 C 
ATOM     25  C   UNL     1       0.005  13.257  18.266  0.00  0.00    +0.000 C 
ATOM     26  C   UNL     1       1.456  12.958  18.455  0.00  0.00    +0.000 C 
ENDBRANCH  10  24
BRANCH   8  27
ATOM     27  C   UNL     1      -1.238  12.468  23.138  0.00  0.00    +0.000 C 
ATOM     28  O   UNL     1      -0.708  13.499  23.525  0.00  0.00    +0.000 OA
BRANCH  27  29
ATOM     29  O   UNL     1      -2.463  12.090  23.561  0.00  0.00    +0.000 OA
ATOM     30  H   UNL     1      -2.736  11.191  23.256  0.00  0.00    +0.000 HD
ENDBRANCH  27  29
ENDBRANCH   8  27
BRANCH  12  31
ATOM     31  O   UNL     1       1.493   9.478  17.958  0.00  0.00    +0.000 OA
ATOM     32  C   UNL     1       2.857   9.699  17.599  0.00  0.00    +0.000 C 
ENDBRANCH  12  31
TORSDOF 8
ENDMDL
MODEL 9
REMARK VINA RESULT:      -6.2      3.013      8.310
REMARK  Name = 
REMARK  11 active torsions:
REMARK  status: ('A' for Active; 'I' for Inactive)
REMARK    1  A    between atoms: C_1  and  C_2
REMARK    2  A    between atoms: C_2  and  N_3
REMARK    3  A    between atoms: N_3  and  C_4
REMARK    4  A    between atoms: C_4  and  C_5
REMARK    5  A    between atoms: C_4  and  C_6
REMARK    6  A    between atoms: N_9  and  C_10
REMARK    7  A    between atoms: C_17  and  C_18
REMARK    8  A    between atoms: C_18  and  O_20
REMARK    9  A    between atoms: N_22  and  C_23
REMARK   10  A    between atoms: C_27  and  O_28
REMARK   11  A    between atoms: O_28  and  C_29
REMARK                            x       y       z     vdW  Elec       q    Type
REMARK                         _______ _______ _______ _____ _____    ______ ____
ROOT
ATOM      1  C   UNL     1       2.013   7.189  19.741  0.00  0.00    +0.000 A 
ATOM      2  C   UNL     1       2.426   8.093  18.744  0.00  0.00    +0.000 A 
ATOM      3  F   UNL     1       2.071   9.387  18.795  0.00  0.00    +0.000 F 
ATOM      4  C   UNL     1       3.283   7.726  17.717  0.00  0.00    +0.000 A 
ATOM      5  C   UNL     1       3.792   6.429  17.672  0.00  0.00    +0.000 A 
ATOM      6  C   UNL     1       4.748   6.102  16.584  0.00  0.00    +0.000 A 
ATOM      7  O   UNL     1       5.073   6.934  15.737  0.00  0.00    +0.000 OA
ATOM      8  C   UNL     1       5.311   4.743  16.527  0.00  0.00    +0.000 A 
ATOM      9  C   UNL     1       4.919   3.889  17.482  0.00  0.00    +0.000 A 
ATOM     10  N   UNL     1       4.054   4.161  18.529  0.00  0.00    +0.000 N 
ATOM     11  C   UNL     1       3.441   5.460  18.636  0.00  0.00    +0.000 A 
ATOM     12  C   UNL     1       2.507   5.847  19.646  0.00  0.00    +0.000 A 
ENDROOT
BRANCH   1  16
ATOM     13  C   UNL     1       0.335   9.244  22.258  0.00  0.00    +0.000 C 
ATOM     14  C   UNL     1      -0.812   8.627  21.453  0.00  0.00    +0.000 C 
ATOM     15  C   UNL     1      -0.207   7.312  20.954  0.00  0.00    +0.000 C 
ATOM     16  N   UNL     1       1.231   7.583  20.835  0.00  0.00    +0.000 N 
ATOM     17  C   UNL     1       1.521   8.939  21.332  0.00  0.00    +0.000 C 
BRANCH  13  18
ATOM     18  C   UNL     1       0.204  10.742  22.613  0.00  0.00    +0.000 C 
ATOM     19  C   UNL     1      -1.262  11.054  22.960  0.00  0.00    +0.000 C 
BRANCH  18  20
ATOM     20  N   UNL     1       0.684  11.563  21.484  0.00  0.00    +0.000 NA
ATOM     21  H   UNL     1       1.317  12.282  21.836  0.00  0.00    +0.000 HD
BRANCH  20  23
ATOM     22  C   UNL     1      -0.466  11.661  19.317  0.00  0.00    +0.000 C 
ATOM     23  C   UNL     1      -0.389  12.216  20.731  0.00  0.00    +0.000 C 
ENDBRANCH  20  23
ENDBRANCH  18  20
ENDBRANCH  13  18
ENDBRANCH   1  16
BRANCH  10  24
ATOM     24  C   UNL     1       3.775   3.073  19.491  0.00  0.00    +0.000 C 
ATOM     25  C   UNL     1       3.855   1.595  19.184  0.00  0.00    +0.000 C 
ATOM     26  C   UNL     1       4.910   2.231  20.028  0.00  0.00    +0.000 C 
ENDBRANCH  10  24
BRANCH   8  27
ATOM     27  C   UNL     1       6.275   4.293  15.502  0.00  0.00    +0.000 C 
ATOM     28  O   UNL     1       5.986   3.515  14.604  0.00  0.00    +0.000 OA
BRANCH  27  29
ATOM     29  O   UNL     1       7.518   4.805  15.633  0.00  0.00    +0.000 OA
ATOM     30  H   UNL     1       8.231   4.233  15.259  0.00  0.00    +0.000 HD
ENDBRANCH  27  29
ENDBRANCH   8  27
BRANCH  12  31
ATOM     31  O   UNL     1       2.168   4.908  20.599  0.00  0.00    +0.000 OA
ATOM     32  C   UNL     1       0.995   4.139  20.330  0.00  0.00    +0.000 C 
ENDBRANCH  12  31
TORSDOF 8
ENDMDL
