MODEL 1
REMARK VINA RESULT:      -7.7      0.000      0.000
REMARK  Name = 
REMARK  6 active torsions:
REMARK  status: ('A' for Active; 'I' for Inactive)
REMARK    1  A    between atoms: C_1  and  C_2
REMARK    2  A    between atoms: C_2  and  N_3
REMARK    3  A    between atoms: C_8  and  C_9
REMARK    4  A    between atoms: C_9  and  C_10
REMARK    5  A    between atoms: N_17  and  C_18
REMARK    6  A    between atoms: C_18  and  C_19
REMARK                            x       y       z     vdW  Elec       q    Type
REMARK                         _______ _______ _______ _____ _____    ______ ____
ROOT
ATOM      1  N   UNL     1       5.568   5.192  16.858  0.00  0.00    +0.000 N 
ATOM      2  C   UNL     1       5.436   6.569  17.076  0.00  0.00    +0.000 A 
ATOM      3  O   UNL     1       6.328   7.394  16.913  0.00  0.00    +0.000 OA
ATOM      4  C   UNL     1       4.132   6.931  17.496  0.00  0.00    +0.000 A 
ATOM      5  N   UNL     1       3.597   8.155  17.771  0.00  0.00    +0.000 N 
ATOM      6  C   UNL     1       2.273   7.947  18.096  0.00  0.00    +0.000 A 
ATOM      7  N   UNL     1       1.974   6.658  18.062  0.00  0.00    +0.000 NA
ATOM      8  C   UNL     1       3.131   6.039  17.696  0.00  0.00    +0.000 A 
ATOM      9  N   UNL     1       3.314   4.690  17.520  0.00  0.00    +0.000 N 
ATOM     10  C   UNL     1       4.567   4.225  17.104  0.00  0.00    +0.000 A 
ATOM     11  O   UNL     1       4.787   3.021  16.937  0.00  0.00    +0.000 OA
ATOM     12  H   UNL     1       4.078   9.045  17.725  0.00  0.00    +0.000 HD
ENDROOT
BRANCH   1  14
ATOM     13  C   UNL     1       7.840   4.460  17.504  0.00  0.00    +0.000 C 
ATOM     14  C   UNL     1       6.859   4.717  16.371  0.00  0.00    +0.000 C 
ENDBRANCH   1  14
BRANCH   6  15
ATOM     15  C   UNL     1       1.346   9.072  18.416  0.00  0.00    +0.000 C 
BRANCH  15  16
ATOM     16  C   UNL     1       1.119   9.217  19.877  0.00  0.00    +0.000 A 
ATOM     17  C   UNL     1       1.266   8.362  20.950  0.00  0.00    +0.000 A 
ATOM     18  C   UNL     1       0.835   9.078  22.093  0.00  0.00    +0.000 A 
ATOM     19  C   UNL     1       0.461  10.324  21.646  0.00  0.00    +0.000 A 
ATOM     20  O   UNL     1       0.636  10.421  20.303  0.00  0.00    +0.000 OA
ENDBRANCH  15  16
ENDBRANCH   6  15
BRANCH   9  21
ATOM     21  C   UNL     1       2.218   3.748  17.728  0.00  0.00    +0.000 C 
BRANCH  21  22
ATOM     22  C   UNL     1       2.076   3.403  19.187  0.00  0.00    +0.000 A 
ATOM     23  C   UNL     1       0.968   3.527  20.006  0.00  0.00    +0.000 A 
ATOM     24  C   UNL     1       1.242   3.156  21.354  0.00  0.00    +0.000 A 
ATOM     25  C   UNL     1       2.530   2.696  21.509  0.00  0.00    +0.000 A 
ATOM     26  S   UNL     1       3.398   2.712  20.037  0.00  0.00    +0.000 S 
ENDBRANCH  21  22
ENDBRANCH   9  21
TORSDOF 5
ENDMDL
MODEL 2
REMARK VINA RESULT:      -7.6      0.736      1.027
REMARK  Name = 
REMARK  6 active torsions:
REMARK  status: ('A' for Active; 'I' for Inactive)
REMARK    1  A    between atoms: C_1  and  C_2
REMARK    2  A    between atoms: C_2  and  N_3
REMARK    3  A    between atoms: C_8  and  C_9
REMARK    4  A    between atoms: C_9  and  C_10
REMARK    5  A    between atoms: N_17  and  C_18
REMARK    6  A    between atoms: C_18  and  C_19
REMARK                            x       y       z     vdW  Elec       q    Type
REMARK                         _______ _______ _______ _____ _____    ______ ____
ROOT
ATOM      1  N   UNL     1       5.666   5.109  16.749  0.00  0.00    +0.000 N 
ATOM      2  C   UNL     1       5.536   6.490  16.937  0.00  0.00    +0.000 A 
ATOM      3  O   UNL     1       6.418   7.314  16.720  0.00  0.00    +0.000 OA
ATOM      4  C   UNL     1       4.248   6.857  17.399  0.00  0.00    +0.000 A 
ATOM      5  N   UNL     1       3.718   8.087  17.664  0.00  0.00    +0.000 N 
ATOM      6  C   UNL     1       2.409   7.882  18.045  0.00  0.00    +0.000 A 
ATOM      7  N   UNL     1       2.114   6.591  18.054  0.00  0.00    +0.000 NA
ATOM      8  C   UNL     1       3.259   5.968  17.659  0.00  0.00    +0.000 A 
ATOM      9  N   UNL     1       3.441   4.615  17.509  0.00  0.00    +0.000 N 
ATOM     10  C   UNL     1       4.679   4.144  17.057  0.00  0.00    +0.000 A 
ATOM     11  O   UNL     1       4.898   2.937  16.911  0.00  0.00    +0.000 OA
ATOM     12  H   UNL     1       4.193   8.976  17.578  0.00  0.00    +0.000 HD
ENDROOT
BRANCH   1  14
ATOM     13  C   UNL     1       6.963   4.608  14.703  0.00  0.00    +0.000 C 
ATOM     14  C   UNL     1       6.939   4.626  16.224  0.00  0.00    +0.000 C 
ENDBRANCH   1  14
BRANCH   6  15
ATOM     15  C   UNL     1       1.490   9.011  18.373  0.00  0.00    +0.000 C 
BRANCH  15  16
ATOM     16  C   UNL     1       1.250   9.137  19.834  0.00  0.00    +0.000 A 
ATOM     17  C   UNL     1       1.388   8.268  20.897  0.00  0.00    +0.000 A 
ATOM     18  C   UNL     1       0.948   8.968  22.045  0.00  0.00    +0.000 A 
ATOM     19  C   UNL     1       0.577  10.220  21.611  0.00  0.00    +0.000 A 
ATOM     20  O   UNL     1       0.763  10.334  20.271  0.00  0.00    +0.000 OA
ENDBRANCH  15  16
ENDBRANCH   6  15
BRANCH   9  21
ATOM     21  C   UNL     1       2.358   3.675  17.782  0.00  0.00    +0.000 C 
BRANCH  21  22
ATOM     22  C   UNL     1       2.299   3.336  19.248  0.00  0.00    +0.000 A 
ATOM     23  C   UNL     1       3.266   2.750  20.045  0.00  0.00    +0.000 A 
ATOM     24  C   UNL     1       2.814   2.526  21.377  0.00  0.00    +0.000 A 
ATOM     25  C   UNL     1       1.541   3.010  21.575  0.00  0.00    +0.000 A 
ATOM     26  S   UNL     1       0.901   3.729  20.163  0.00  0.00    +0.000 S 
ENDBRANCH  21  22
ENDBRANCH   9  21
TORSDOF 5
ENDMDL
MODEL 3
REMARK VINA RESULT:      -7.4      0.973      1.226
REMARK  Name = 
REMARK  6 active torsions:
REMARK  status: ('A' for Active; 'I' for Inactive)
REMARK    1  A    between atoms: C_1  and  C_2
REMARK    2  A    between atoms: C_2  and  N_3
REMARK    3  A    between atoms: C_8  and  C_9
REMARK    4  A    between atoms: C_9  and  C_10
REMARK    5  A    between atoms: N_17  and  C_18
REMARK    6  A    between atoms: C_18  and  C_19
REMARK                            x       y       z     vdW  Elec       q    Type
REMARK                         _______ _______ _______ _____ _____    ______ ____
ROOT
ATOM      1  N   UNL     1       5.189   4.961  16.781  0.00  0.00    +0.000 N 
ATOM      2  C   UNL     1       5.272   6.355  16.867  0.00  0.00    +0.000 A 
ATOM      3  O   UNL     1       6.257   7.020  16.565  0.00  0.00    +0.000 OA
ATOM      4  C   UNL     1       4.070   6.944  17.332  0.00  0.00    +0.000 A 
ATOM      5  N   UNL     1       3.738   8.255  17.517  0.00  0.00    +0.000 N 
ATOM      6  C   UNL     1       2.428   8.277  17.946  0.00  0.00    +0.000 A 
ATOM      7  N   UNL     1       1.946   7.049  18.062  0.00  0.00    +0.000 NA
ATOM      8  C   UNL     1       2.971   6.234  17.685  0.00  0.00    +0.000 A 
ATOM      9  N   UNL     1       2.946   4.862  17.634  0.00  0.00    +0.000 N 
ATOM     10  C   UNL     1       4.083   4.179  17.187  0.00  0.00    +0.000 A 
ATOM     11  O   UNL     1       4.115   2.946  17.128  0.00  0.00    +0.000 OA
ATOM     12  H   UNL     1       4.335   9.054  17.351  0.00  0.00    +0.000 HD
ENDROOT
BRANCH   1  14
ATOM     13  C   UNL     1       6.294   4.076  14.752  0.00  0.00    +0.000 C 
ATOM     14  C   UNL     1       6.357   4.256  16.261  0.00  0.00    +0.000 C 
ENDBRANCH   1  14
BRANCH   6  15
ATOM     15  C   UNL     1       1.698   9.551  18.211  0.00  0.00    +0.000 C 
BRANCH  15  16
ATOM     16  C   UNL     1       0.972   9.526  19.507  0.00  0.00    +0.000 A 
ATOM     17  C   UNL     1      -0.197  10.109  19.950  0.00  0.00    +0.000 A 
ATOM     18  C   UNL     1      -0.333   9.747  21.312  0.00  0.00    +0.000 A 
ATOM     19  C   UNL     1       0.756   8.961  21.609  0.00  0.00    +0.000 A 
ATOM     20  O   UNL     1       1.551   8.816  20.518  0.00  0.00    +0.000 OA
ENDBRANCH  15  16
ENDBRANCH   6  15
BRANCH   9  21
ATOM     21  C   UNL     1       1.747   4.117  18.006  0.00  0.00    +0.000 C 
BRANCH  21  22
ATOM     22  C   UNL     1       1.842   3.619  19.424  0.00  0.00    +0.000 A 
ATOM     23  C   UNL     1       1.681   2.333  19.907  0.00  0.00    +0.000 A 
ATOM     24  C   UNL     1       1.782   2.266  21.326  0.00  0.00    +0.000 A 
ATOM     25  C   UNL     1       2.084   3.490  21.878  0.00  0.00    +0.000 A 
ATOM     26  S   UNL     1       2.247   4.707  20.689  0.00  0.00    +0.000 S 
ENDBRANCH  21  22
ENDBRANCH   9  21
TORSDOF 5
ENDMDL
MODEL 4
REMARK VINA RESULT:      -7.2      2.302      4.560
REMARK  Name = 
REMARK  6 active torsions:
REMARK  status: ('A' for Active; 'I' for Inactive)
REMARK    1  A    between atoms: C_1  and  C_2
REMARK    2  A    between atoms: C_2  and  N_3
REMARK    3  A    between atoms: C_8  and  C_9
REMARK    4  A    between atoms: C_9  and  C_10
REMARK    5  A    between atoms: N_17  and  C_18
REMARK    6  A    between atoms: C_18  and  C_19
REMARK                            x       y       z     vdW  Elec       q    Type
REMARK                         _______ _______ _______ _____ _____    ______ ____
ROOT
ATOM      1  N   UNL     1       2.770   3.420  19.949  0.00  0.00    +0.000 N 
ATOM      2  C   UNL     1       1.784   4.388  19.725  0.00  0.00    +0.000 A 
ATOM      3  O   UNL     1       0.603   4.273  20.033  0.00  0.00    +0.000 OA
ATOM      4  C   UNL     1       2.299   5.555  19.106  0.00  0.00    +0.000 A 
ATOM      5  N   UNL     1       1.681   6.721  18.760  0.00  0.00    +0.000 N 
ATOM      6  C   UNL     1       2.651   7.543  18.228  0.00  0.00    +0.000 A 
ATOM      7  N   UNL     1       3.827   6.934  18.203  0.00  0.00    +0.000 NA
ATOM      8  C   UNL     1       3.596   5.705  18.743  0.00  0.00    +0.000 A 
ATOM      9  N   UNL     1       4.523   4.711  18.935  0.00  0.00    +0.000 N 
ATOM     10  C   UNL     1       4.120   3.515  19.539  0.00  0.00    +0.000 A 
ATOM     11  O   UNL     1       4.912   2.587  19.729  0.00  0.00    +0.000 OA
ATOM     12  H   UNL     1       0.702   6.943  18.889  0.00  0.00    +0.000 HD
ENDROOT
BRANCH   1  14
ATOM     13  C   UNL     1       1.928   2.457  22.066  0.00  0.00    +0.000 C 
ATOM     14  C   UNL     1       2.357   2.197  20.630  0.00  0.00    +0.000 C 
ENDBRANCH   1  14
BRANCH   6  15
ATOM     15  C   UNL     1       2.356   8.933  17.775  0.00  0.00    +0.000 C 
BRANCH  15  16
ATOM     16  C   UNL     1       1.136   9.489  18.414  0.00  0.00    +0.000 A 
ATOM     17  C   UNL     1      -0.057   9.976  17.919  0.00  0.00    +0.000 A 
ATOM     18  C   UNL     1      -0.806  10.411  19.039  0.00  0.00    +0.000 A 
ATOM     19  C   UNL     1      -0.027  10.155  20.143  0.00  0.00    +0.000 A 
ATOM     20  O   UNL     1       1.151   9.589  19.775  0.00  0.00    +0.000 OA
ENDBRANCH  15  16
ENDBRANCH   6  15
BRANCH   9  21
ATOM     21  C   UNL     1       5.919   4.898  18.548  0.00  0.00    +0.000 C 
BRANCH  21  22
ATOM     22  C   UNL     1       6.097   4.699  17.066  0.00  0.00    +0.000 A 
ATOM     23  C   UNL     1       5.477   3.786  16.231  0.00  0.00    +0.000 A 
ATOM     24  C   UNL     1       5.958   3.857  14.892  0.00  0.00    +0.000 A 
ATOM     25  C   UNL     1       6.879   4.867  14.730  0.00  0.00    +0.000 A 
ATOM     26  S   UNL     1       7.158   5.720  16.185  0.00  0.00    +0.000 S 
ENDBRANCH  21  22
ENDBRANCH   9  21
TORSDOF 5
ENDMDL
MODEL 5
REMARK VINA RESULT:      -7.2      2.205      4.465
REMARK  Name = 
REMARK  6 active torsions:
REMARK  status: ('A' for Active; 'I' for Inactive)
REMARK    1  A    between atoms: C_1  and  C_2
REMARK    2  A    between atoms: C_2  and  N_3
REMARK    3  A    between atoms: C_8  and  C_9
REMARK    4  A    between atoms: C_9  and  C_10
REMARK    5  A    between atoms: N_17  and  C_18
REMARK    6  A    between atoms: C_18  and  C_19
REMARK                            x       y       z     vdW  Elec       q    Type
REMARK                         _______ _______ _______ _____ _____    ______ ____
ROOT
ATOM      1  N   UNL     1       2.930   4.186  19.682  0.00  0.00    +0.000 N 
ATOM      2  C   UNL     1       2.048   5.239  19.950  0.00  0.00    +0.000 A 
ATOM      3  O   UNL     1       1.145   5.206  20.779  0.00  0.00    +0.000 OA
ATOM      4  C   UNL     1       2.315   6.387  19.162  0.00  0.00    +0.000 A 
ATOM      5  N   UNL     1       1.717   7.613  19.150  0.00  0.00    +0.000 N 
ATOM      6  C   UNL     1       2.394   8.377  18.223  0.00  0.00    +0.000 A 
ATOM      7  N   UNL     1       3.359   7.677  17.646  0.00  0.00    +0.000 NA
ATOM      8  C   UNL     1       3.297   6.448  18.230  0.00  0.00    +0.000 A 
ATOM      9  N   UNL     1       4.111   5.375  17.961  0.00  0.00    +0.000 N 
ATOM     10  C   UNL     1       3.932   4.190  18.684  0.00  0.00    +0.000 A 
ATOM     11  O   UNL     1       4.632   3.194  18.477  0.00  0.00    +0.000 OA
ATOM     12  H   UNL     1       0.938   7.906  19.725  0.00  0.00    +0.000 HD
ENDROOT
BRANCH   1  14
ATOM     13  C   UNL     1       1.736   2.030  19.890  0.00  0.00    +0.000 C 
ATOM     14  C   UNL     1       2.777   2.972  20.476  0.00  0.00    +0.000 C 
ENDBRANCH   1  14
BRANCH   6  15
ATOM     15  C   UNL     1       2.048   9.805  17.963  0.00  0.00    +0.000 C 
BRANCH  15  16
ATOM     16  C   UNL     1       0.740  10.186  18.555  0.00  0.00    +0.000 A 
ATOM     17  C   UNL     1      -0.542  10.266  18.052  0.00  0.00    +0.000 A 
ATOM     18  C   UNL     1      -1.356  10.745  19.106  0.00  0.00    +0.000 A 
ATOM     19  C   UNL     1      -0.521  10.919  20.185  0.00  0.00    +0.000 A 
ATOM     20  O   UNL     1       0.752  10.576  19.863  0.00  0.00    +0.000 OA
ENDBRANCH  15  16
ENDBRANCH   6  15
BRANCH   9  21
ATOM     21  C   UNL     1       5.171   5.467  16.961  0.00  0.00    +0.000 C 
BRANCH  21  22
ATOM     22  C   UNL     1       6.322   6.292  17.474  0.00  0.00    +0.000 A 
ATOM     23  C   UNL     1       6.769   7.527  17.038  0.00  0.00    +0.000 A 
ATOM     24  C   UNL     1       7.935   7.962  17.732  0.00  0.00    +0.000 A 
ATOM     25  C   UNL     1       8.303   7.079  18.721  0.00  0.00    +0.000 A 
ATOM     26  S   UNL     1       7.246   5.739  18.811  0.00  0.00    +0.000 S 
ENDBRANCH  21  22
ENDBRANCH   9  21
TORSDOF 5
ENDMDL
MODEL 6
REMARK VINA RESULT:      -7.0      1.188      1.443
REMARK  Name = 
REMARK  6 active torsions:
REMARK  status: ('A' for Active; 'I' for Inactive)
REMARK    1  A    between atoms: C_1  and  C_2
REMARK    2  A    between atoms: C_2  and  N_3
REMARK    3  A    between atoms: C_8  and  C_9
REMARK    4  A    between atoms: C_9  and  C_10
REMARK    5  A    between atoms: N_17  and  C_18
REMARK    6  A    between atoms: C_18  and  C_19
REMARK                            x       y       z     vdW  Elec       q    Type
REMARK                         _______ _______ _______ _____ _____    ______ ____
ROOT
ATOM      1  N   UNL     1       5.678   5.344  17.078  0.00  0.00    +0.000 N 
ATOM      2  C   UNL     1       5.121   6.515  16.550  0.00  0.00    +0.000 A 
ATOM      3  O   UNL     1       5.501   7.075  15.528  0.00  0.00    +0.000 OA
ATOM      4  C   UNL     1       4.033   6.995  17.322  0.00  0.00    +0.000 A 
ATOM      5  N   UNL     1       3.213   8.069  17.127  0.00  0.00    +0.000 N 
ATOM      6  C   UNL     1       2.292   8.057  18.152  0.00  0.00    +0.000 A 
ATOM      7  N   UNL     1       2.518   7.050  18.982  0.00  0.00    +0.000 NA
ATOM      8  C   UNL     1       3.599   6.404  18.462  0.00  0.00    +0.000 A 
ATOM      9  N   UNL     1       4.205   5.284  18.975  0.00  0.00    +0.000 N 
ATOM     10  C   UNL     1       5.290   4.726  18.289  0.00  0.00    +0.000 A 
ATOM     11  O   UNL     1       5.875   3.723  18.711  0.00  0.00    +0.000 OA
ATOM     12  H   UNL     1       3.264   8.732  16.365  0.00  0.00    +0.000 HD
ENDROOT
BRANCH   1  14
ATOM     13  C   UNL     1       6.272   3.846  15.202  0.00  0.00    +0.000 C 
ATOM     14  C   UNL     1       6.773   4.734  16.331  0.00  0.00    +0.000 C 
ENDBRANCH   1  14
BRANCH   6  15
ATOM     15  C   UNL     1       1.195   9.064  18.249  0.00  0.00    +0.000 C 
BRANCH  15  16
ATOM     16  C   UNL     1       0.991   9.545  19.640  0.00  0.00    +0.000 A 
ATOM     17  C   UNL     1       0.730   8.908  20.835  0.00  0.00    +0.000 A 
ATOM     18  C   UNL     1       0.589   9.926  21.808  0.00  0.00    +0.000 A 
ATOM     19  C   UNL     1       0.780  11.117  21.147  0.00  0.00    +0.000 A 
ATOM     20  O   UNL     1       1.032  10.896  19.831  0.00  0.00    +0.000 OA
ENDBRANCH  15  16
ENDBRANCH   6  15
BRANCH   9  21
ATOM     21  C   UNL     1       3.713   4.656  20.197  0.00  0.00    +0.000 C 
BRANCH  21  22
ATOM     22  C   UNL     1       2.480   3.837  19.922  0.00  0.00    +0.000 A 
ATOM     23  C   UNL     1       1.202   3.991  20.429  0.00  0.00    +0.000 A 
ATOM     24  C   UNL     1       0.310   2.974  19.982  0.00  0.00    +0.000 A 
ATOM     25  C   UNL     1       0.916   2.114  19.095  0.00  0.00    +0.000 A 
ATOM     26  S   UNL     1       2.547   2.536  18.804  0.00  0.00    +0.000 S 
ENDBRANCH  21  22
ENDBRANCH   9  21
TORSDOF 5
ENDMDL
MODEL 7
REMARK VINA RESULT:      -7.0      2.245      4.396
REMARK  Name = 
REMARK  6 active torsions:
REMARK  status: ('A' for Active; 'I' for Inactive)
REMARK    1  A    between atoms: C_1  and  C_2
REMARK    2  A    between atoms: C_2  and  N_3
REMARK    3  A    between atoms: C_8  and  C_9
REMARK    4  A    between atoms: C_9  and  C_10
REMARK    5  A    between atoms: N_17  and  C_18
REMARK    6  A    between atoms: C_18  and  C_19
REMARK                            x       y       z     vdW  Elec       q    Type
REMARK                         _______ _______ _______ _____ _____    ______ ____
ROOT
ATOM      1  N   UNL     1       3.251   4.206  19.923  0.00  0.00    +0.000 N 
ATOM      2  C   UNL     1       2.138   5.053  19.866  0.00  0.00    +0.000 A 
ATOM      3  O   UNL     1       1.048   4.815  20.373  0.00  0.00    +0.000 OA
ATOM      4  C   UNL     1       2.405   6.255  19.163  0.00  0.00    +0.000 A 
ATOM      5  N   UNL     1       1.609   7.337  18.924  0.00  0.00    +0.000 N 
ATOM      6  C   UNL     1       2.375   8.248  18.229  0.00  0.00    +0.000 A 
ATOM      7  N   UNL     1       3.591   7.774  18.006  0.00  0.00    +0.000 NA
ATOM      8  C   UNL     1       3.596   6.539  18.583  0.00  0.00    +0.000 A 
ATOM      9  N   UNL     1       4.649   5.659  18.618  0.00  0.00    +0.000 N 
ATOM     10  C   UNL     1       4.493   4.441  19.288  0.00  0.00    +0.000 A 
ATOM     11  O   UNL     1       5.406   3.611  19.343  0.00  0.00    +0.000 OA
ATOM     12  H   UNL     1       0.647   7.451  19.217  0.00  0.00    +0.000 HD
ENDROOT
BRANCH   1  14
ATOM     13  C   UNL     1       2.364   1.898  19.871  0.00  0.00    +0.000 C 
ATOM     14  C   UNL     1       3.102   2.961  20.670  0.00  0.00    +0.000 C 
ENDBRANCH   1  14
BRANCH   6  15
ATOM     15  C   UNL     1       1.852   9.586  17.827  0.00  0.00    +0.000 C 
BRANCH  15  16
ATOM     16  C   UNL     1       0.767  10.061  18.724  0.00  0.00    +0.000 A 
ATOM     17  C   UNL     1      -0.438  10.696  18.503  0.00  0.00    +0.000 A 
ATOM     18  C   UNL     1      -1.004  10.934  19.778  0.00  0.00    +0.000 A 
ATOM     19  C   UNL     1      -0.114  10.424  20.693  0.00  0.00    +0.000 A 
ATOM     20  O   UNL     1       0.962   9.886  20.063  0.00  0.00    +0.000 OA
ENDBRANCH  15  16
ENDBRANCH   6  15
BRANCH   9  21
ATOM     21  C   UNL     1       5.928   5.992  17.997  0.00  0.00    +0.000 C 
BRANCH  21  22
ATOM     22  C   UNL     1       6.004   5.444  16.596  0.00  0.00    +0.000 A 
ATOM     23  C   UNL     1       5.230   5.763  15.495  0.00  0.00    +0.000 A 
ATOM     24  C   UNL     1       5.560   4.981  14.351  0.00  0.00    +0.000 A 
ATOM     25  C   UNL     1       6.619   4.136  14.594  0.00  0.00    +0.000 A 
ATOM     26  S   UNL     1       7.209   4.291  16.190  0.00  0.00    +0.000 S 
ENDBRANCH  21  22
ENDBRANCH   9  21
TORSDOF 5
ENDMDL
MODEL 8
REMARK VINA RESULT:      -7.0      2.170      4.126
REMARK  Name = 
REMARK  6 active torsions:
REMARK  status: ('A' for Active; 'I' for Inactive)
REMARK    1  A    between atoms: C_1  and  C_2
REMARK    2  A    between atoms: C_2  and  N_3
REMARK    3  A    between atoms: C_8  and  C_9
REMARK    4  A    between atoms: C_9  and  C_10
REMARK    5  A    between atoms: N_17  and  C_18
REMARK    6  A    between atoms: C_18  and  C_19
REMARK                            x       y       z     vdW  Elec       q    Type
REMARK                         _______ _______ _______ _____ _____    ______ ____
ROOT
ATOM      1  N   UNL     1       3.197   3.518  17.550  0.00  0.00    +0.000 N 
ATOM      2  C   UNL     1       2.152   4.293  18.066  0.00  0.00    +0.000 A 
ATOM      3  O   UNL     1       1.127   3.846  18.569  0.00  0.00    +0.000 OA
ATOM      4  C   UNL     1       2.407   5.684  17.967  0.00  0.00    +0.000 A 
ATOM      5  N   UNL     1       1.667   6.753  18.382  0.00  0.00    +0.000 N 
ATOM      6  C   UNL     1       2.395   7.883  18.077  0.00  0.00    +0.000 A 
ATOM      7  N   UNL     1       3.530   7.568  17.473  0.00  0.00    +0.000 NA
ATOM      8  C   UNL     1       3.524   6.207  17.405  0.00  0.00    +0.000 A 
ATOM      9  N   UNL     1       4.504   5.413  16.864  0.00  0.00    +0.000 N 
ATOM     10  C   UNL     1       4.353   4.022  16.910  0.00  0.00    +0.000 A 
ATOM     11  O   UNL     1       5.201   3.263  16.432  0.00  0.00    +0.000 OA
ATOM     12  H   UNL     1       0.766   6.717  18.841  0.00  0.00    +0.000 HD
ENDROOT
BRANCH   1  14
ATOM     13  C   UNL     1       3.657   1.524  18.939  0.00  0.00    +0.000 C 
ATOM     14  C   UNL     1       3.061   2.068  17.650  0.00  0.00    +0.000 C 
ENDBRANCH   1  14
BRANCH   6  15
ATOM     15  C   UNL     1       1.920   9.254  18.427  0.00  0.00    +0.000 C 
BRANCH  15  16
ATOM     16  C   UNL     1       1.144   9.277  19.693  0.00  0.00    +0.000 A 
ATOM     17  C   UNL     1       0.092  10.046  20.147  0.00  0.00    +0.000 A 
ATOM     18  C   UNL     1      -0.174   9.617  21.469  0.00  0.00    +0.000 A 
ATOM     19  C   UNL     1       0.726   8.612  21.735  0.00  0.00    +0.000 A 
ATOM     20  O   UNL     1       1.526   8.393  20.660  0.00  0.00    +0.000 OA
ENDBRANCH  15  16
ENDBRANCH   6  15
BRANCH   9  21
ATOM     21  C   UNL     1       5.706   5.997  16.275  0.00  0.00    +0.000 C 
BRANCH  21  22
ATOM     22  C   UNL     1       6.737   6.285  17.335  0.00  0.00    +0.000 A 
ATOM     23  C   UNL     1       7.226   5.449  18.322  0.00  0.00    +0.000 A 
ATOM     24  C   UNL     1       8.151   6.105  19.184  0.00  0.00    +0.000 A 
ATOM     25  C   UNL     1       8.392   7.401  18.789  0.00  0.00    +0.000 A 
ATOM     26  S   UNL     1       7.508   7.818  17.387  0.00  0.00    +0.000 S 
ENDBRANCH  21  22
ENDBRANCH   9  21
TORSDOF 5
ENDMDL
MODEL 9
REMARK VINA RESULT:      -6.9      1.808      2.283
REMARK  Name = 
REMARK  6 active torsions:
REMARK  status: ('A' for Active; 'I' for Inactive)
REMARK    1  A    between atoms: C_1  and  C_2
REMARK    2  A    between atoms: C_2  and  N_3
REMARK    3  A    between atoms: C_8  and  C_9
REMARK    4  A    between atoms: C_9  and  C_10
REMARK    5  A    between atoms: N_17  and  C_18
REMARK    6  A    between atoms: C_18  and  C_19
REMARK                            x       y       z     vdW  Elec       q    Type
REMARK                         _______ _______ _______ _____ _____    ______ ____
ROOT
ATOM      1  N   UNL     1       5.719   5.517  17.149  0.00  0.00    +0.000 N 
ATOM      2  C   UNL     1       5.114   6.657  16.608  0.00  0.00    +0.000 A 
ATOM      3  O   UNL     1       5.488   7.236  15.593  0.00  0.00    +0.000 OA
ATOM      4  C   UNL     1       3.985   7.080  17.354  0.00  0.00    +0.000 A 
ATOM      5  N   UNL     1       3.115   8.109  17.138  0.00  0.00    +0.000 N 
ATOM      6  C   UNL     1       2.173   8.050  18.142  0.00  0.00    +0.000 A 
ATOM      7  N   UNL     1       2.432   7.056  18.979  0.00  0.00    +0.000 NA
ATOM      8  C   UNL     1       3.557   6.468  18.484  0.00  0.00    +0.000 A 
ATOM      9  N   UNL     1       4.209   5.381  19.012  0.00  0.00    +0.000 N 
ATOM     10  C   UNL     1       5.337   4.880  18.353  0.00  0.00    +0.000 A 
ATOM     11  O   UNL     1       5.963   3.909  18.788  0.00  0.00    +0.000 OA
ATOM     12  H   UNL     1       3.149   8.774  16.376  0.00  0.00    +0.000 HD
ENDROOT
BRANCH   1  14
ATOM     13  C   UNL     1       6.438   3.972  15.357  0.00  0.00    +0.000 C 
ATOM     14  C   UNL     1       6.861   4.965  16.428  0.00  0.00    +0.000 C 
ENDBRANCH   1  14
BRANCH   6  15
ATOM     15  C   UNL     1       1.023   8.998  18.212  0.00  0.00    +0.000 C 
BRANCH  15  16
ATOM     16  C   UNL     1       1.458  10.394  18.474  0.00  0.00    +0.000 A 
ATOM     17  C   UNL     1       1.081  11.348  19.398  0.00  0.00    +0.000 A 
ATOM     18  C   UNL     1       1.833  12.510  19.101  0.00  0.00    +0.000 A 
ATOM     19  C   UNL     1       2.624  12.189  18.022  0.00  0.00    +0.000 A 
ATOM     20  O   UNL     1       2.408  10.905  17.639  0.00  0.00    +0.000 OA
ENDBRANCH  15  16
ENDBRANCH   6  15
BRANCH   9  21
ATOM     21  C   UNL     1       3.723   4.728  20.224  0.00  0.00    +0.000 C 
BRANCH  21  22
ATOM     22  C   UNL     1       2.667   3.706  19.897  0.00  0.00    +0.000 A 
ATOM     23  C   UNL     1       2.804   2.490  19.250  0.00  0.00    +0.000 A 
ATOM     24  C   UNL     1       1.557   1.827  19.065  0.00  0.00    +0.000 A 
ATOM     25  C   UNL     1       0.515   2.523  19.635  0.00  0.00    +0.000 A 
ATOM     26  S   UNL     1       1.042   3.963  20.389  0.00  0.00    +0.000 S 
ENDBRANCH  21  22
ENDBRANCH   9  21
TORSDOF 5
ENDMDL
