MODEL 1
REMARK VINA RESULT:      -7.9      0.000      0.000
REMARK  Name = 
REMARK  6 active torsions:
REMARK  status: ('A' for Active; 'I' for Inactive)
REMARK    1  A    between atoms: C_1  and  C_2
REMARK    2  A    between atoms: C_8  and  C_9
REMARK    3  A    between atoms: C_13  and  C_14
REMARK    4  A    between atoms: C_23  and  O_24
REMARK    5  A    between atoms: O_24  and  C_25
REMARK    6  A    between atoms: C_28  and  N_29
REMARK                            x       y       z     vdW  Elec       q    Type
REMARK                         _______ _______ _______ _____ _____    ______ ____
ROOT
ATOM      1  C   UNL     1       0.506  10.704  20.718  0.00  0.00    +0.000 A 
ATOM      2  C   UNL     1       1.330   9.606  21.061  0.00  0.00    +0.000 A 
ATOM      3  C   UNL     1       1.669   8.712  20.061  0.00  0.00    +0.000 A 
ATOM      4  N   UNL     1       2.401   7.563  20.082  0.00  0.00    +0.000 N 
ATOM      5  C   UNL     1       2.354   6.992  18.832  0.00  0.00    +0.000 A 
ATOM      6  N   UNL     1       1.683   7.768  17.999  0.00  0.00    +0.000 NA
ATOM      7  C   UNL     1       1.246   8.833  18.750  0.00  0.00    +0.000 A 
ATOM      8  C   UNL     1       0.453   9.932  18.390  0.00  0.00    +0.000 A 
ATOM      9  C   UNL     1       0.107  10.892  19.363  0.00  0.00    +0.000 A 
ATOM     10  H   UNL     1       2.860   7.139  20.877  0.00  0.00    +0.000 HD
ENDROOT
BRANCH   1  18
ATOM     11  C   UNL     1       0.656  15.191  21.269  0.00  0.00    +0.000 C 
ATOM     12  C   UNL     1       0.948  13.738  21.500  0.00  0.00    +0.000 C 
ATOM     13  O   UNL     1       2.105  13.315  21.433  0.00  0.00    +0.000 OA
ATOM     14  N   UNL     1      -0.131  12.920  21.754  0.00  0.00    +0.000 N 
ATOM     15  C   UNL     1      -1.463  13.316  22.180  0.00  0.00    +0.000 C 
ATOM     16  C   UNL     1      -1.946  12.180  23.074  0.00  0.00    +0.000 C 
ATOM     17  C   UNL     1      -1.232  10.953  22.531  0.00  0.00    +0.000 C 
ATOM     18  C   UNL     1       0.074  11.504  21.938  0.00  0.00    +0.000 C 
ENDBRANCH   1  18
BRANCH   5  19
ATOM     19  C   UNL     1       2.970   5.698  18.589  0.00  0.00    +0.000 A 
ATOM     20  C   UNL     1       2.363   4.738  17.788  0.00  0.00    +0.000 A 
ATOM     21  C   UNL     1       3.004   3.510  17.646  0.00  0.00    +0.000 A 
ATOM     22  C   UNL     1       4.208   3.280  18.302  0.00  0.00    +0.000 A 
ATOM     23  C   UNL     1       4.736   4.298  19.078  0.00  0.00    +0.000 A 
ATOM     24  N   UNL     1       4.147   5.503  19.243  0.00  0.00    +0.000 NA
ENDBRANCH   5  19
BRANCH   9  25
ATOM     25  O   UNL     1      -0.725  11.954  19.030  0.00  0.00    +0.000 OA
BRANCH  25  26
ATOM     26  C   UNL     1      -2.043  11.762  18.646  0.00  0.00    +0.000 A 
ATOM     27  C   UNL     1      -3.009  12.176  19.582  0.00  0.00    +0.000 A 
ATOM     28  C   UNL     1      -4.370  12.232  19.240  0.00  0.00    +0.000 A 
ATOM     29  C   UNL     1      -4.772  11.873  17.950  0.00  0.00    +0.000 A 
ATOM     30  C   UNL     1      -3.836  11.361  17.041  0.00  0.00    +0.000 A 
ATOM     31  C   UNL     1      -2.471  11.330  17.388  0.00  0.00    +0.000 A 
BRANCH  29  32
ATOM     32  N   UNL     1      -6.152  12.142  17.513  0.00  0.00    +0.000 N 
ATOM     33  O   UNL     1      -7.051  11.417  17.966  0.00  0.00    +0.000 OA
ATOM     34  O   UNL     1      -6.342  13.099  16.750  0.00  0.00    +0.000 OA
ENDBRANCH  29  32
ENDBRANCH  25  26
ENDBRANCH   9  25
TORSDOF 5
ENDMDL
MODEL 2
REMARK VINA RESULT:      -7.8      4.950     10.176
REMARK  Name = 
REMARK  6 active torsions:
REMARK  status: ('A' for Active; 'I' for Inactive)
REMARK    1  A    between atoms: C_1  and  C_2
REMARK    2  A    between atoms: C_8  and  C_9
REMARK    3  A    between atoms: C_13  and  C_14
REMARK    4  A    between atoms: C_23  and  O_24
REMARK    5  A    between atoms: O_24  and  C_25
REMARK    6  A    between atoms: C_28  and  N_29
REMARK                            x       y       z     vdW  Elec       q    Type
REMARK                         _______ _______ _______ _____ _____    ______ ____
ROOT
ATOM      1  C   UNL     1       2.485   5.381  18.968  0.00  0.00    +0.000 A 
ATOM      2  C   UNL     1       1.579   6.447  19.184  0.00  0.00    +0.000 A 
ATOM      3  C   UNL     1       1.919   7.696  18.697  0.00  0.00    +0.000 A 
ATOM      4  N   UNL     1       1.288   8.902  18.773  0.00  0.00    +0.000 N 
ATOM      5  C   UNL     1       2.101   9.856  18.208  0.00  0.00    +0.000 A 
ATOM      6  N   UNL     1       3.189   9.296  17.711  0.00  0.00    +0.000 NA
ATOM      7  C   UNL     1       3.093   7.959  18.015  0.00  0.00    +0.000 A 
ATOM      8  C   UNL     1       3.986   6.906  17.768  0.00  0.00    +0.000 A 
ATOM      9  C   UNL     1       3.672   5.605  18.212  0.00  0.00    +0.000 A 
ATOM     10  H   UNL     1       0.405   9.107  19.218  0.00  0.00    +0.000 HD
ENDROOT
BRANCH   1  18
ATOM     11  C   UNL     1       3.693   1.127  18.017  0.00  0.00    +0.000 C 
ATOM     12  C   UNL     1       2.812   2.325  18.217  0.00  0.00    +0.000 C 
ATOM     13  O   UNL     1       2.113   2.746  17.293  0.00  0.00    +0.000 OA
ATOM     14  N   UNL     1       2.855   2.928  19.455  0.00  0.00    +0.000 N 
ATOM     15  C   UNL     1       3.357   2.367  20.698  0.00  0.00    +0.000 C 
ATOM     16  C   UNL     1       2.481   2.975  21.787  0.00  0.00    +0.000 C 
ATOM     17  C   UNL     1       2.069   4.324  21.221  0.00  0.00    +0.000 C 
ATOM     18  C   UNL     1       2.070   4.114  19.699  0.00  0.00    +0.000 C 
ENDBRANCH   1  18
BRANCH   5  19
ATOM     19  C   UNL     1       1.721  11.259  18.240  0.00  0.00    +0.000 A 
ATOM     20  C   UNL     1       2.642  12.272  17.996  0.00  0.00    +0.000 A 
ATOM     21  C   UNL     1       2.200  13.588  18.090  0.00  0.00    +0.000 A 
ATOM     22  C   UNL     1       0.876  13.850  18.425  0.00  0.00    +0.000 A 
ATOM     23  C   UNL     1       0.032  12.775  18.650  0.00  0.00    +0.000 A 
ATOM     24  N   UNL     1       0.419  11.483  18.569  0.00  0.00    +0.000 NA
ENDBRANCH   5  19
BRANCH   9  25
ATOM     25  O   UNL     1       4.576   4.567  18.023  0.00  0.00    +0.000 OA
BRANCH  25  26
ATOM     26  C   UNL     1       5.469   4.555  16.963  0.00  0.00    +0.000 A 
ATOM     27  C   UNL     1       4.962   4.046  15.753  0.00  0.00    +0.000 A 
ATOM     28  C   UNL     1       5.686   4.168  14.556  0.00  0.00    +0.000 A 
ATOM     29  C   UNL     1       6.931   4.805  14.566  0.00  0.00    +0.000 A 
ATOM     30  C   UNL     1       7.495   5.225  15.779  0.00  0.00    +0.000 A 
ATOM     31  C   UNL     1       6.749   5.117  16.969  0.00  0.00    +0.000 A 
BRANCH  29  32
ATOM     32  N   UNL     1       7.591   5.138  13.293  0.00  0.00    +0.000 N 
ATOM     33  O   UNL     1       8.544   5.932  13.329  0.00  0.00    +0.000 OA
ATOM     34  O   UNL     1       7.185   4.578  12.266  0.00  0.00    +0.000 OA
ENDBRANCH  29  32
ENDBRANCH  25  26
ENDBRANCH   9  25
TORSDOF 5
ENDMDL
MODEL 3
REMARK VINA RESULT:      -7.8      2.669      3.962
REMARK  Name = 
REMARK  6 active torsions:
REMARK  status: ('A' for Active; 'I' for Inactive)
REMARK    1  A    between atoms: C_1  and  C_2
REMARK    2  A    between atoms: C_8  and  C_9
REMARK    3  A    between atoms: C_13  and  C_14
REMARK    4  A    between atoms: C_23  and  O_24
REMARK    5  A    between atoms: O_24  and  C_25
REMARK    6  A    between atoms: C_28  and  N_29
REMARK                            x       y       z     vdW  Elec       q    Type
REMARK                         _______ _______ _______ _____ _____    ______ ____
ROOT
ATOM      1  C   UNL     1      -0.020  12.767  20.983  0.00  0.00    +0.000 A 
ATOM      2  C   UNL     1       0.641  11.939  20.045  0.00  0.00    +0.000 A 
ATOM      3  C   UNL     1       0.744  10.589  20.330  0.00  0.00    +0.000 A 
ATOM      4  N   UNL     1       1.339   9.563  19.659  0.00  0.00    +0.000 N 
ATOM      5  C   UNL     1       1.241   8.426  20.425  0.00  0.00    +0.000 A 
ATOM      6  N   UNL     1       0.545   8.669  21.521  0.00  0.00    +0.000 NA
ATOM      7  C   UNL     1       0.238  10.009  21.479  0.00  0.00    +0.000 A 
ATOM      8  C   UNL     1      -0.445  10.813  22.402  0.00  0.00    +0.000 A 
ATOM      9  C   UNL     1      -0.609  12.190  22.144  0.00  0.00    +0.000 A 
ATOM     10  H   UNL     1       1.834   9.608  18.779  0.00  0.00    +0.000 HD
ENDROOT
BRANCH   1  18
ATOM     11  C   UNL     1       3.750  15.236  20.588  0.00  0.00    +0.000 C 
ATOM     12  C   UNL     1       2.420  14.778  21.109  0.00  0.00    +0.000 C 
ATOM     13  O   UNL     1       2.292  14.449  22.291  0.00  0.00    +0.000 OA
ATOM     14  N   UNL     1       1.384  14.720  20.203  0.00  0.00    +0.000 N 
ATOM     15  C   UNL     1       1.302  15.371  18.907  0.00  0.00    +0.000 C 
ATOM     16  C   UNL     1      -0.174  15.701  18.723  0.00  0.00    +0.000 C 
ATOM     17  C   UNL     1      -0.896  14.621  19.512  0.00  0.00    +0.000 C 
ATOM     18  C   UNL     1       0.090  14.242  20.628  0.00  0.00    +0.000 C 
ENDBRANCH   1  18
BRANCH   5  19
ATOM     19  C   UNL     1       1.881   7.192  19.998  0.00  0.00    +0.000 A 
ATOM     20  C   UNL     1       1.751   6.012  20.720  0.00  0.00    +0.000 A 
ATOM     21  C   UNL     1       2.433   4.889  20.261  0.00  0.00    +0.000 A 
ATOM     22  C   UNL     1       3.218   4.980  19.116  0.00  0.00    +0.000 A 
ATOM     23  C   UNL     1       3.286   6.199  18.462  0.00  0.00    +0.000 A 
ATOM     24  N   UNL     1       2.640   7.311  18.874  0.00  0.00    +0.000 NA
ENDBRANCH   5  19
BRANCH   9  25
ATOM     25  O   UNL     1      -1.234  13.004  23.079  0.00  0.00    +0.000 OA
BRANCH  25  26
ATOM     26  C   UNL     1      -2.615  13.073  23.187  0.00  0.00    +0.000 A 
ATOM     27  C   UNL     1      -3.307  13.253  21.975  0.00  0.00    +0.000 A 
ATOM     28  C   UNL     1      -4.704  13.131  21.914  0.00  0.00    +0.000 A 
ATOM     29  C   UNL     1      -5.420  12.825  23.075  0.00  0.00    +0.000 A 
ATOM     30  C   UNL     1      -4.757  12.744  24.308  0.00  0.00    +0.000 A 
ATOM     31  C   UNL     1      -3.353  12.847  24.352  0.00  0.00    +0.000 A 
BRANCH  29  32
ATOM     32  N   UNL     1      -6.847  12.474  22.982  0.00  0.00    +0.000 N 
ATOM     33  O   UNL     1      -7.325  11.761  23.879  0.00  0.00    +0.000 OA
ATOM     34  O   UNL     1      -7.498  12.940  22.037  0.00  0.00    +0.000 OA
ENDBRANCH  29  32
ENDBRANCH  25  26
ENDBRANCH   9  25
TORSDOF 5
ENDMDL
MODEL 4
REMARK VINA RESULT:      -7.7      2.998      4.131
REMARK  Name = 
REMARK  6 active torsions:
REMARK  status: ('A' for Active; 'I' for Inactive)
REMARK    1  A    between atoms: C_1  and  C_2
REMARK    2  A    between atoms: C_8  and  C_9
REMARK    3  A    between atoms: C_13  and  C_14
REMARK    4  A    between atoms: C_23  and  O_24
REMARK    5  A    between atoms: O_24  and  C_25
REMARK    6  A    between atoms: C_28  and  N_29
REMARK                            x       y       z     vdW  Elec       q    Type
REMARK                         _______ _______ _______ _____ _____    ______ ____
ROOT
ATOM      1  C   UNL     1      -0.140  12.832  20.924  0.00  0.00    +0.000 A 
ATOM      2  C   UNL     1       0.631  12.045  20.036  0.00  0.00    +0.000 A 
ATOM      3  C   UNL     1       0.708  10.685  20.275  0.00  0.00    +0.000 A 
ATOM      4  N   UNL     1       1.384   9.689  19.635  0.00  0.00    +0.000 N 
ATOM      5  C   UNL     1       1.204   8.520  20.337  0.00  0.00    +0.000 A 
ATOM      6  N   UNL     1       0.383   8.716  21.353  0.00  0.00    +0.000 NA
ATOM      7  C   UNL     1       0.075  10.056  21.331  0.00  0.00    +0.000 A 
ATOM      8  C   UNL     1      -0.716  10.819  22.201  0.00  0.00    +0.000 A 
ATOM      9  C   UNL     1      -0.857  12.205  21.984  0.00  0.00    +0.000 A 
ATOM     10  H   UNL     1       1.977   9.771  18.822  0.00  0.00    +0.000 HD
ENDROOT
BRANCH   1  18
ATOM     11  C   UNL     1       3.687  15.202  20.471  0.00  0.00    +0.000 C 
ATOM     12  C   UNL     1       2.370  14.756  21.035  0.00  0.00    +0.000 C 
ATOM     13  O   UNL     1       2.291  14.364  22.202  0.00  0.00    +0.000 OA
ATOM     14  N   UNL     1       1.288  14.782  20.183  0.00  0.00    +0.000 N 
ATOM     15  C   UNL     1       1.163  15.509  18.930  0.00  0.00    +0.000 C 
ATOM     16  C   UNL     1      -0.309  15.895  18.843  0.00  0.00    +0.000 C 
ATOM     17  C   UNL     1      -1.026  14.794  19.608  0.00  0.00    +0.000 C 
ATOM     18  C   UNL     1       0.002  14.321  20.647  0.00  0.00    +0.000 C 
ENDBRANCH   1  18
BRANCH   5  19
ATOM     19  C   UNL     1       1.896   7.306  19.935  0.00  0.00    +0.000 A 
ATOM     20  C   UNL     1       1.813   6.136  20.681  0.00  0.00    +0.000 A 
ATOM     21  C   UNL     1       2.544   5.034  20.245  0.00  0.00    +0.000 A 
ATOM     22  C   UNL     1       3.328   5.135  19.101  0.00  0.00    +0.000 A 
ATOM     23  C   UNL     1       3.348   6.343  18.423  0.00  0.00    +0.000 A 
ATOM     24  N   UNL     1       2.654   7.435  18.812  0.00  0.00    +0.000 NA
ENDBRANCH   5  19
BRANCH   9  25
ATOM     25  O   UNL     1      -1.592  12.979  22.873  0.00  0.00    +0.000 OA
BRANCH  25  26
ATOM     26  C   UNL     1      -2.970  12.871  22.975  0.00  0.00    +0.000 A 
ATOM     27  C   UNL     1      -3.449  12.436  24.226  0.00  0.00    +0.000 A 
ATOM     28  C   UNL     1      -4.818  12.482  24.532  0.00  0.00    +0.000 A 
ATOM     29  C   UNL     1      -5.721  12.968  23.581  0.00  0.00    +0.000 A 
ATOM     30  C   UNL     1      -5.273  13.307  22.297  0.00  0.00    +0.000 A 
ATOM     31  C   UNL     1      -3.894  13.277  22.009  0.00  0.00    +0.000 A 
BRANCH  29  32
ATOM     32  N   UNL     1      -7.117  13.232  23.967  0.00  0.00    +0.000 N 
ATOM     33  O   UNL     1      -7.428  14.401  24.242  0.00  0.00    +0.000 OA
ATOM     34  O   UNL     1      -7.911  12.280  23.957  0.00  0.00    +0.000 OA
ENDBRANCH  29  32
ENDBRANCH  25  26
ENDBRANCH   9  25
TORSDOF 5
ENDMDL
MODEL 5
REMARK VINA RESULT:      -7.7      2.897      4.218
REMARK  Name = 
REMARK  6 active torsions:
REMARK  status: ('A' for Active; 'I' for Inactive)
REMARK    1  A    between atoms: C_1  and  C_2
REMARK    2  A    between atoms: C_8  and  C_9
REMARK    3  A    between atoms: C_13  and  C_14
REMARK    4  A    between atoms: C_23  and  O_24
REMARK    5  A    between atoms: O_24  and  C_25
REMARK    6  A    between atoms: C_28  and  N_29
REMARK                            x       y       z     vdW  Elec       q    Type
REMARK                         _______ _______ _______ _____ _____    ______ ____
ROOT
ATOM      1  C   UNL     1      -0.250  13.205  21.193  0.00  0.00    +0.000 A 
ATOM      2  C   UNL     1       0.469  12.430  20.252  0.00  0.00    +0.000 A 
ATOM      3  C   UNL     1       0.549  11.065  20.462  0.00  0.00    +0.000 A 
ATOM      4  N   UNL     1       1.183  10.076  19.770  0.00  0.00    +0.000 N 
ATOM      5  C   UNL     1       1.032   8.896  20.459  0.00  0.00    +0.000 A 
ATOM      6  N   UNL     1       0.267   9.078  21.520  0.00  0.00    +0.000 NA
ATOM      7  C   UNL     1      -0.032  10.421  21.538  0.00  0.00    +0.000 A 
ATOM      8  C   UNL     1      -0.772  11.172  22.462  0.00  0.00    +0.000 A 
ATOM      9  C   UNL     1      -0.915  12.563  22.277  0.00  0.00    +0.000 A 
ATOM     10  H   UNL     1       1.734  10.170  18.928  0.00  0.00    +0.000 HD
ENDROOT
BRANCH   1  18
ATOM     11  C   UNL     1       3.558  15.547  20.502  0.00  0.00    +0.000 C 
ATOM     12  C   UNL     1       2.282  15.102  21.154  0.00  0.00    +0.000 C 
ATOM     13  O   UNL     1       2.286  14.687  22.315  0.00  0.00    +0.000 OA
ATOM     14  N   UNL     1       1.140  15.156  20.385  0.00  0.00    +0.000 N 
ATOM     15  C   UNL     1       0.931  15.909  19.160  0.00  0.00    +0.000 C 
ATOM     16  C   UNL     1      -0.539  16.311  19.190  0.00  0.00    +0.000 C 
ATOM     17  C   UNL     1      -1.210  15.201  19.984  0.00  0.00    +0.000 C 
ATOM     18  C   UNL     1      -0.113  14.698  20.935  0.00  0.00    +0.000 C 
ENDBRANCH   1  18
BRANCH   5  19
ATOM     19  C   UNL     1       1.695   7.686  20.001  0.00  0.00    +0.000 A 
ATOM     20  C   UNL     1       2.336   7.624  18.770  0.00  0.00    +0.000 A 
ATOM     21  C   UNL     1       2.906   6.411  18.394  0.00  0.00    +0.000 A 
ATOM     22  C   UNL     1       2.814   5.313  19.242  0.00  0.00    +0.000 A 
ATOM     23  C   UNL     1       2.155   5.471  20.450  0.00  0.00    +0.000 A 
ATOM     24  N   UNL     1       1.588   6.629  20.853  0.00  0.00    +0.000 NA
ENDBRANCH   5  19
BRANCH   9  25
ATOM     25  O   UNL     1      -1.597  13.325  23.216  0.00  0.00    +0.000 OA
BRANCH  25  26
ATOM     26  C   UNL     1      -2.970  13.229  23.383  0.00  0.00    +0.000 A 
ATOM     27  C   UNL     1      -3.735  13.449  22.222  0.00  0.00    +0.000 A 
ATOM     28  C   UNL     1      -5.113  13.180  22.201  0.00  0.00    +0.000 A 
ATOM     29  C   UNL     1      -5.735  12.685  23.351  0.00  0.00    +0.000 A 
ATOM     30  C   UNL     1      -5.009  12.558  24.544  0.00  0.00    +0.000 A 
ATOM     31  C   UNL     1      -3.623  12.811  24.546  0.00  0.00    +0.000 A 
BRANCH  29  32
ATOM     32  N   UNL     1      -7.119  12.188  23.277  0.00  0.00    +0.000 N 
ATOM     33  O   UNL     1      -7.916  12.569  24.149  0.00  0.00    +0.000 OA
ATOM     34  O   UNL     1      -7.421  11.452  22.327  0.00  0.00    +0.000 OA
ENDBRANCH  29  32
ENDBRANCH  25  26
ENDBRANCH   9  25
TORSDOF 5
ENDMDL
MODEL 6
REMARK VINA RESULT:      -7.7      2.812      3.868
REMARK  Name = 
REMARK  6 active torsions:
REMARK  status: ('A' for Active; 'I' for Inactive)
REMARK    1  A    between atoms: C_1  and  C_2
REMARK    2  A    between atoms: C_8  and  C_9
REMARK    3  A    between atoms: C_13  and  C_14
REMARK    4  A    between atoms: C_23  and  O_24
REMARK    5  A    between atoms: O_24  and  C_25
REMARK    6  A    between atoms: C_28  and  N_29
REMARK                            x       y       z     vdW  Elec       q    Type
REMARK                         _______ _______ _______ _____ _____    ______ ____
ROOT
ATOM      1  C   UNL     1      -0.196  12.656  21.065  0.00  0.00    +0.000 A 
ATOM      2  C   UNL     1       0.593  11.995  20.093  0.00  0.00    +0.000 A 
ATOM      3  C   UNL     1       0.760  10.627  20.215  0.00  0.00    +0.000 A 
ATOM      4  N   UNL     1       1.473   9.731  19.476  0.00  0.00    +0.000 N 
ATOM      5  C   UNL     1       1.387   8.500  20.081  0.00  0.00    +0.000 A 
ATOM      6  N   UNL     1       0.590   8.559  21.132  0.00  0.00    +0.000 NA
ATOM      7  C   UNL     1       0.201   9.875  21.231  0.00  0.00    +0.000 A 
ATOM      8  C   UNL     1      -0.607  10.512  22.184  0.00  0.00    +0.000 A 
ATOM      9  C   UNL     1      -0.838  11.900  22.088  0.00  0.00    +0.000 A 
ATOM     10  H   UNL     1       2.034   9.917  18.656  0.00  0.00    +0.000 HD
ENDROOT
BRANCH   1  18
ATOM     11  C   UNL     1       3.446  15.264  20.428  0.00  0.00    +0.000 C 
ATOM     12  C   UNL     1       2.220  14.699  21.085  0.00  0.00    +0.000 C 
ATOM     13  O   UNL     1       2.288  14.206  22.213  0.00  0.00    +0.000 OA
ATOM     14  N   UNL     1       1.052  14.738  20.357  0.00  0.00    +0.000 N 
ATOM     15  C   UNL     1       0.757  15.560  19.195  0.00  0.00    +0.000 C 
ATOM     16  C   UNL     1      -0.732  15.870  19.298  0.00  0.00    +0.000 C 
ATOM     17  C   UNL     1      -1.310  14.670  20.031  0.00  0.00    +0.000 C 
ATOM     18  C   UNL     1      -0.154  14.169  20.910  0.00  0.00    +0.000 C 
ENDBRANCH   1  18
BRANCH   5  19
ATOM     19  C   UNL     1       2.139   7.369  19.561  0.00  0.00    +0.000 A 
ATOM     20  C   UNL     1       2.796   7.428  18.338  0.00  0.00    +0.000 A 
ATOM     21  C   UNL     1       3.454   6.283  17.898  0.00  0.00    +0.000 A 
ATOM     22  C   UNL     1       3.432   5.131  18.677  0.00  0.00    +0.000 A 
ATOM     23  C   UNL     1       2.750   5.168  19.882  0.00  0.00    +0.000 A 
ATOM     24  N   UNL     1       2.099   6.257  20.346  0.00  0.00    +0.000 NA
ENDBRANCH   5  19
BRANCH   9  25
ATOM     25  O   UNL     1      -1.589  12.551  23.058  0.00  0.00    +0.000 OA
BRANCH  25  26
ATOM     26  C   UNL     1      -2.976  12.560  23.030  0.00  0.00    +0.000 A 
ATOM     27  C   UNL     1      -3.604  12.507  24.289  0.00  0.00    +0.000 A 
ATOM     28  C   UNL     1      -4.986  12.717  24.417  0.00  0.00    +0.000 A 
ATOM     29  C   UNL     1      -5.751  12.986  23.278  0.00  0.00    +0.000 A 
ATOM     30  C   UNL     1      -5.158  12.941  22.008  0.00  0.00    +0.000 A 
ATOM     31  C   UNL     1      -3.767  12.749  21.894  0.00  0.00    +0.000 A 
BRANCH  29  32
ATOM     32  N   UNL     1      -7.147  13.430  23.423  0.00  0.00    +0.000 N 
ATOM     33  O   UNL     1      -7.836  12.887  24.300  0.00  0.00    +0.000 OA
ATOM     34  O   UNL     1      -7.543  14.346  22.689  0.00  0.00    +0.000 OA
ENDBRANCH  29  32
ENDBRANCH  25  26
ENDBRANCH   9  25
TORSDOF 5
ENDMDL
MODEL 7
REMARK VINA RESULT:      -7.6      5.045     10.146
REMARK  Name = 
REMARK  6 active torsions:
REMARK  status: ('A' for Active; 'I' for Inactive)
REMARK    1  A    between atoms: C_1  and  C_2
REMARK    2  A    between atoms: C_8  and  C_9
REMARK    3  A    between atoms: C_13  and  C_14
REMARK    4  A    between atoms: C_23  and  O_24
REMARK    5  A    between atoms: O_24  and  C_25
REMARK    6  A    between atoms: C_28  and  N_29
REMARK                            x       y       z     vdW  Elec       q    Type
REMARK                         _______ _______ _______ _____ _____    ______ ____
ROOT
ATOM      1  C   UNL     1       2.508   5.352  19.008  0.00  0.00    +0.000 A 
ATOM      2  C   UNL     1       1.574   6.398  19.195  0.00  0.00    +0.000 A 
ATOM      3  C   UNL     1       1.908   7.657  18.730  0.00  0.00    +0.000 A 
ATOM      4  N   UNL     1       1.251   8.850  18.788  0.00  0.00    +0.000 N 
ATOM      5  C   UNL     1       2.067   9.823  18.262  0.00  0.00    +0.000 A 
ATOM      6  N   UNL     1       3.184   9.288  17.803  0.00  0.00    +0.000 NA
ATOM      7  C   UNL     1       3.102   7.947  18.095  0.00  0.00    +0.000 A 
ATOM      8  C   UNL     1       4.024   6.913  17.877  0.00  0.00    +0.000 A 
ATOM      9  C   UNL     1       3.718   5.603  18.301  0.00  0.00    +0.000 A 
ATOM     10  H   UNL     1       0.348   9.036  19.200  0.00  0.00    +0.000 HD
ENDROOT
BRANCH   1  18
ATOM     11  C   UNL     1       3.711   1.114  17.983  0.00  0.00    +0.000 C 
ATOM     12  C   UNL     1       2.832   2.309  18.203  0.00  0.00    +0.000 C 
ATOM     13  O   UNL     1       2.136   2.748  17.285  0.00  0.00    +0.000 OA
ATOM     14  N   UNL     1       2.873   2.890  19.451  0.00  0.00    +0.000 N 
ATOM     15  C   UNL     1       3.371   2.306  20.685  0.00  0.00    +0.000 C 
ATOM     16  C   UNL     1       2.493   2.894  21.783  0.00  0.00    +0.000 C 
ATOM     17  C   UNL     1       2.084   4.254  21.240  0.00  0.00    +0.000 C 
ATOM     18  C   UNL     1       2.088   4.072  19.715  0.00  0.00    +0.000 C 
ENDBRANCH   1  18
BRANCH   5  19
ATOM     19  C   UNL     1       1.660  11.219  18.287  0.00  0.00    +0.000 A 
ATOM     20  C   UNL     1       0.346  11.593  18.538  0.00  0.00    +0.000 A 
ATOM     21  C   UNL     1       0.037  12.950  18.499  0.00  0.00    +0.000 A 
ATOM     22  C   UNL     1       1.033  13.877  18.209  0.00  0.00    +0.000 A 
ATOM     23  C   UNL     1       2.315  13.408  17.973  0.00  0.00    +0.000 A 
ATOM     24  N   UNL     1       2.656  12.102  18.000  0.00  0.00    +0.000 NA
ENDBRANCH   5  19
BRANCH   9  25
ATOM     25  O   UNL     1       4.648   4.584  18.141  0.00  0.00    +0.000 OA
BRANCH  25  26
ATOM     26  C   UNL     1       5.479   4.515  17.033  0.00  0.00    +0.000 A 
ATOM     27  C   UNL     1       4.834   4.241  15.812  0.00  0.00    +0.000 A 
ATOM     28  C   UNL     1       5.520   4.349  14.591  0.00  0.00    +0.000 A 
ATOM     29  C   UNL     1       6.864   4.735  14.588  0.00  0.00    +0.000 A 
ATOM     30  C   UNL     1       7.547   4.911  15.800  0.00  0.00    +0.000 A 
ATOM     31  C   UNL     1       6.842   4.821  17.016  0.00  0.00    +0.000 A 
BRANCH  29  32
ATOM     32  N   UNL     1       7.525   5.070  13.315  0.00  0.00    +0.000 N 
ATOM     33  O   UNL     1       7.094   4.531  12.284  0.00  0.00    +0.000 OA
ATOM     34  O   UNL     1       8.446   5.898  13.341  0.00  0.00    +0.000 OA
ENDBRANCH  29  32
ENDBRANCH  25  26
ENDBRANCH   9  25
TORSDOF 5
ENDMDL
MODEL 8
REMARK VINA RESULT:      -7.6      1.053      1.280
REMARK  Name = 
REMARK  6 active torsions:
REMARK  status: ('A' for Active; 'I' for Inactive)
REMARK    1  A    between atoms: C_1  and  C_2
REMARK    2  A    between atoms: C_8  and  C_9
REMARK    3  A    between atoms: C_13  and  C_14
REMARK    4  A    between atoms: C_23  and  O_24
REMARK    5  A    between atoms: O_24  and  C_25
REMARK    6  A    between atoms: C_28  and  N_29
REMARK                            x       y       z     vdW  Elec       q    Type
REMARK                         _______ _______ _______ _____ _____    ______ ____
ROOT
ATOM      1  C   UNL     1      -0.108  11.217  21.424  0.00  0.00    +0.000 A 
ATOM      2  C   UNL     1       0.710  10.164  21.897  0.00  0.00    +0.000 A 
ATOM      3  C   UNL     1       1.135   9.213  20.987  0.00  0.00    +0.000 A 
ATOM      4  N   UNL     1       1.886   8.085  21.137  0.00  0.00    +0.000 N 
ATOM      5  C   UNL     1       1.937   7.432  19.929  0.00  0.00    +0.000 A 
ATOM      6  N   UNL     1       1.314   8.133  19.000  0.00  0.00    +0.000 NA
ATOM      7  C   UNL     1       0.804   9.236  19.645  0.00  0.00    +0.000 A 
ATOM      8  C   UNL     1       0.019  10.290  19.156  0.00  0.00    +0.000 A 
ATOM      9  C   UNL     1      -0.413  11.305  20.035  0.00  0.00    +0.000 A 
ATOM     10  H   UNL     1       2.294   7.726  21.989  0.00  0.00    +0.000 HD
ENDROOT
BRANCH   1  18
ATOM     11  C   UNL     1      -0.050  15.732  21.690  0.00  0.00    +0.000 C 
ATOM     12  C   UNL     1       0.240  14.302  22.036  0.00  0.00    +0.000 C 
ATOM     13  O   UNL     1       1.403  13.894  22.084  0.00  0.00    +0.000 OA
ATOM     14  N   UNL     1      -0.846  13.485  22.262  0.00  0.00    +0.000 N 
ATOM     15  C   UNL     1      -2.211  13.886  22.560  0.00  0.00    +0.000 C 
ATOM     16  C   UNL     1      -2.747  12.802  23.488  0.00  0.00    +0.000 C 
ATOM     17  C   UNL     1      -1.980  11.554  23.081  0.00  0.00    +0.000 C 
ATOM     18  C   UNL     1      -0.640  12.087  22.553  0.00  0.00    +0.000 C 
ENDBRANCH   1  18
BRANCH   5  19
ATOM     19  C   UNL     1       2.593   6.138  19.818  0.00  0.00    +0.000 A 
ATOM     20  C   UNL     1       2.132   5.023  20.508  0.00  0.00    +0.000 A 
ATOM     21  C   UNL     1       2.847   3.836  20.377  0.00  0.00    +0.000 A 
ATOM     22  C   UNL     1       3.986   3.801  19.578  0.00  0.00    +0.000 A 
ATOM     23  C   UNL     1       4.367   4.964  18.929  0.00  0.00    +0.000 A 
ATOM     24  N   UNL     1       3.703   6.135  19.030  0.00  0.00    +0.000 NA
ENDBRANCH   5  19
BRANCH   9  25
ATOM     25  O   UNL     1      -1.238  12.322  19.573  0.00  0.00    +0.000 OA
BRANCH  25  26
ATOM     26  C   UNL     1      -2.529  12.077  19.130  0.00  0.00    +0.000 A 
ATOM     27  C   UNL     1      -3.554  12.499  19.998  0.00  0.00    +0.000 A 
ATOM     28  C   UNL     1      -4.896  12.502  19.585  0.00  0.00    +0.000 A 
ATOM     29  C   UNL     1      -5.220  12.082  18.292  0.00  0.00    +0.000 A 
ATOM     30  C   UNL     1      -4.224  11.563  17.452  0.00  0.00    +0.000 A 
ATOM     31  C   UNL     1      -2.879  11.585  17.870  0.00  0.00    +0.000 A 
BRANCH  29  32
ATOM     32  N   UNL     1      -6.582  12.293  17.774  0.00  0.00    +0.000 N 
ATOM     33  O   UNL     1      -6.701  12.865  16.680  0.00  0.00    +0.000 OA
ATOM     34  O   UNL     1      -7.530  11.854  18.441  0.00  0.00    +0.000 OA
ENDBRANCH  29  32
ENDBRANCH  25  26
ENDBRANCH   9  25
TORSDOF 5
ENDMDL
MODEL 9
REMARK VINA RESULT:      -7.6      2.860      3.855
REMARK  Name = 
REMARK  6 active torsions:
REMARK  status: ('A' for Active; 'I' for Inactive)
REMARK    1  A    between atoms: C_1  and  C_2
REMARK    2  A    between atoms: C_8  and  C_9
REMARK    3  A    between atoms: C_13  and  C_14
REMARK    4  A    between atoms: C_23  and  O_24
REMARK    5  A    between atoms: O_24  and  C_25
REMARK    6  A    between atoms: C_28  and  N_29
REMARK                            x       y       z     vdW  Elec       q    Type
REMARK                         _______ _______ _______ _____ _____    ______ ____
ROOT
ATOM      1  C   UNL     1       0.626  11.511  20.405  0.00  0.00    +0.000 A 
ATOM      2  C   UNL     1       1.059  10.855  19.229  0.00  0.00    +0.000 A 
ATOM      3  C   UNL     1       1.393   9.515  19.320  0.00  0.00    +0.000 A 
ATOM      4  N   UNL     1       1.866   8.634  18.394  0.00  0.00    +0.000 N 
ATOM      5  C   UNL     1       2.132   7.441  19.023  0.00  0.00    +0.000 A 
ATOM      6  N   UNL     1       1.778   7.504  20.295  0.00  0.00    +0.000 NA
ATOM      7  C   UNL     1       1.326   8.787  20.493  0.00  0.00    +0.000 A 
ATOM      8  C   UNL     1       0.870   9.418  21.659  0.00  0.00    +0.000 A 
ATOM      9  C   UNL     1       0.484  10.774  21.616  0.00  0.00    +0.000 A 
ATOM     10  H   UNL     1       2.063   8.811  17.419  0.00  0.00    +0.000 HD
ENDROOT
BRANCH   1  18
ATOM     11  C   UNL     1       3.885  14.605  19.884  0.00  0.00    +0.000 C 
ATOM     12  C   UNL     1       2.716  13.885  20.490  0.00  0.00    +0.000 C 
ATOM     13  O   UNL     1       2.786  13.436  21.636  0.00  0.00    +0.000 OA
ATOM     14  N   UNL     1       1.600  13.734  19.696  0.00  0.00    +0.000 N 
ATOM     15  C   UNL     1       1.261  14.474  18.493  0.00  0.00    +0.000 C 
ATOM     16  C   UNL     1      -0.260  14.566  18.501  0.00  0.00    +0.000 C 
ATOM     17  C   UNL     1      -0.703  13.314  19.242  0.00  0.00    +0.000 C 
ATOM     18  C   UNL     1       0.459  13.010  20.201  0.00  0.00    +0.000 C 
ENDBRANCH   1  18
BRANCH   5  19
ATOM     19  C   UNL     1       2.744   6.343  18.293  0.00  0.00    +0.000 A 
ATOM     20  C   UNL     1       2.118   5.109  18.167  0.00  0.00    +0.000 A 
ATOM     21  C   UNL     1       2.798   4.101  17.488  0.00  0.00    +0.000 A 
ATOM     22  C   UNL     1       4.064   4.351  16.969  0.00  0.00    +0.000 A 
ATOM     23  C   UNL     1       4.606   5.613  17.144  0.00  0.00    +0.000 A 
ATOM     24  N   UNL     1       3.982   6.618  17.796  0.00  0.00    +0.000 NA
ENDBRANCH   5  19
BRANCH   9  25
ATOM     25  O   UNL     1       0.086  11.423  22.777  0.00  0.00    +0.000 OA
BRANCH  25  26
ATOM     26  C   UNL     1      -0.998  12.287  22.800  0.00  0.00    +0.000 A 
ATOM     27  C   UNL     1      -2.263  11.669  22.764  0.00  0.00    +0.000 A 
ATOM     28  C   UNL     1      -3.436  12.407  22.990  0.00  0.00    +0.000 A 
ATOM     29  C   UNL     1      -3.347  13.777  23.258  0.00  0.00    +0.000 A 
ATOM     30  C   UNL     1      -2.105  14.425  23.196  0.00  0.00    +0.000 A 
ATOM     31  C   UNL     1      -0.934  13.670  22.989  0.00  0.00    +0.000 A 
BRANCH  29  32
ATOM     32  N   UNL     1      -4.538  14.510  23.718  0.00  0.00    +0.000 N 
ATOM     33  O   UNL     1      -4.408  15.717  23.976  0.00  0.00    +0.000 OA
ATOM     34  O   UNL     1      -5.609  13.892  23.784  0.00  0.00    +0.000 OA
ENDBRANCH  29  32
ENDBRANCH  25  26
ENDBRANCH   9  25
TORSDOF 5
ENDMDL
