MODEL 1
REMARK VINA RESULT:      -7.9      0.000      0.000
REMARK  Name = 
REMARK  8 active torsions:
REMARK  status: ('A' for Active; 'I' for Inactive)
REMARK    1  A    between atoms: C_1  and  O_2
REMARK    2  A    between atoms: O_2  and  C_3
REMARK    3  A    between atoms: C_6  and  N_7
REMARK    4  A    between atoms: N_15  and  C_16
REMARK    5  A    between atoms: C_16  and  C_17
REMARK    6  A    between atoms: C_22  and  C_23
REMARK    7  A    between atoms: C_32  and  O_33
REMARK    8  A    between atoms: O_33  and  C_34
REMARK                            x       y       z     vdW  Elec       q    Type
REMARK                         _______ _______ _______ _____ _____    ______ ____
ROOT
ATOM      1  N   UNL     1      -0.692  12.399  20.569  0.00  0.00    +0.000 N 
ATOM      2  C   UNL     1       0.108  13.548  20.605  0.00  0.00    +0.000 A 
ATOM      3  O   UNL     1      -0.100  14.530  21.307  0.00  0.00    +0.000 OA
ATOM      4  C   UNL     1       1.243  13.506  19.710  0.00  0.00    +0.000 A 
ATOM      5  C   UNL     1       2.224  14.526  19.475  0.00  0.00    +0.000 A 
ATOM      6  C   UNL     1       3.105  14.148  18.480  0.00  0.00    +0.000 A 
ATOM      7  S   UNL     1       2.819  12.556  17.933  0.00  0.00    +0.000 S 
ATOM      8  C   UNL     1       1.454  12.400  18.930  0.00  0.00    +0.000 A 
ATOM      9  N   UNL     1       0.633  11.280  18.897  0.00  0.00    +0.000 N 
ATOM     10  C   UNL     1      -0.514  11.291  19.715  0.00  0.00    +0.000 A 
ATOM     11  O   UNL     1      -1.366  10.400  19.601  0.00  0.00    +0.000 OA
ATOM     12  C   UNL     1       4.212  15.003  17.941  0.00  0.00    +0.000 C 
ATOM     13  C   UNL     1       4.024  16.469  18.376  0.00  0.00    +0.000 C 
ATOM     14  C   UNL     1       3.634  16.576  19.856  0.00  0.00    +0.000 C 
ATOM     15  C   UNL     1       2.296  15.876  20.134  0.00  0.00    +0.000 C 
ENDROOT
BRANCH   1  19
ATOM     16  C   UNL     1      -4.062  12.543  23.126  0.00  0.00    +0.000 A 
ATOM     17  C   UNL     1      -4.120  13.098  21.847  0.00  0.00    +0.000 A 
ATOM     18  C   UNL     1      -3.011  13.043  21.001  0.00  0.00    +0.000 A 
ATOM     19  C   UNL     1      -1.835  12.408  21.425  0.00  0.00    +0.000 A 
ATOM     20  C   UNL     1      -1.771  11.845  22.713  0.00  0.00    +0.000 A 
ATOM     21  C   UNL     1      -2.884  11.929  23.563  0.00  0.00    +0.000 A 
BRANCH  16  23
ATOM     22  C   UNL     1      -6.410  12.943  23.124  0.00  0.00    +0.000 C 
ATOM     23  O   UNL     1      -5.216  12.683  23.849  0.00  0.00    +0.000 OA
ENDBRANCH  16  23
BRANCH  20  24
ATOM     24  O   UNL     1      -0.552  11.351  23.106  0.00  0.00    +0.000 OA
ATOM     25  C   UNL     1      -0.455   9.935  23.196  0.00  0.00    +0.000 C 
ENDBRANCH  20  24
ENDBRANCH   1  19
BRANCH   9  26
ATOM     26  C   UNL     1       0.819  10.121  18.010  0.00  0.00    +0.000 C 
BRANCH  26  27
ATOM     27  C   UNL     1       1.611   8.951  18.623  0.00  0.00    +0.000 C 
ATOM     28  O   UNL     1       1.554   8.649  19.811  0.00  0.00    +0.000 OA
ATOM     29  N   UNL     1       2.375   8.295  17.669  0.00  0.00    +0.000 N 
ATOM     30  C   UNL     1       3.221   7.246  17.939  0.00  0.00    +0.000 A 
ATOM     31  C   UNL     1       3.107   6.194  18.877  0.00  0.00    +0.000 A 
ATOM     32  C   UNL     1       4.257   5.446  18.724  0.00  0.00    +0.000 A 
ATOM     33  C   UNL     1       4.748   4.207  19.369  0.00  0.00    +0.000 C 
ATOM     34  N   UNL     1       4.990   6.106  17.779  0.00  0.00    +0.000 N 
ATOM     35  N   UNL     1       4.333   7.129  17.208  0.00  0.00    +0.000 NA
ATOM     36  H   UNL     1       2.625   8.773  16.814  0.00  0.00    +0.000 HD
ATOM     37  H   UNL     1       5.931   5.902  17.461  0.00  0.00    +0.000 HD
ENDBRANCH  26  27
ENDBRANCH   9  26
TORSDOF 5
ENDMDL
MODEL 2
REMARK VINA RESULT:      -7.3      2.986      4.622
REMARK  Name = 
REMARK  8 active torsions:
REMARK  status: ('A' for Active; 'I' for Inactive)
REMARK    1  A    between atoms: C_1  and  O_2
REMARK    2  A    between atoms: O_2  and  C_3
REMARK    3  A    between atoms: C_6  and  N_7
REMARK    4  A    between atoms: N_15  and  C_16
REMARK    5  A    between atoms: C_16  and  C_17
REMARK    6  A    between atoms: C_22  and  C_23
REMARK    7  A    between atoms: C_32  and  O_33
REMARK    8  A    between atoms: O_33  and  C_34
REMARK                            x       y       z     vdW  Elec       q    Type
REMARK                         _______ _______ _______ _____ _____    ______ ____
ROOT
ATOM      1  N   UNL     1      -1.529  12.257  21.207  0.00  0.00    +0.000 N 
ATOM      2  C   UNL     1      -2.390  12.200  20.105  0.00  0.00    +0.000 A 
ATOM      3  O   UNL     1      -3.458  12.793  20.013  0.00  0.00    +0.000 OA
ATOM      4  C   UNL     1      -1.924  11.347  19.034  0.00  0.00    +0.000 A 
ATOM      5  C   UNL     1      -2.580  11.039  17.797  0.00  0.00    +0.000 A 
ATOM      6  C   UNL     1      -1.858  10.113  17.068  0.00  0.00    +0.000 A 
ATOM      7  S   UNL     1      -0.371   9.723  17.811  0.00  0.00    +0.000 S 
ATOM      8  C   UNL     1      -0.728  10.690  19.159  0.00  0.00    +0.000 A 
ATOM      9  N   UNL     1       0.100  10.746  20.273  0.00  0.00    +0.000 N 
ATOM     10  C   UNL     1      -0.334  11.525  21.365  0.00  0.00    +0.000 A 
ATOM     11  O   UNL     1       0.276  11.478  22.441  0.00  0.00    +0.000 OA
ATOM     12  C   UNL     1      -2.289   9.524  15.759  0.00  0.00    +0.000 C 
ATOM     13  C   UNL     1      -3.784   9.802  15.506  0.00  0.00    +0.000 C 
ATOM     14  C   UNL     1      -4.156  11.251  15.844  0.00  0.00    +0.000 C 
ATOM     15  C   UNL     1      -3.912  11.559  17.329  0.00  0.00    +0.000 C 
ENDROOT
BRANCH   1  19
ATOM     16  C   UNL     1      -2.922  14.689  24.380  0.00  0.00    +0.000 A 
ATOM     17  C   UNL     1      -3.350  13.365  24.261  0.00  0.00    +0.000 A 
ATOM     18  C   UNL     1      -2.884  12.562  23.220  0.00  0.00    +0.000 A 
ATOM     19  C   UNL     1      -1.962  13.074  22.295  0.00  0.00    +0.000 A 
ATOM     20  C   UNL     1      -1.525  14.407  22.410  0.00  0.00    +0.000 A 
ATOM     21  C   UNL     1      -2.020  15.212  23.447  0.00  0.00    +0.000 A 
BRANCH  16  23
ATOM     22  C   UNL     1      -3.891  16.700  25.209  0.00  0.00    +0.000 C 
ATOM     23  O   UNL     1      -3.471  15.362  25.437  0.00  0.00    +0.000 OA
ENDBRANCH  16  23
BRANCH  20  24
ATOM     24  O   UNL     1      -0.721  14.877  21.402  0.00  0.00    +0.000 OA
ATOM     25  C   UNL     1      -1.309  15.841  20.538  0.00  0.00    +0.000 C 
ENDBRANCH  20  24
ENDBRANCH   1  19
BRANCH   9  26
ATOM     26  C   UNL     1       1.349   9.988  20.438  0.00  0.00    +0.000 C 
BRANCH  26  27
ATOM     27  C   UNL     1       1.168   8.502  20.802  0.00  0.00    +0.000 C 
ATOM     28  O   UNL     1       0.375   8.110  21.653  0.00  0.00    +0.000 OA
ATOM     29  N   UNL     1       1.998   7.686  20.048  0.00  0.00    +0.000 N 
ATOM     30  C   UNL     1       2.087   6.322  20.195  0.00  0.00    +0.000 A 
ATOM     31  C   UNL     1       1.096   5.369  20.523  0.00  0.00    +0.000 A 
ATOM     32  C   UNL     1       1.754   4.156  20.552  0.00  0.00    +0.000 A 
ATOM     33  C   UNL     1       1.303   2.767  20.798  0.00  0.00    +0.000 C 
ATOM     34  N   UNL     1       3.064   4.456  20.306  0.00  0.00    +0.000 N 
ATOM     35  N   UNL     1       3.268   5.740  19.972  0.00  0.00    +0.000 NA
ATOM     36  H   UNL     1       2.826   8.076  19.619  0.00  0.00    +0.000 HD
ATOM     37  H   UNL     1       3.864   3.831  20.329  0.00  0.00    +0.000 HD
ENDBRANCH  26  27
ENDBRANCH   9  26
TORSDOF 5
ENDMDL
MODEL 3
REMARK VINA RESULT:      -7.1      0.787      1.554
REMARK  Name = 
REMARK  8 active torsions:
REMARK  status: ('A' for Active; 'I' for Inactive)
REMARK    1  A    between atoms: C_1  and  O_2
REMARK    2  A    between atoms: O_2  and  C_3
REMARK    3  A    between atoms: C_6  and  N_7
REMARK    4  A    between atoms: N_15  and  C_16
REMARK    5  A    between atoms: C_16  and  C_17
REMARK    6  A    between atoms: C_22  and  C_23
REMARK    7  A    between atoms: C_32  and  O_33
REMARK    8  A    between atoms: O_33  and  C_34
REMARK                            x       y       z     vdW  Elec       q    Type
REMARK                         _______ _______ _______ _____ _____    ______ ____
ROOT
ATOM      1  N   UNL     1      -0.813  12.412  20.677  0.00  0.00    +0.000 N 
ATOM      2  C   UNL     1      -0.020  13.566  20.659  0.00  0.00    +0.000 A 
ATOM      3  O   UNL     1      -0.216  14.566  21.339  0.00  0.00    +0.000 OA
ATOM      4  C   UNL     1       1.092  13.506  19.737  0.00  0.00    +0.000 A 
ATOM      5  C   UNL     1       2.060  14.523  19.448  0.00  0.00    +0.000 A 
ATOM      6  C   UNL     1       2.918  14.122  18.442  0.00  0.00    +0.000 A 
ATOM      7  S   UNL     1       2.628  12.514  17.949  0.00  0.00    +0.000 S 
ATOM      8  C   UNL     1       1.290  12.378  18.984  0.00  0.00    +0.000 A 
ATOM      9  N   UNL     1       0.476  11.253  19.004  0.00  0.00    +0.000 N 
ATOM     10  C   UNL     1      -0.650  11.282  19.850  0.00  0.00    +0.000 A 
ATOM     11  O   UNL     1      -1.498  10.382  19.784  0.00  0.00    +0.000 OA
ATOM     12  C   UNL     1       4.006  14.968  17.851  0.00  0.00    +0.000 C 
ATOM     13  C   UNL     1       3.819  16.444  18.249  0.00  0.00    +0.000 C 
ATOM     14  C   UNL     1       3.467  16.592  19.734  0.00  0.00    +0.000 C 
ATOM     15  C   UNL     1       2.141  15.892  20.066  0.00  0.00    +0.000 C 
ENDROOT
BRANCH   1  19
ATOM     16  C   UNL     1      -4.135  12.374  23.300  0.00  0.00    +0.000 A 
ATOM     17  C   UNL     1      -2.859  12.055  23.768  0.00  0.00    +0.000 A 
ATOM     18  C   UNL     1      -1.763  12.076  22.905  0.00  0.00    +0.000 A 
ATOM     19  C   UNL     1      -1.933  12.440  21.561  0.00  0.00    +0.000 A 
ATOM     20  C   UNL     1      -3.217  12.764  21.083  0.00  0.00    +0.000 A 
ATOM     21  C   UNL     1      -4.315  12.716  21.956  0.00  0.00    +0.000 A 
BRANCH  16  23
ATOM     22  C   UNL     1      -6.320  13.009  24.003  0.00  0.00    +0.000 C 
ATOM     23  O   UNL     1      -5.115  12.297  24.252  0.00  0.00    +0.000 OA
ENDBRANCH  16  23
BRANCH  20  24
ATOM     24  O   UNL     1      -3.329  12.990  19.734  0.00  0.00    +0.000 OA
ATOM     25  C   UNL     1      -4.335  12.243  19.062  0.00  0.00    +0.000 C 
ENDBRANCH  20  24
ENDBRANCH   1  19
BRANCH   9  26
ATOM     26  C   UNL     1       0.647  10.071  18.146  0.00  0.00    +0.000 C 
BRANCH  26  27
ATOM     27  C   UNL     1       1.521   8.952  18.743  0.00  0.00    +0.000 C 
ATOM     28  O   UNL     1       1.559   8.696  19.943  0.00  0.00    +0.000 OA
ATOM     29  N   UNL     1       2.238   8.283  17.762  0.00  0.00    +0.000 N 
ATOM     30  C   UNL     1       3.137   7.274  18.010  0.00  0.00    +0.000 A 
ATOM     31  C   UNL     1       3.126   6.257  18.992  0.00  0.00    +0.000 A 
ATOM     32  C   UNL     1       4.288   5.540  18.785  0.00  0.00    +0.000 A 
ATOM     33  C   UNL     1       4.866   4.344  19.438  0.00  0.00    +0.000 C 
ATOM     34  N   UNL     1       4.928   6.185  17.765  0.00  0.00    +0.000 N 
ATOM     35  N   UNL     1       4.197   7.162  17.205  0.00  0.00    +0.000 NA
ATOM     36  H   UNL     1       2.410   8.734  16.874  0.00  0.00    +0.000 HD
ATOM     37  H   UNL     1       5.851   5.998  17.387  0.00  0.00    +0.000 HD
ENDBRANCH  26  27
ENDBRANCH   9  26
TORSDOF 5
ENDMDL
MODEL 4
REMARK VINA RESULT:      -7.1      6.643     10.192
REMARK  Name = 
REMARK  8 active torsions:
REMARK  status: ('A' for Active; 'I' for Inactive)
REMARK    1  A    between atoms: C_1  and  O_2
REMARK    2  A    between atoms: O_2  and  C_3
REMARK    3  A    between atoms: C_6  and  N_7
REMARK    4  A    between atoms: N_15  and  C_16
REMARK    5  A    between atoms: C_16  and  C_17
REMARK    6  A    between atoms: C_22  and  C_23
REMARK    7  A    between atoms: C_32  and  O_33
REMARK    8  A    between atoms: O_33  and  C_34
REMARK                            x       y       z     vdW  Elec       q    Type
REMARK                         _______ _______ _______ _____ _____    ______ ____
ROOT
ATOM      1  N   UNL     1       4.711   4.620  17.979  0.00  0.00    +0.000 N 
ATOM      2  C   UNL     1       4.576   4.178  16.657  0.00  0.00    +0.000 A 
ATOM      3  O   UNL     1       3.655   3.490  16.234  0.00  0.00    +0.000 OA
ATOM      4  C   UNL     1       5.649   4.596  15.781  0.00  0.00    +0.000 A 
ATOM      5  C   UNL     1       5.834   4.281  14.395  0.00  0.00    +0.000 A 
ATOM      6  C   UNL     1       7.029   4.792  13.924  0.00  0.00    +0.000 A 
ATOM      7  S   UNL     1       7.841   5.724  15.101  0.00  0.00    +0.000 S 
ATOM      8  C   UNL     1       6.672   5.361  16.276  0.00  0.00    +0.000 A 
ATOM      9  N   UNL     1       6.794   5.769  17.598  0.00  0.00    +0.000 N 
ATOM     10  C   UNL     1       5.800   5.347  18.503  0.00  0.00    +0.000 A 
ATOM     11  O   UNL     1       5.945   5.537  19.717  0.00  0.00    +0.000 OA
ATOM     12  C   UNL     1       7.564   4.592  12.539  0.00  0.00    +0.000 C 
ATOM     13  C   UNL     1       6.800   3.462  11.822  0.00  0.00    +0.000 C 
ATOM     14  C   UNL     1       5.286   3.571  12.042  0.00  0.00    +0.000 C 
ATOM     15  C   UNL     1       4.927   3.449  13.530  0.00  0.00    +0.000 C 
ENDROOT
BRANCH   1  19
ATOM     16  C   UNL     1       1.626   3.327  20.573  0.00  0.00    +0.000 A 
ATOM     17  C   UNL     1       2.791   2.572  20.426  0.00  0.00    +0.000 A 
ATOM     18  C   UNL     1       3.811   3.003  19.577  0.00  0.00    +0.000 A 
ATOM     19  C   UNL     1       3.681   4.213  18.880  0.00  0.00    +0.000 A 
ATOM     20  C   UNL     1       2.511   4.980  19.026  0.00  0.00    +0.000 A 
ATOM     21  C   UNL     1       1.481   4.524  19.864  0.00  0.00    +0.000 A 
BRANCH  16  23
ATOM     22  C   UNL     1       1.203   2.139  22.593  0.00  0.00    +0.000 C 
ATOM     23  O   UNL     1       0.707   2.778  21.425  0.00  0.00    +0.000 OA
ENDBRANCH  16  23
BRANCH  20  24
ATOM     24  O   UNL     1       2.400   6.087  18.221  0.00  0.00    +0.000 OA
ATOM     25  C   UNL     1       2.527   7.344  18.873  0.00  0.00    +0.000 C 
ENDBRANCH  20  24
ENDBRANCH   1  19
BRANCH   9  26
ATOM     26  C   UNL     1       7.926   6.532  18.146  0.00  0.00    +0.000 C 
BRANCH  26  27
ATOM     27  C   UNL     1       7.914   8.039  17.825  0.00  0.00    +0.000 C 
ATOM     28  O   UNL     1       7.219   8.533  16.943  0.00  0.00    +0.000 OA
ATOM     29  N   UNL     1       8.771   8.746  18.656  0.00  0.00    +0.000 N 
ATOM     30  C   UNL     1       9.002  10.097  18.563  0.00  0.00    +0.000 A 
ATOM     31  C   UNL     1       8.131  11.154  18.211  0.00  0.00    +0.000 A 
ATOM     32  C   UNL     1       8.906  12.296  18.264  0.00  0.00    +0.000 A 
ATOM     33  C   UNL     1       8.609  13.729  18.040  0.00  0.00    +0.000 C 
ATOM     34  N   UNL     1      10.162  11.860  18.576  0.00  0.00    +0.000 N 
ATOM     35  N   UNL     1      10.218  10.552  18.876  0.00  0.00    +0.000 NA
ATOM     36  H   UNL     1       9.528   8.263  19.120  0.00  0.00    +0.000 HD
ATOM     37  H   UNL     1      11.019  12.401  18.624  0.00  0.00    +0.000 HD
ENDBRANCH  26  27
ENDBRANCH   9  26
TORSDOF 5
ENDMDL
MODEL 5
REMARK VINA RESULT:      -7.1      6.284      9.189
REMARK  Name = 
REMARK  8 active torsions:
REMARK  status: ('A' for Active; 'I' for Inactive)
REMARK    1  A    between atoms: C_1  and  O_2
REMARK    2  A    between atoms: O_2  and  C_3
REMARK    3  A    between atoms: C_6  and  N_7
REMARK    4  A    between atoms: N_15  and  C_16
REMARK    5  A    between atoms: C_16  and  C_17
REMARK    6  A    between atoms: C_22  and  C_23
REMARK    7  A    between atoms: C_32  and  O_33
REMARK    8  A    between atoms: O_33  and  C_34
REMARK                            x       y       z     vdW  Elec       q    Type
REMARK                         _______ _______ _______ _____ _____    ______ ____
ROOT
ATOM      1  N   UNL     1       7.656  13.301  22.227  0.00  0.00    +0.000 N 
ATOM      2  C   UNL     1       8.755  12.762  21.546  0.00  0.00    +0.000 A 
ATOM      3  O   UNL     1       9.524  11.925  22.003  0.00  0.00    +0.000 OA
ATOM      4  C   UNL     1       8.941  13.287  20.212  0.00  0.00    +0.000 A 
ATOM      5  C   UNL     1       9.984  12.981  19.277  0.00  0.00    +0.000 A 
ATOM      6  C   UNL     1       9.871  13.754  18.136  0.00  0.00    +0.000 A 
ATOM      7  S   UNL     1       8.473  14.734  18.155  0.00  0.00    +0.000 S 
ATOM      8  C   UNL     1       8.071  14.227  19.723  0.00  0.00    +0.000 A 
ATOM      9  N   UNL     1       6.999  14.762  20.426  0.00  0.00    +0.000 N 
ATOM     10  C   UNL     1       6.804  14.319  21.750  0.00  0.00    +0.000 A 
ATOM     11  O   UNL     1       5.974  14.881  22.476  0.00  0.00    +0.000 OA
ATOM     12  C   UNL     1      10.832  13.734  16.986  0.00  0.00    +0.000 C 
ATOM     13  C   UNL     1      12.138  13.021  17.384  0.00  0.00    +0.000 C 
ATOM     14  C   UNL     1      11.864  11.729  18.165  0.00  0.00    +0.000 C 
ATOM     15  C   UNL     1      11.120  12.016  19.477  0.00  0.00    +0.000 C 
ENDROOT
BRANCH   1  19
ATOM     16  C   UNL     1       6.933  11.930  26.165  0.00  0.00    +0.000 A 
ATOM     17  C   UNL     1       6.303  11.324  25.077  0.00  0.00    +0.000 A 
ATOM     18  C   UNL     1       6.548  11.771  23.778  0.00  0.00    +0.000 A 
ATOM     19  C   UNL     1       7.449  12.822  23.555  0.00  0.00    +0.000 A 
ATOM     20  C   UNL     1       8.089  13.437  24.647  0.00  0.00    +0.000 A 
ATOM     21  C   UNL     1       7.816  12.994  25.951  0.00  0.00    +0.000 A 
BRANCH  16  23
ATOM     22  C   UNL     1       5.436  10.569  27.421  0.00  0.00    +0.000 C 
ATOM     23  O   UNL     1       6.588  11.400  27.379  0.00  0.00    +0.000 OA
ENDBRANCH  16  23
BRANCH  20  24
ATOM     24  O   UNL     1       8.861  14.536  24.366  0.00  0.00    +0.000 OA
ATOM     25  C   UNL     1       8.530  15.725  25.073  0.00  0.00    +0.000 C 
ENDBRANCH  20  24
ENDBRANCH   1  19
BRANCH   9  26
ATOM     26  C   UNL     1       6.106  15.819  19.929  0.00  0.00    +0.000 C 
BRANCH  26  27
ATOM     27  C   UNL     1       4.813  15.320  19.256  0.00  0.00    +0.000 C 
ATOM     28  O   UNL     1       4.735  15.063  18.059  0.00  0.00    +0.000 OA
ATOM     29  N   UNL     1       3.776  15.195  20.169  0.00  0.00    +0.000 N 
ATOM     30  C   UNL     1       2.496  14.820  19.841  0.00  0.00    +0.000 A 
ATOM     31  C   UNL     1       2.028  13.909  18.866  0.00  0.00    +0.000 A 
ATOM     32  C   UNL     1       0.652  13.944  18.966  0.00  0.00    +0.000 A 
ATOM     33  C   UNL     1      -0.431  13.218  18.264  0.00  0.00    +0.000 C 
ATOM     34  N   UNL     1       0.388  14.884  19.921  0.00  0.00    +0.000 N 
ATOM     35  N   UNL     1       1.487  15.340  20.545  0.00  0.00    +0.000 NA
ATOM     36  H   UNL     1       3.809  15.713  21.036  0.00  0.00    +0.000 HD
ATOM     37  H   UNL     1      -0.515  15.245  20.213  0.00  0.00    +0.000 HD
ENDBRANCH  26  27
ENDBRANCH   9  26
TORSDOF 5
ENDMDL
MODEL 6
REMARK VINA RESULT:      -7.0      1.157      1.226
REMARK  Name = 
REMARK  8 active torsions:
REMARK  status: ('A' for Active; 'I' for Inactive)
REMARK    1  A    between atoms: C_1  and  O_2
REMARK    2  A    between atoms: O_2  and  C_3
REMARK    3  A    between atoms: C_6  and  N_7
REMARK    4  A    between atoms: N_15  and  C_16
REMARK    5  A    between atoms: C_16  and  C_17
REMARK    6  A    between atoms: C_22  and  C_23
REMARK    7  A    between atoms: C_32  and  O_33
REMARK    8  A    between atoms: O_33  and  C_34
REMARK                            x       y       z     vdW  Elec       q    Type
REMARK                         _______ _______ _______ _____ _____    ______ ____
ROOT
ATOM      1  N   UNL     1      -0.911  12.498  20.216  0.00  0.00    +0.000 N 
ATOM      2  C   UNL     1      -0.239  13.724  20.140  0.00  0.00    +0.000 A 
ATOM      3  O   UNL     1      -0.639  14.778  20.619  0.00  0.00    +0.000 OA
ATOM      4  C   UNL     1       1.012  13.669  19.416  0.00  0.00    +0.000 A 
ATOM      5  C   UNL     1       1.914  14.744  19.122  0.00  0.00    +0.000 A 
ATOM      6  C   UNL     1       2.961  14.312  18.330  0.00  0.00    +0.000 A 
ATOM      7  S   UNL     1       2.911  12.629  18.054  0.00  0.00    +0.000 S 
ATOM      8  C   UNL     1       1.439  12.480  18.884  0.00  0.00    +0.000 A 
ATOM      9  N   UNL     1       0.743  11.280  18.956  0.00  0.00    +0.000 N 
ATOM     10  C   UNL     1      -0.506  11.291  19.608  0.00  0.00    +0.000 A 
ATOM     11  O   UNL     1      -1.243  10.298  19.556  0.00  0.00    +0.000 OA
ATOM     12  C   UNL     1       4.047  15.191  17.787  0.00  0.00    +0.000 C 
ATOM     13  C   UNL     1       3.658  16.676  17.918  0.00  0.00    +0.000 C 
ATOM     14  C   UNL     1       3.051  16.984  19.292  0.00  0.00    +0.000 C 
ATOM     15  C   UNL     1       1.761  16.185  19.525  0.00  0.00    +0.000 C 
ENDROOT
BRANCH   1  19
ATOM     16  C   UNL     1      -4.612  12.666  22.264  0.00  0.00    +0.000 A 
ATOM     17  C   UNL     1      -4.537  12.988  20.907  0.00  0.00    +0.000 A 
ATOM     18  C   UNL     1      -3.319  12.924  20.231  0.00  0.00    +0.000 A 
ATOM     19  C   UNL     1      -2.160  12.514  20.907  0.00  0.00    +0.000 A 
ATOM     20  C   UNL     1      -2.229  12.186  22.274  0.00  0.00    +0.000 A 
ATOM     21  C   UNL     1      -3.456  12.278  22.949  0.00  0.00    +0.000 A 
BRANCH  16  23
ATOM     22  C   UNL     1      -6.960  12.376  21.991  0.00  0.00    +0.000 C 
ATOM     23  O   UNL     1      -5.865  12.786  22.799  0.00  0.00    +0.000 OA
ENDBRANCH  16  23
BRANCH  20  24
ATOM     24  O   UNL     1      -1.037  11.914  22.898  0.00  0.00    +0.000 OA
ATOM     25  C   UNL     1      -0.780  10.543  23.174  0.00  0.00    +0.000 C 
ENDBRANCH  20  24
ENDBRANCH   1  19
BRANCH   9  26
ATOM     26  C   UNL     1       1.165  10.019  18.327  0.00  0.00    +0.000 C 
BRANCH  26  27
ATOM     27  C   UNL     1       1.434   8.860  19.305  0.00  0.00    +0.000 C 
ATOM     28  O   UNL     1       1.232   8.939  20.513  0.00  0.00    +0.000 OA
ATOM     29  N   UNL     1       1.918   7.738  18.649  0.00  0.00    +0.000 N 
ATOM     30  C   UNL     1       2.294   6.574  19.276  0.00  0.00    +0.000 A 
ATOM     31  C   UNL     1       1.761   5.935  20.418  0.00  0.00    +0.000 A 
ATOM     32  C   UNL     1       2.543   4.813  20.605  0.00  0.00    +0.000 A 
ATOM     33  C   UNL     1       2.507   3.710  21.591  0.00  0.00    +0.000 C 
ATOM     34  N   UNL     1       3.499   4.879  19.631  0.00  0.00    +0.000 N 
ATOM     35  N   UNL     1       3.297   5.869  18.747  0.00  0.00    +0.000 NA
ATOM     36  H   UNL     1       2.356   7.840  17.743  0.00  0.00    +0.000 HD
ATOM     37  H   UNL     1       4.301   4.271  19.499  0.00  0.00    +0.000 HD
ENDBRANCH  26  27
ENDBRANCH   9  26
TORSDOF 5
ENDMDL
MODEL 7
REMARK VINA RESULT:      -7.0      3.912      7.467
REMARK  Name = 
REMARK  8 active torsions:
REMARK  status: ('A' for Active; 'I' for Inactive)
REMARK    1  A    between atoms: C_1  and  O_2
REMARK    2  A    between atoms: O_2  and  C_3
REMARK    3  A    between atoms: C_6  and  N_7
REMARK    4  A    between atoms: N_15  and  C_16
REMARK    5  A    between atoms: C_16  and  C_17
REMARK    6  A    between atoms: C_22  and  C_23
REMARK    7  A    between atoms: C_32  and  O_33
REMARK    8  A    between atoms: O_33  and  C_34
REMARK                            x       y       z     vdW  Elec       q    Type
REMARK                         _______ _______ _______ _____ _____    ______ ____
ROOT
ATOM      1  N   UNL     1       1.572  14.479  20.780  0.00  0.00    +0.000 N 
ATOM      2  C   UNL     1       0.760  15.150  21.703  0.00  0.00    +0.000 A 
ATOM      3  O   UNL     1       0.903  16.316  22.050  0.00  0.00    +0.000 OA
ATOM      4  C   UNL     1      -0.302  14.339  22.256  0.00  0.00    +0.000 A 
ATOM      5  C   UNL     1      -1.272  14.704  23.246  0.00  0.00    +0.000 A 
ATOM      6  C   UNL     1      -2.069  13.626  23.583  0.00  0.00    +0.000 A 
ATOM      7  S   UNL     1      -1.725  12.247  22.637  0.00  0.00    +0.000 S 
ATOM      8  C   UNL     1      -0.440  13.035  21.857  0.00  0.00    +0.000 A 
ATOM      9  N   UNL     1       0.393  12.385  20.955  0.00  0.00    +0.000 N 
ATOM     10  C   UNL     1       1.473  13.118  20.424  0.00  0.00    +0.000 A 
ATOM     11  O   UNL     1       2.340  12.546  19.751  0.00  0.00    +0.000 OA
ATOM     12  C   UNL     1      -3.140  13.643  24.631  0.00  0.00    +0.000 C 
ATOM     13  C   UNL     1      -3.002  14.889  25.526  0.00  0.00    +0.000 C 
ATOM     14  C   UNL     1      -2.730  16.153  24.701  0.00  0.00    +0.000 C 
ATOM     15  C   UNL     1      -1.410  16.040  23.924  0.00  0.00    +0.000 C 
ENDROOT
BRANCH   1  19
ATOM     16  C   UNL     1       4.734  16.820  19.219  0.00  0.00    +0.000 A 
ATOM     17  C   UNL     1       4.896  16.120  20.415  0.00  0.00    +0.000 A 
ATOM     18  C   UNL     1       3.856  15.341  20.925  0.00  0.00    +0.000 A 
ATOM     19  C   UNL     1       2.645  15.241  20.225  0.00  0.00    +0.000 A 
ATOM     20  C   UNL     1       2.476  15.943  19.017  0.00  0.00    +0.000 A 
ATOM     21  C   UNL     1       3.521  16.742  18.527  0.00  0.00    +0.000 A 
BRANCH  16  23
ATOM     22  C   UNL     1       7.082  16.882  18.822  0.00  0.00    +0.000 C 
ATOM     23  O   UNL     1       5.829  17.552  18.847  0.00  0.00    +0.000 OA
ENDBRANCH  16  23
BRANCH  20  24
ATOM     24  O   UNL     1       1.227  15.897  18.452  0.00  0.00    +0.000 OA
ATOM     25  C   UNL     1       0.501  17.120  18.448  0.00  0.00    +0.000 C 
ENDBRANCH  20  24
ENDBRANCH   1  19
BRANCH   9  26
ATOM     26  C   UNL     1       0.288  10.968  20.577  0.00  0.00    +0.000 C 
BRANCH  26  27
ATOM     27  C   UNL     1      -0.206  10.709  19.141  0.00  0.00    +0.000 C 
ATOM     28  O   UNL     1       0.519  10.282  18.248  0.00  0.00    +0.000 OA
ATOM     29  N   UNL     1      -1.553  11.009  19.001  0.00  0.00    +0.000 N 
ATOM     30  C   UNL     1      -2.248  10.923  17.819  0.00  0.00    +0.000 A 
ATOM     31  C   UNL     1      -2.123  10.010  16.746  0.00  0.00    +0.000 A 
ATOM     32  C   UNL     1      -3.062  10.412  15.817  0.00  0.00    +0.000 A 
ATOM     33  C   UNL     1      -3.469   9.879  14.498  0.00  0.00    +0.000 C 
ATOM     34  N   UNL     1      -3.630  11.536  16.347  0.00  0.00    +0.000 N 
ATOM     35  N   UNL     1      -3.237  11.795  17.604  0.00  0.00    +0.000 NA
ATOM     36  H   UNL     1      -1.994  11.641  19.656  0.00  0.00    +0.000 HD
ATOM     37  H   UNL     1      -4.305  12.159  15.916  0.00  0.00    +0.000 HD
ENDBRANCH  26  27
ENDBRANCH   9  26
TORSDOF 5
ENDMDL
MODEL 8
REMARK VINA RESULT:      -6.9      6.560      9.684
REMARK  Name = 
REMARK  8 active torsions:
REMARK  status: ('A' for Active; 'I' for Inactive)
REMARK    1  A    between atoms: C_1  and  O_2
REMARK    2  A    between atoms: O_2  and  C_3
REMARK    3  A    between atoms: C_6  and  N_7
REMARK    4  A    between atoms: N_15  and  C_16
REMARK    5  A    between atoms: C_16  and  C_17
REMARK    6  A    between atoms: C_22  and  C_23
REMARK    7  A    between atoms: C_32  and  O_33
REMARK    8  A    between atoms: O_33  and  C_34
REMARK                            x       y       z     vdW  Elec       q    Type
REMARK                         _______ _______ _______ _____ _____    ______ ____
ROOT
ATOM      1  N   UNL     1       7.583  13.325  22.392  0.00  0.00    +0.000 N 
ATOM      2  C   UNL     1       8.580  12.689  21.642  0.00  0.00    +0.000 A 
ATOM      3  O   UNL     1       9.182  11.678  21.984  0.00  0.00    +0.000 OA
ATOM      4  C   UNL     1       8.878  13.337  20.384  0.00  0.00    +0.000 A 
ATOM      5  C   UNL     1       9.865  12.970  19.411  0.00  0.00    +0.000 A 
ATOM      6  C   UNL     1       9.909  13.888  18.378  0.00  0.00    +0.000 A 
ATOM      7  S   UNL     1       8.707  15.090  18.530  0.00  0.00    +0.000 S 
ATOM      8  C   UNL     1       8.195  14.469  20.024  0.00  0.00    +0.000 A 
ATOM      9  N   UNL     1       7.224  15.093  20.796  0.00  0.00    +0.000 N 
ATOM     10  C   UNL     1       6.932  14.529  22.054  0.00  0.00    +0.000 A 
ATOM     11  O   UNL     1       6.203  15.133  22.850  0.00  0.00    +0.000 OA
ATOM     12  C   UNL     1      10.870  13.843  17.229  0.00  0.00    +0.000 C 
ATOM     13  C   UNL     1      12.023  12.865  17.525  0.00  0.00    +0.000 C 
ATOM     14  C   UNL     1      11.512  11.554  18.137  0.00  0.00    +0.000 C 
ATOM     15  C   UNL     1      10.809  11.801  19.480  0.00  0.00    +0.000 C 
ENDROOT
BRANCH   1  19
ATOM     16  C   UNL     1       6.563  11.616  26.128  0.00  0.00    +0.000 A 
ATOM     17  C   UNL     1       5.883  11.241  24.968  0.00  0.00    +0.000 A 
ATOM     18  C   UNL     1       6.225  11.799  23.736  0.00  0.00    +0.000 A 
ATOM     19  C   UNL     1       7.273  12.726  23.651  0.00  0.00    +0.000 A 
ATOM     20  C   UNL     1       7.965  13.107  24.816  0.00  0.00    +0.000 A 
ATOM     21  C   UNL     1       7.595  12.557  26.053  0.00  0.00    +0.000 A 
BRANCH  16  23
ATOM     22  C   UNL     1       4.850  10.353  27.196  0.00  0.00    +0.000 C 
ATOM     23  O   UNL     1       6.113  11.001  27.265  0.00  0.00    +0.000 OA
ENDBRANCH  16  23
BRANCH  20  24
ATOM     24  O   UNL     1       8.893  14.108  24.677  0.00  0.00    +0.000 OA
ATOM     25  C   UNL     1       8.710  15.245  25.512  0.00  0.00    +0.000 C 
ENDBRANCH  20  24
ENDBRANCH   1  19
BRANCH   9  26
ATOM     26  C   UNL     1       6.540  16.346  20.443  0.00  0.00    +0.000 C 
BRANCH  26  27
ATOM     27  C   UNL     1       5.167  16.173  19.766  0.00  0.00    +0.000 C 
ATOM     28  O   UNL     1       4.944  15.327  18.905  0.00  0.00    +0.000 OA
ATOM     29  N   UNL     1       4.236  17.077  20.256  0.00  0.00    +0.000 N 
ATOM     30  C   UNL     1       2.945  17.186  19.799  0.00  0.00    +0.000 A 
ATOM     31  C   UNL     1       2.051  16.195  19.334  0.00  0.00    +0.000 A 
ATOM     32  C   UNL     1       0.902  16.877  18.986  0.00  0.00    +0.000 A 
ATOM     33  C   UNL     1      -0.413  16.441  18.463  0.00  0.00    +0.000 C 
ATOM     34  N   UNL     1       1.191  18.195  19.201  0.00  0.00    +0.000 N 
ATOM     35  N   UNL     1       2.375  18.394  19.802  0.00  0.00    +0.000 NA
ATOM     36  H   UNL     1       4.553  17.926  20.704  0.00  0.00    +0.000 HD
ATOM     37  H   UNL     1       0.620  19.005  18.983  0.00  0.00    +0.000 HD
ENDBRANCH  26  27
ENDBRANCH   9  26
TORSDOF 5
ENDMDL
MODEL 9
REMARK VINA RESULT:      -6.9      3.910      7.348
REMARK  Name = 
REMARK  8 active torsions:
REMARK  status: ('A' for Active; 'I' for Inactive)
REMARK    1  A    between atoms: C_1  and  O_2
REMARK    2  A    between atoms: O_2  and  C_3
REMARK    3  A    between atoms: C_6  and  N_7
REMARK    4  A    between atoms: N_15  and  C_16
REMARK    5  A    between atoms: C_16  and  C_17
REMARK    6  A    between atoms: C_22  and  C_23
REMARK    7  A    between atoms: C_32  and  O_33
REMARK    8  A    between atoms: O_33  and  C_34
REMARK                            x       y       z     vdW  Elec       q    Type
REMARK                         _______ _______ _______ _____ _____    ______ ____
ROOT
ATOM      1  N   UNL     1       1.699  14.042  20.833  0.00  0.00    +0.000 N 
ATOM      2  C   UNL     1       0.954  14.799  21.746  0.00  0.00    +0.000 A 
ATOM      3  O   UNL     1       1.236  15.932  22.116  0.00  0.00    +0.000 OA
ATOM      4  C   UNL     1      -0.218  14.124  22.258  0.00  0.00    +0.000 A 
ATOM      5  C   UNL     1      -1.160  14.599  23.229  0.00  0.00    +0.000 A 
ATOM      6  C   UNL     1      -2.098  13.628  23.527  0.00  0.00    +0.000 A 
ATOM      7  S   UNL     1      -1.908  12.229  22.567  0.00  0.00    +0.000 S 
ATOM      8  C   UNL     1      -0.511  12.855  21.833  0.00  0.00    +0.000 A 
ATOM      9  N   UNL     1       0.256  12.115  20.942  0.00  0.00    +0.000 N 
ATOM     10  C   UNL     1       1.435  12.710  20.452  0.00  0.00    +0.000 A 
ATOM     11  O   UNL     1       2.240  12.039  19.792  0.00  0.00    +0.000 OA
ATOM     12  C   UNL     1      -3.186  13.769  24.547  0.00  0.00    +0.000 C 
ATOM     13  C   UNL     1      -2.914  14.975  25.466  0.00  0.00    +0.000 C 
ATOM     14  C   UNL     1      -2.459  16.204  24.669  0.00  0.00    +0.000 C 
ATOM     15  C   UNL     1      -1.143  15.932  23.925  0.00  0.00    +0.000 C 
ENDROOT
BRANCH   1  19
ATOM     16  C   UNL     1       5.194  15.806  19.224  0.00  0.00    +0.000 A 
ATOM     17  C   UNL     1       3.975  15.906  18.550  0.00  0.00    +0.000 A 
ATOM     18  C   UNL     1       2.822  15.331  19.085  0.00  0.00    +0.000 A 
ATOM     19  C   UNL     1       2.875  14.666  20.319  0.00  0.00    +0.000 A 
ATOM     20  C   UNL     1       4.100  14.564  21.005  0.00  0.00    +0.000 A 
ATOM     21  C   UNL     1       5.258  15.125  20.444  0.00  0.00    +0.000 A 
BRANCH  16  23
ATOM     22  C   UNL     1       7.295  15.560  18.131  0.00  0.00    +0.000 C 
ATOM     23  O   UNL     1       6.242  16.403  18.577  0.00  0.00    +0.000 OA
ENDBRANCH  16  23
BRANCH  20  24
ATOM     24  O   UNL     1       4.103  13.795  22.141  0.00  0.00    +0.000 OA
ATOM     25  C   UNL     1       5.368  13.611  22.764  0.00  0.00    +0.000 C 
ENDBRANCH  20  24
ENDBRANCH   1  19
BRANCH   9  26
ATOM     26  C   UNL     1      -0.020  10.728  20.539  0.00  0.00    +0.000 C 
BRANCH  26  27
ATOM     27  C   UNL     1      -0.457  10.549  19.073  0.00  0.00    +0.000 C 
ATOM     28  O   UNL     1       0.301  10.166  18.187  0.00  0.00    +0.000 OA
ATOM     29  N   UNL     1      -1.797  10.864  18.896  0.00  0.00    +0.000 N 
ATOM     30  C   UNL     1      -2.444  10.845  17.684  0.00  0.00    +0.000 A 
ATOM     31  C   UNL     1      -2.280   9.990  16.570  0.00  0.00    +0.000 A 
ATOM     32  C   UNL     1      -3.180  10.446  15.627  0.00  0.00    +0.000 A 
ATOM     33  C   UNL     1      -3.536   9.986  14.266  0.00  0.00    +0.000 C 
ATOM     34  N   UNL     1      -3.764  11.544  16.193  0.00  0.00    +0.000 N 
ATOM     35  N   UNL     1      -3.421  11.733  17.477  0.00  0.00    +0.000 NA
ATOM     36  H   UNL     1      -2.261  11.462  19.565  0.00  0.00    +0.000 HD
ATOM     37  H   UNL     1      -4.419  12.193  15.769  0.00  0.00    +0.000 HD
ENDBRANCH  26  27
ENDBRANCH   9  26
TORSDOF 5
ENDMDL
