MODEL 1
REMARK VINA RESULT:      -8.0      0.000      0.000
REMARK  Name = 
REMARK  7 active torsions:
REMARK  status: ('A' for Active; 'I' for Inactive)
REMARK    1  A    between atoms: C_1  and  C_2
REMARK    2  A    between atoms: C_6  and  C_7
REMARK    3  A    between atoms: C_7  and  N_8
REMARK    4  A    between atoms: C_9  and  C_10
REMARK    5  A    between atoms: C_10  and  C_11
REMARK    6  A    between atoms: C_10  and  C_12
REMARK    7  A    between atoms: C_10  and  C_13
REMARK                            x       y       z     vdW  Elec       q    Type
REMARK                         _______ _______ _______ _____ _____    ______ ____
ROOT
ATOM      1  N   UNL     1       2.584   4.972  18.660  0.00  0.00    +0.000 N 
ATOM      2  C   UNL     1       2.293   4.338  19.871  0.00  0.00    +0.000 A 
ATOM      3  C   UNL     1       1.857   5.353  20.724  0.00  0.00    +0.000 A 
ATOM      4  C   UNL     1       1.897   6.592  20.053  0.00  0.00    +0.000 A 
ATOM      5  C   UNL     1       1.650   7.923  20.407  0.00  0.00    +0.000 A 
ATOM      6  C   UNL     1       1.839   8.902  19.433  0.00  0.00    +0.000 A 
ATOM      7  C   UNL     1       2.241   8.508  18.166  0.00  0.00    +0.000 A 
ATOM      8  N   UNL     1       2.483   7.236  17.773  0.00  0.00    +0.000 NA
ATOM      9  C   UNL     1       2.310   6.328  18.758  0.00  0.00    +0.000 A 
ENDROOT
BRANCH   2  10
ATOM     10  C   UNL     1       2.473   2.852  20.222  0.00  0.00    +0.000 C 
ATOM     11  C   UNL     1       3.960   2.471  20.321  0.00  0.00    +0.000 C 
ATOM     12  C   UNL     1       1.851   2.562  21.616  0.00  0.00    +0.000 C 
ATOM     13  C   UNL     1       1.753   1.922  19.230  0.00  0.00    +0.000 C 
ENDBRANCH   2  10
BRANCH   1  14
ATOM     14  C   UNL     1       3.145   4.416  17.428  0.00  0.00    +0.000 C 
BRANCH  14  20
ATOM     15  C   UNL     1       7.687   5.743  19.252  0.00  0.00    +0.000 C 
ATOM     16  C   UNL     1       6.866   5.141  18.152  0.00  0.00    +0.000 A 
ATOM     17  C   UNL     1       7.444   4.719  16.953  0.00  0.00    +0.000 A 
ATOM     18  C   UNL     1       6.644   4.196  15.938  0.00  0.00    +0.000 A 
ATOM     19  C   UNL     1       5.261   4.096  16.110  0.00  0.00    +0.000 A 
ATOM     20  C   UNL     1       4.655   4.512  17.308  0.00  0.00    +0.000 A 
ATOM     21  C   UNL     1       5.480   5.021  18.322  0.00  0.00    +0.000 A 
ENDBRANCH  14  20
ENDBRANCH   1  14
TORSDOF 3
ENDMDL
MODEL 2
REMARK VINA RESULT:      -7.6      0.452      1.516
REMARK  Name = 
REMARK  7 active torsions:
REMARK  status: ('A' for Active; 'I' for Inactive)
REMARK    1  A    between atoms: C_1  and  C_2
REMARK    2  A    between atoms: C_6  and  C_7
REMARK    3  A    between atoms: C_7  and  N_8
REMARK    4  A    between atoms: C_9  and  C_10
REMARK    5  A    between atoms: C_10  and  C_11
REMARK    6  A    between atoms: C_10  and  C_12
REMARK    7  A    between atoms: C_10  and  C_13
REMARK                            x       y       z     vdW  Elec       q    Type
REMARK                         _______ _______ _______ _____ _____    ______ ____
ROOT
ATOM      1  N   UNL     1       2.513   4.921  18.660  0.00  0.00    +0.000 N 
ATOM      2  C   UNL     1       2.226   4.330  19.893  0.00  0.00    +0.000 A 
ATOM      3  C   UNL     1       1.835   5.380  20.724  0.00  0.00    +0.000 A 
ATOM      4  C   UNL     1       1.900   6.599  20.018  0.00  0.00    +0.000 A 
ATOM      5  C   UNL     1       1.699   7.946  20.340  0.00  0.00    +0.000 A 
ATOM      6  C   UNL     1       1.899   8.891  19.335  0.00  0.00    +0.000 A 
ATOM      7  C   UNL     1       2.265   8.450  18.073  0.00  0.00    +0.000 A 
ATOM      8  N   UNL     1       2.463   7.162  17.712  0.00  0.00    +0.000 NA
ATOM      9  C   UNL     1       2.281   6.287  18.724  0.00  0.00    +0.000 A 
ENDROOT
BRANCH   2  10
ATOM     10  C   UNL     1       2.369   2.849  20.282  0.00  0.00    +0.000 C 
ATOM     11  C   UNL     1       3.845   2.442  20.425  0.00  0.00    +0.000 C 
ATOM     12  C   UNL     1       1.708   2.604  21.668  0.00  0.00    +0.000 C 
ATOM     13  C   UNL     1       1.654   1.910  19.295  0.00  0.00    +0.000 C 
ENDBRANCH   2  10
BRANCH   1  14
ATOM     14  C   UNL     1       3.035   4.315  17.434  0.00  0.00    +0.000 C 
BRANCH  14  20
ATOM     15  C   UNL     1       7.033   4.762  14.347  0.00  0.00    +0.000 C 
ATOM     16  C   UNL     1       6.475   4.742  15.738  0.00  0.00    +0.000 A 
ATOM     17  C   UNL     1       7.301   4.836  16.860  0.00  0.00    +0.000 A 
ATOM     18  C   UNL     1       6.749   4.778  18.140  0.00  0.00    +0.000 A 
ATOM     19  C   UNL     1       5.372   4.620  18.307  0.00  0.00    +0.000 A 
ATOM     20  C   UNL     1       4.519   4.524  17.195  0.00  0.00    +0.000 A 
ATOM     21  C   UNL     1       5.092   4.600  15.916  0.00  0.00    +0.000 A 
ENDBRANCH  14  20
ENDBRANCH   1  14
TORSDOF 3
ENDMDL
MODEL 3
REMARK VINA RESULT:      -7.4      1.479      5.588
REMARK  Name = 
REMARK  7 active torsions:
REMARK  status: ('A' for Active; 'I' for Inactive)
REMARK    1  A    between atoms: C_1  and  C_2
REMARK    2  A    between atoms: C_6  and  C_7
REMARK    3  A    between atoms: C_7  and  N_8
REMARK    4  A    between atoms: C_9  and  C_10
REMARK    5  A    between atoms: C_10  and  C_11
REMARK    6  A    between atoms: C_10  and  C_12
REMARK    7  A    between atoms: C_10  and  C_13
REMARK                            x       y       z     vdW  Elec       q    Type
REMARK                         _______ _______ _______ _____ _____    ______ ____
ROOT
ATOM      1  N   UNL     1       3.413   5.217  18.511  0.00  0.00    +0.000 N 
ATOM      2  C   UNL     1       4.078   4.731  17.382  0.00  0.00    +0.000 A 
ATOM      3  C   UNL     1       3.449   3.524  17.074  0.00  0.00    +0.000 A 
ATOM      4  C   UNL     1       2.427   3.264  18.010  0.00  0.00    +0.000 A 
ATOM      5  C   UNL     1       1.536   2.211  18.242  0.00  0.00    +0.000 A 
ATOM      6  C   UNL     1       0.668   2.319  19.328  0.00  0.00    +0.000 A 
ATOM      7  C   UNL     1       0.720   3.466  20.106  0.00  0.00    +0.000 A 
ATOM      8  N   UNL     1       1.556   4.512  19.917  0.00  0.00    +0.000 NA
ATOM      9  C   UNL     1       2.392   4.350  18.869  0.00  0.00    +0.000 A 
ENDROOT
BRANCH   2  10
ATOM     10  C   UNL     1       5.287   5.351  16.663  0.00  0.00    +0.000 C 
ATOM     11  C   UNL     1       6.469   5.562  17.625  0.00  0.00    +0.000 C 
ATOM     12  C   UNL     1       5.789   4.386  15.552  0.00  0.00    +0.000 C 
ATOM     13  C   UNL     1       4.937   6.672  15.957  0.00  0.00    +0.000 C 
ENDBRANCH   2  10
BRANCH   1  14
ATOM     14  C   UNL     1       3.688   6.409  19.314  0.00  0.00    +0.000 C 
BRANCH  14  20
ATOM     15  C   UNL     1       0.024   9.371  21.190  0.00  0.00    +0.000 C 
ATOM     16  C   UNL     1       0.900   8.977  20.039  0.00  0.00    +0.000 A 
ATOM     17  C   UNL     1       0.764   9.566  18.781  0.00  0.00    +0.000 A 
ATOM     18  C   UNL     1       1.573   9.150  17.724  0.00  0.00    +0.000 A 
ATOM     19  C   UNL     1       2.517   8.138  17.915  0.00  0.00    +0.000 A 
ATOM     20  C   UNL     1       2.673   7.530  19.171  0.00  0.00    +0.000 A 
ATOM     21  C   UNL     1       1.861   7.974  20.225  0.00  0.00    +0.000 A 
ENDBRANCH  14  20
ENDBRANCH   1  14
TORSDOF 3
ENDMDL
MODEL 4
REMARK VINA RESULT:      -7.4      0.694      1.193
REMARK  Name = 
REMARK  7 active torsions:
REMARK  status: ('A' for Active; 'I' for Inactive)
REMARK    1  A    between atoms: C_1  and  C_2
REMARK    2  A    between atoms: C_6  and  C_7
REMARK    3  A    between atoms: C_7  and  N_8
REMARK    4  A    between atoms: C_9  and  C_10
REMARK    5  A    between atoms: C_10  and  C_11
REMARK    6  A    between atoms: C_10  and  C_12
REMARK    7  A    between atoms: C_10  and  C_13
REMARK                            x       y       z     vdW  Elec       q    Type
REMARK                         _______ _______ _______ _____ _____    ______ ____
ROOT
ATOM      1  N   UNL     1       2.517   5.254  18.625  0.00  0.00    +0.000 N 
ATOM      2  C   UNL     1       2.440   4.532  19.819  0.00  0.00    +0.000 A 
ATOM      3  C   UNL     1       2.041   5.456  20.786  0.00  0.00    +0.000 A 
ATOM      4  C   UNL     1       1.894   6.730  20.198  0.00  0.00    +0.000 A 
ATOM      5  C   UNL     1       1.592   8.012  20.668  0.00  0.00    +0.000 A 
ATOM      6  C   UNL     1       1.572   9.056  19.745  0.00  0.00    +0.000 A 
ATOM      7  C   UNL     1       1.832   8.768  18.413  0.00  0.00    +0.000 A 
ATOM      8  N   UNL     1       2.121   7.546  17.910  0.00  0.00    +0.000 NA
ATOM      9  C   UNL     1       2.151   6.574  18.847  0.00  0.00    +0.000 A 
ENDROOT
BRANCH   2  10
ATOM     10  C   UNL     1       2.782   3.050  20.046  0.00  0.00    +0.000 C 
ATOM     11  C   UNL     1       2.041   2.140  19.051  0.00  0.00    +0.000 C 
ATOM     12  C   UNL     1       4.301   2.820  19.806  0.00  0.00    +0.000 C 
ATOM     13  C   UNL     1       2.503   2.596  21.489  0.00  0.00    +0.000 C 
ENDBRANCH   2  10
BRANCH   1  14
ATOM     14  C   UNL     1       2.952   4.818  17.299  0.00  0.00    +0.000 C 
BRANCH  14  20
ATOM     15  C   UNL     1       7.452   7.094  17.845  0.00  0.00    +0.000 C 
ATOM     16  C   UNL     1       6.638   5.961  17.294  0.00  0.00    +0.000 A 
ATOM     17  C   UNL     1       7.207   4.980  16.479  0.00  0.00    +0.000 A 
ATOM     18  C   UNL     1       6.412   3.961  15.956  0.00  0.00    +0.000 A 
ATOM     19  C   UNL     1       5.045   3.917  16.238  0.00  0.00    +0.000 A 
ATOM     20  C   UNL     1       4.449   4.892  17.056  0.00  0.00    +0.000 A 
ATOM     21  C   UNL     1       5.269   5.900  17.585  0.00  0.00    +0.000 A 
ENDBRANCH  14  20
ENDBRANCH   1  14
TORSDOF 3
ENDMDL
MODEL 5
REMARK VINA RESULT:      -7.3      1.466      4.899
REMARK  Name = 
REMARK  7 active torsions:
REMARK  status: ('A' for Active; 'I' for Inactive)
REMARK    1  A    between atoms: C_1  and  C_2
REMARK    2  A    between atoms: C_6  and  C_7
REMARK    3  A    between atoms: C_7  and  N_8
REMARK    4  A    between atoms: C_9  and  C_10
REMARK    5  A    between atoms: C_10  and  C_11
REMARK    6  A    between atoms: C_10  and  C_12
REMARK    7  A    between atoms: C_10  and  C_13
REMARK                            x       y       z     vdW  Elec       q    Type
REMARK                         _______ _______ _______ _____ _____    ______ ____
ROOT
ATOM      1  N   UNL     1       3.596   5.605  18.440  0.00  0.00    +0.000 N 
ATOM      2  C   UNL     1       3.593   4.484  19.274  0.00  0.00    +0.000 A 
ATOM      3  C   UNL     1       4.938   4.199  19.515  0.00  0.00    +0.000 A 
ATOM      4  C   UNL     1       5.754   5.119  18.826  0.00  0.00    +0.000 A 
ATOM      5  C   UNL     1       7.131   5.283  18.642  0.00  0.00    +0.000 A 
ATOM      6  C   UNL     1       7.559   6.336  17.834  0.00  0.00    +0.000 A 
ATOM      7  C   UNL     1       6.605   7.172  17.274  0.00  0.00    +0.000 A 
ATOM      8  N   UNL     1       5.266   7.059  17.429  0.00  0.00    +0.000 NA
ATOM      9  C   UNL     1       4.901   6.012  18.199  0.00  0.00    +0.000 A 
ENDROOT
BRANCH   2  10
ATOM     10  C   UNL     1       2.377   3.686  19.772  0.00  0.00    +0.000 C 
ATOM     11  C   UNL     1       1.630   3.009  18.609  0.00  0.00    +0.000 C 
ATOM     12  C   UNL     1       2.849   2.544  20.716  0.00  0.00    +0.000 C 
ATOM     13  C   UNL     1       1.405   4.548  20.595  0.00  0.00    +0.000 C 
ENDBRANCH   2  10
BRANCH   1  14
ATOM     14  C   UNL     1       2.475   6.302  17.810  0.00  0.00    +0.000 C 
BRANCH  14  20
ATOM     15  C   UNL     1       1.163   8.891  21.968  0.00  0.00    +0.000 C 
ATOM     16  C   UNL     1       1.396   8.862  20.487  0.00  0.00    +0.000 A 
ATOM     17  C   UNL     1       1.147   9.978  19.685  0.00  0.00    +0.000 A 
ATOM     18  C   UNL     1       1.341   9.904  18.307  0.00  0.00    +0.000 A 
ATOM     19  C   UNL     1       1.779   8.715  17.719  0.00  0.00    +0.000 A 
ATOM     20  C   UNL     1       2.037   7.579  18.504  0.00  0.00    +0.000 A 
ATOM     21  C   UNL     1       1.850   7.679  19.891  0.00  0.00    +0.000 A 
ENDBRANCH  14  20
ENDBRANCH   1  14
TORSDOF 3
ENDMDL
MODEL 6
REMARK VINA RESULT:      -7.1      1.481      4.956
REMARK  Name = 
REMARK  7 active torsions:
REMARK  status: ('A' for Active; 'I' for Inactive)
REMARK    1  A    between atoms: C_1  and  C_2
REMARK    2  A    between atoms: C_6  and  C_7
REMARK    3  A    between atoms: C_7  and  N_8
REMARK    4  A    between atoms: C_9  and  C_10
REMARK    5  A    between atoms: C_10  and  C_11
REMARK    6  A    between atoms: C_10  and  C_12
REMARK    7  A    between atoms: C_10  and  C_13
REMARK                            x       y       z     vdW  Elec       q    Type
REMARK                         _______ _______ _______ _____ _____    ______ ____
ROOT
ATOM      1  N   UNL     1       3.553   4.962  18.799  0.00  0.00    +0.000 N 
ATOM      2  C   UNL     1       2.807   3.796  18.606  0.00  0.00    +0.000 A 
ATOM      3  C   UNL     1       3.279   3.248  17.413  0.00  0.00    +0.000 A 
ATOM      4  C   UNL     1       4.286   4.074  16.872  0.00  0.00    +0.000 A 
ATOM      5  C   UNL     1       5.050   4.072  15.700  0.00  0.00    +0.000 A 
ATOM      6  C   UNL     1       5.951   5.118  15.509  0.00  0.00    +0.000 A 
ATOM      7  C   UNL     1       6.056   6.091  16.492  0.00  0.00    +0.000 A 
ATOM      8  N   UNL     1       5.347   6.132  17.643  0.00  0.00    +0.000 NA
ATOM      9  C   UNL     1       4.472   5.111  17.771  0.00  0.00    +0.000 A 
ENDROOT
BRANCH   2  10
ATOM     10  C   UNL     1       1.663   3.256  19.480  0.00  0.00    +0.000 C 
ATOM     11  C   UNL     1       0.804   2.233  18.718  0.00  0.00    +0.000 C 
ATOM     12  C   UNL     1       2.250   2.509  20.711  0.00  0.00    +0.000 C 
ATOM     13  C   UNL     1       0.775   4.379  20.044  0.00  0.00    +0.000 C 
ENDBRANCH   2  10
BRANCH   1  14
ATOM     14  C   UNL     1       3.442   5.977  19.847  0.00  0.00    +0.000 C 
BRANCH  14  20
ATOM     15  C   UNL     1       0.115   9.612  21.047  0.00  0.00    +0.000 C 
ATOM     16  C   UNL     1       0.991   8.953  20.024  0.00  0.00    +0.000 A 
ATOM     17  C   UNL     1       1.006   9.373  18.693  0.00  0.00    +0.000 A 
ATOM     18  C   UNL     1       1.808   8.714  17.761  0.00  0.00    +0.000 A 
ATOM     19  C   UNL     1       2.594   7.628  18.151  0.00  0.00    +0.000 A 
ATOM     20  C   UNL     1       2.598   7.186  19.485  0.00  0.00    +0.000 A 
ATOM     21  C   UNL     1       1.796   7.872  20.409  0.00  0.00    +0.000 A 
ENDBRANCH  14  20
ENDBRANCH   1  14
TORSDOF 3
ENDMDL
MODEL 7
REMARK VINA RESULT:      -6.9      1.482      5.074
REMARK  Name = 
REMARK  7 active torsions:
REMARK  status: ('A' for Active; 'I' for Inactive)
REMARK    1  A    between atoms: C_1  and  C_2
REMARK    2  A    between atoms: C_6  and  C_7
REMARK    3  A    between atoms: C_7  and  N_8
REMARK    4  A    between atoms: C_9  and  C_10
REMARK    5  A    between atoms: C_10  and  C_11
REMARK    6  A    between atoms: C_10  and  C_12
REMARK    7  A    between atoms: C_10  and  C_13
REMARK                            x       y       z     vdW  Elec       q    Type
REMARK                         _______ _______ _______ _____ _____    ______ ____
ROOT
ATOM      1  N   UNL     1       3.770   5.528  18.217  0.00  0.00    +0.000 N 
ATOM      2  C   UNL     1       3.762   4.282  18.850  0.00  0.00    +0.000 A 
ATOM      3  C   UNL     1       5.104   3.973  19.076  0.00  0.00    +0.000 A 
ATOM      4  C   UNL     1       5.924   5.004  18.573  0.00  0.00    +0.000 A 
ATOM      5  C   UNL     1       7.303   5.210  18.456  0.00  0.00    +0.000 A 
ATOM      6  C   UNL     1       7.736   6.388  17.849  0.00  0.00    +0.000 A 
ATOM      7  C   UNL     1       6.785   7.297  17.413  0.00  0.00    +0.000 A 
ATOM      8  N   UNL     1       5.444   7.148  17.510  0.00  0.00    +0.000 NA
ATOM      9  C   UNL     1       5.075   5.982  18.083  0.00  0.00    +0.000 A 
ENDROOT
BRANCH   2  10
ATOM     10  C   UNL     1       2.545   3.400  19.174  0.00  0.00    +0.000 C 
ATOM     11  C   UNL     1       1.369   3.689  18.225  0.00  0.00    +0.000 C 
ATOM     12  C   UNL     1       2.914   1.903  18.975  0.00  0.00    +0.000 C 
ATOM     13  C   UNL     1       2.092   3.538  20.637  0.00  0.00    +0.000 C 
ENDBRANCH   2  10
BRANCH   1  14
ATOM     14  C   UNL     1       2.656   6.310  17.683  0.00  0.00    +0.000 C 
BRANCH  14  20
ATOM     15  C   UNL     1       0.963  10.996  18.635  0.00  0.00    +0.000 C 
ATOM     16  C   UNL     1       1.277   9.614  19.126  0.00  0.00    +0.000 A 
ATOM     17  C   UNL     1       1.143   9.267  20.471  0.00  0.00    +0.000 A 
ATOM     18  C   UNL     1       1.478   7.982  20.898  0.00  0.00    +0.000 A 
ATOM     19  C   UNL     1       1.954   7.038  19.985  0.00  0.00    +0.000 A 
ATOM     20  C   UNL     1       2.098   7.362  18.625  0.00  0.00    +0.000 A 
ATOM     21  C   UNL     1       1.741   8.655  18.214  0.00  0.00    +0.000 A 
ENDBRANCH  14  20
ENDBRANCH   1  14
TORSDOF 3
ENDMDL
