MODEL 1
REMARK VINA RESULT:      -7.8      0.000      0.000
REMARK  Name = 
REMARK  7 active torsions:
REMARK  status: ('A' for Active; 'I' for Inactive)
REMARK    1  A    between atoms: C_1  and  C_2
REMARK    2  A    between atoms: C_4  and  C_5
REMARK    3  A    between atoms: N_8  and  C_9
REMARK    4  A    between atoms: C_12  and  C_13
REMARK    5  A    between atoms: N_15  and  C_16
REMARK    6  A    between atoms: N_15  and  C_21
REMARK    7  A    between atoms: C_16  and  C_17
REMARK                            x       y       z     vdW  Elec       q    Type
REMARK                         _______ _______ _______ _____ _____    ______ ____
ROOT
ATOM      1  C   UNL     1       7.774   5.678  18.895  0.00  0.00    +0.000 C 
ATOM      2  C   UNL     1       6.860   5.009  17.932  0.00  0.00    +0.000 A 
ATOM      3  O   UNL     1       7.379   4.949  16.682  0.00  0.00    +0.000 OA
ATOM      4  C   UNL     1       6.379   4.456  15.903  0.00  0.00    +0.000 A 
ATOM      5  N   UNL     1       5.275   4.197  16.578  0.00  0.00    +0.000 NA
ATOM      6  C   UNL     1       5.598   4.413  17.911  0.00  0.00    +0.000 A 
ENDROOT
BRANCH   4   7
ATOM      7  C   UNL     1       6.567   4.253  14.460  0.00  0.00    +0.000 A 
ATOM      8  C   UNL     1       7.405   4.920  13.559  0.00  0.00    +0.000 A 
ATOM      9  N   UNL     1       7.283   4.449  12.311  0.00  0.00    +0.000 NA
ATOM     10  N   UNL     1       6.350   3.479  12.428  0.00  0.00    +0.000 N 
ATOM     11  C   UNL     1       5.916   2.742  11.266  0.00  0.00    +0.000 C 
ATOM     12  C   UNL     1       5.897   3.315  13.700  0.00  0.00    +0.000 A 
ENDBRANCH   4   7
BRANCH   6  13
ATOM     13  C   UNL     1       4.713   4.146  19.056  0.00  0.00    +0.000 C 
ATOM     14  O   UNL     1       5.036   3.263  19.856  0.00  0.00    +0.000 OA
ATOM     15  N   UNL     1       3.492   4.853  19.260  0.00  0.00    +0.000 N 
BRANCH  15  16
ATOM     16  C   UNL     1       2.856   5.970  18.493  0.00  0.00    +0.000 C 
ATOM     17  C   UNL     1       2.165   7.208  19.096  0.00  0.00    +0.000 C 
ATOM     18  C   UNL     1       2.742   8.009  17.907  0.00  0.00    +0.000 C 
ATOM     19  C   UNL     1       3.907   7.005  17.947  0.00  0.00    +0.000 C 
ENDBRANCH  15  16
BRANCH  15  20
ATOM     20  C   UNL     1       2.800   4.610  20.569  0.00  0.00    +0.000 C 
BRANCH  20  21
ATOM     21  C   UNL     1       1.556   3.711  20.503  0.00  0.00    +0.000 C 
ATOM     22  F   UNL     1       1.420   2.920  21.588  0.00  0.00    +0.000 F 
ATOM     23  F   UNL     1       0.431   4.467  20.415  0.00  0.00    +0.000 F 
ATOM     24  F   UNL     1       1.581   2.912  19.412  0.00  0.00    +0.000 F 
ENDBRANCH  20  21
ENDBRANCH  15  20
ENDBRANCH   6  13
TORSDOF 5
ENDMDL
MODEL 2
REMARK VINA RESULT:      -7.7      3.507      7.286
REMARK  Name = 
REMARK  7 active torsions:
REMARK  status: ('A' for Active; 'I' for Inactive)
REMARK    1  A    between atoms: C_1  and  C_2
REMARK    2  A    between atoms: C_4  and  C_5
REMARK    3  A    between atoms: N_8  and  C_9
REMARK    4  A    between atoms: C_12  and  C_13
REMARK    5  A    between atoms: N_15  and  C_16
REMARK    6  A    between atoms: N_15  and  C_21
REMARK    7  A    between atoms: C_16  and  C_17
REMARK                            x       y       z     vdW  Elec       q    Type
REMARK                         _______ _______ _______ _____ _____    ______ ____
ROOT
ATOM      1  C   UNL     1       2.694   3.234  20.638  0.00  0.00    +0.000 C 
ATOM      2  C   UNL     1       2.681   4.530  19.912  0.00  0.00    +0.000 A 
ATOM      3  O   UNL     1       2.198   5.544  20.670  0.00  0.00    +0.000 OA
ATOM      4  C   UNL     1       2.111   6.610  19.830  0.00  0.00    +0.000 A 
ATOM      5  N   UNL     1       2.511   6.337  18.602  0.00  0.00    +0.000 NA
ATOM      6  C   UNL     1       3.014   5.044  18.657  0.00  0.00    +0.000 A 
ENDROOT
BRANCH   4   7
ATOM      7  C   UNL     1       1.614   7.910  20.298  0.00  0.00    +0.000 A 
ATOM      8  C   UNL     1       1.247   8.324  21.585  0.00  0.00    +0.000 A 
ATOM      9  N   UNL     1       0.828   9.595  21.607  0.00  0.00    +0.000 NA
ATOM     10  N   UNL     1       0.924   9.984  20.317  0.00  0.00    +0.000 N 
ATOM     11  C   UNL     1       0.524  11.314  19.925  0.00  0.00    +0.000 C 
ATOM     12  C   UNL     1       1.401   9.012  19.493  0.00  0.00    +0.000 A 
ENDBRANCH   4   7
BRANCH   6  13
ATOM     13  C   UNL     1       3.678   4.340  17.547  0.00  0.00    +0.000 C 
ATOM     14  O   UNL     1       2.974   3.764  16.713  0.00  0.00    +0.000 OA
ATOM     15  N   UNL     1       5.096   4.282  17.418  0.00  0.00    +0.000 N 
BRANCH  15  16
ATOM     16  C   UNL     1       6.190   4.889  18.241  0.00  0.00    +0.000 C 
ATOM     17  C   UNL     1       7.700   4.801  17.950  0.00  0.00    +0.000 C 
ATOM     18  C   UNL     1       7.807   6.243  18.495  0.00  0.00    +0.000 C 
ATOM     19  C   UNL     1       6.375   6.425  17.962  0.00  0.00    +0.000 C 
ENDBRANCH  15  16
BRANCH  15  20
ATOM     20  C   UNL     1       5.617   3.701  16.137  0.00  0.00    +0.000 C 
BRANCH  20  21
ATOM     21  C   UNL     1       5.702   4.678  14.954  0.00  0.00    +0.000 C 
ATOM     22  F   UNL     1       6.972   4.997  14.626  0.00  0.00    +0.000 F 
ATOM     23  F   UNL     1       5.128   4.135  13.850  0.00  0.00    +0.000 F 
ATOM     24  F   UNL     1       5.044   5.830  15.216  0.00  0.00    +0.000 F 
ENDBRANCH  20  21
ENDBRANCH  15  20
ENDBRANCH   6  13
TORSDOF 5
ENDMDL
MODEL 3
REMARK VINA RESULT:      -7.6      0.560      1.095
REMARK  Name = 
REMARK  7 active torsions:
REMARK  status: ('A' for Active; 'I' for Inactive)
REMARK    1  A    between atoms: C_1  and  C_2
REMARK    2  A    between atoms: C_4  and  C_5
REMARK    3  A    between atoms: N_8  and  C_9
REMARK    4  A    between atoms: C_12  and  C_13
REMARK    5  A    between atoms: N_15  and  C_16
REMARK    6  A    between atoms: N_15  and  C_21
REMARK    7  A    between atoms: C_16  and  C_17
REMARK                            x       y       z     vdW  Elec       q    Type
REMARK                         _______ _______ _______ _____ _____    ______ ____
ROOT
ATOM      1  C   UNL     1       7.629   5.627  19.252  0.00  0.00    +0.000 C 
ATOM      2  C   UNL     1       6.768   5.027  18.199  0.00  0.00    +0.000 A 
ATOM      3  O   UNL     1       7.369   5.014  16.985  0.00  0.00    +0.000 OA
ATOM      4  C   UNL     1       6.413   4.582  16.118  0.00  0.00    +0.000 A 
ATOM      5  N   UNL     1       5.262   4.318  16.705  0.00  0.00    +0.000 NA
ATOM      6  C   UNL     1       5.499   4.463  18.065  0.00  0.00    +0.000 A 
ENDROOT
BRANCH   4   7
ATOM      7  C   UNL     1       6.695   4.443  14.683  0.00  0.00    +0.000 A 
ATOM      8  C   UNL     1       7.542   5.188  13.854  0.00  0.00    +0.000 A 
ATOM      9  N   UNL     1       7.518   4.757  12.587  0.00  0.00    +0.000 NA
ATOM     10  N   UNL     1       6.639   3.732  12.616  0.00  0.00    +0.000 N 
ATOM     11  C   UNL     1       6.314   3.015  11.407  0.00  0.00    +0.000 C 
ATOM     12  C   UNL     1       6.124   3.496  13.854  0.00  0.00    +0.000 A 
ENDBRANCH   4   7
BRANCH   6  13
ATOM     13  C   UNL     1       4.533   4.164  19.135  0.00  0.00    +0.000 C 
ATOM     14  O   UNL     1       4.584   3.059  19.681  0.00  0.00    +0.000 OA
ATOM     15  N   UNL     1       3.532   5.093  19.543  0.00  0.00    +0.000 N 
BRANCH  15  16
ATOM     16  C   UNL     1       3.238   6.492  19.095  0.00  0.00    +0.000 C 
ATOM     17  C   UNL     1       2.286   6.900  17.955  0.00  0.00    +0.000 C 
ATOM     18  C   UNL     1       1.911   8.127  18.816  0.00  0.00    +0.000 C 
ATOM     19  C   UNL     1       2.201   7.220  20.025  0.00  0.00    +0.000 C 
ENDBRANCH  15  16
BRANCH  15  20
ATOM     20  C   UNL     1       2.753   4.726  20.771  0.00  0.00    +0.000 C 
BRANCH  20  21
ATOM     21  C   UNL     1       1.462   3.930  20.522  0.00  0.00    +0.000 C 
ATOM     22  F   UNL     1       1.438   3.333  19.311  0.00  0.00    +0.000 F 
ATOM     23  F   UNL     1       1.321   2.953  21.454  0.00  0.00    +0.000 F 
ATOM     24  F   UNL     1       0.369   4.722  20.611  0.00  0.00    +0.000 F 
ENDBRANCH  20  21
ENDBRANCH  15  20
ENDBRANCH   6  13
TORSDOF 5
ENDMDL
MODEL 4
REMARK VINA RESULT:      -7.6      0.986      1.595
REMARK  Name = 
REMARK  7 active torsions:
REMARK  status: ('A' for Active; 'I' for Inactive)
REMARK    1  A    between atoms: C_1  and  C_2
REMARK    2  A    between atoms: C_4  and  C_5
REMARK    3  A    between atoms: N_8  and  C_9
REMARK    4  A    between atoms: C_12  and  C_13
REMARK    5  A    between atoms: N_15  and  C_16
REMARK    6  A    between atoms: N_15  and  C_21
REMARK    7  A    between atoms: C_16  and  C_17
REMARK                            x       y       z     vdW  Elec       q    Type
REMARK                         _______ _______ _______ _____ _____    ______ ____
ROOT
ATOM      1  C   UNL     1       7.355   5.565  19.508  0.00  0.00    +0.000 C 
ATOM      2  C   UNL     1       6.550   4.855  18.480  0.00  0.00    +0.000 A 
ATOM      3  O   UNL     1       7.079   4.969  17.238  0.00  0.00    +0.000 OA
ATOM      4  C   UNL     1       6.162   4.405  16.405  0.00  0.00    +0.000 A 
ATOM      5  N   UNL     1       5.103   3.940  17.039  0.00  0.00    +0.000 NA
ATOM      6  C   UNL     1       5.385   4.091  18.390  0.00  0.00    +0.000 A 
ENDROOT
BRANCH   4   7
ATOM      7  C   UNL     1       6.385   4.348  14.955  0.00  0.00    +0.000 A 
ATOM      8  C   UNL     1       5.825   3.502  13.990  0.00  0.00    +0.000 A 
ATOM      9  N   UNL     1       6.295   3.754  12.762  0.00  0.00    +0.000 NA
ATOM     10  N   UNL     1       7.169   4.765  12.957  0.00  0.00    +0.000 N 
ATOM     11  C   UNL     1       7.918   5.304  11.849  0.00  0.00    +0.000 C 
ATOM     12  C   UNL     1       7.252   5.165  14.255  0.00  0.00    +0.000 A 
ENDBRANCH   4   7
BRANCH   6  13
ATOM     13  C   UNL     1       4.540   3.611  19.496  0.00  0.00    +0.000 C 
ATOM     14  O   UNL     1       4.862   2.567  20.071  0.00  0.00    +0.000 OA
ATOM     15  N   UNL     1       3.359   4.294  19.908  0.00  0.00    +0.000 N 
BRANCH  15  16
ATOM     16  C   UNL     1       2.736   5.570  19.431  0.00  0.00    +0.000 C 
ATOM     17  C   UNL     1       3.474   6.747  18.764  0.00  0.00    +0.000 C 
ATOM     18  C   UNL     1       2.215   6.934  17.888  0.00  0.00    +0.000 C 
ATOM     19  C   UNL     1       2.030   5.414  18.035  0.00  0.00    +0.000 C 
ENDBRANCH  15  16
BRANCH  15  20
ATOM     20  C   UNL     1       2.716   3.796  21.169  0.00  0.00    +0.000 C 
BRANCH  20  21
ATOM     21  C   UNL     1       1.428   2.980  20.976  0.00  0.00    +0.000 C 
ATOM     22  F   UNL     1       0.409   3.714  20.482  0.00  0.00    +0.000 F 
ATOM     23  F   UNL     1       1.642   1.957  20.109  0.00  0.00    +0.000 F 
ATOM     24  F   UNL     1       1.013   2.431  22.140  0.00  0.00    +0.000 F 
ENDBRANCH  20  21
ENDBRANCH  15  20
ENDBRANCH   6  13
TORSDOF 5
ENDMDL
MODEL 5
REMARK VINA RESULT:      -7.5      3.500      7.358
REMARK  Name = 
REMARK  7 active torsions:
REMARK  status: ('A' for Active; 'I' for Inactive)
REMARK    1  A    between atoms: C_1  and  C_2
REMARK    2  A    between atoms: C_4  and  C_5
REMARK    3  A    between atoms: N_8  and  C_9
REMARK    4  A    between atoms: C_12  and  C_13
REMARK    5  A    between atoms: N_15  and  C_16
REMARK    6  A    between atoms: N_15  and  C_21
REMARK    7  A    between atoms: C_16  and  C_17
REMARK                            x       y       z     vdW  Elec       q    Type
REMARK                         _______ _______ _______ _____ _____    ______ ____
ROOT
ATOM      1  C   UNL     1       2.772   3.204  20.670  0.00  0.00    +0.000 C 
ATOM      2  C   UNL     1       2.707   4.485  19.919  0.00  0.00    +0.000 A 
ATOM      3  O   UNL     1       2.192   5.494  20.662  0.00  0.00    +0.000 OA
ATOM      4  C   UNL     1       2.061   6.540  19.802  0.00  0.00    +0.000 A 
ATOM      5  N   UNL     1       2.466   6.259  18.578  0.00  0.00    +0.000 NA
ATOM      6  C   UNL     1       3.015   4.987  18.654  0.00  0.00    +0.000 A 
ENDROOT
BRANCH   4   7
ATOM      7  C   UNL     1       1.519   7.830  20.249  0.00  0.00    +0.000 A 
ATOM      8  C   UNL     1       1.456   9.061  19.584  0.00  0.00    +0.000 A 
ATOM      9  N   UNL     1       0.894  10.015  20.336  0.00  0.00    +0.000 NA
ATOM     10  N   UNL     1       0.608   9.379  21.494  0.00  0.00    +0.000 N 
ATOM     11  C   UNL     1       0.008  10.099  22.591  0.00  0.00    +0.000 C 
ATOM     12  C   UNL     1       0.954   8.063  21.488  0.00  0.00    +0.000 A 
ENDBRANCH   4   7
BRANCH   6  13
ATOM     13  C   UNL     1       3.699   4.287  17.554  0.00  0.00    +0.000 C 
ATOM     14  O   UNL     1       3.013   3.674  16.731  0.00  0.00    +0.000 OA
ATOM     15  N   UNL     1       5.118   4.274  17.421  0.00  0.00    +0.000 N 
BRANCH  15  16
ATOM     16  C   UNL     1       6.194   4.931  18.230  0.00  0.00    +0.000 C 
ATOM     17  C   UNL     1       7.707   4.877  17.944  0.00  0.00    +0.000 C 
ATOM     18  C   UNL     1       7.773   6.334  18.454  0.00  0.00    +0.000 C 
ATOM     19  C   UNL     1       6.338   6.464  17.915  0.00  0.00    +0.000 C 
ENDBRANCH  15  16
BRANCH  15  20
ATOM     20  C   UNL     1       5.656   3.690  16.148  0.00  0.00    +0.000 C 
BRANCH  20  21
ATOM     21  C   UNL     1       5.701   4.648  14.948  0.00  0.00    +0.000 C 
ATOM     22  F   UNL     1       5.131   4.129  13.839  0.00  0.00    +0.000 F 
ATOM     23  F   UNL     1       5.042   5.799  15.236  0.00  0.00    +0.000 F 
ATOM     24  F   UNL     1       6.972   4.988  14.635  0.00  0.00    +0.000 F 
ENDBRANCH  20  21
ENDBRANCH  15  20
ENDBRANCH   6  13
TORSDOF 5
ENDMDL
MODEL 6
REMARK VINA RESULT:      -7.5      3.664      7.253
REMARK  Name = 
REMARK  7 active torsions:
REMARK  status: ('A' for Active; 'I' for Inactive)
REMARK    1  A    between atoms: C_1  and  C_2
REMARK    2  A    between atoms: C_4  and  C_5
REMARK    3  A    between atoms: N_8  and  C_9
REMARK    4  A    between atoms: C_12  and  C_13
REMARK    5  A    between atoms: N_15  and  C_16
REMARK    6  A    between atoms: N_15  and  C_21
REMARK    7  A    between atoms: C_16  and  C_17
REMARK                            x       y       z     vdW  Elec       q    Type
REMARK                         _______ _______ _______ _____ _____    ______ ____
ROOT
ATOM      1  C   UNL     1       2.135   4.025  20.403  0.00  0.00    +0.000 C 
ATOM      2  C   UNL     1       2.401   5.211  19.547  0.00  0.00    +0.000 A 
ATOM      3  O   UNL     1       1.868   6.348  20.057  0.00  0.00    +0.000 OA
ATOM      4  C   UNL     1       2.064   7.295  19.101  0.00  0.00    +0.000 A 
ATOM      5  N   UNL     1       2.688   6.834  18.034  0.00  0.00    +0.000 NA
ATOM      6  C   UNL     1       3.042   5.528  18.348  0.00  0.00    +0.000 A 
ENDROOT
BRANCH   4   7
ATOM      7  C   UNL     1       1.605   8.677  19.293  0.00  0.00    +0.000 A 
ATOM      8  C   UNL     1       1.591   9.754  18.399  0.00  0.00    +0.000 A 
ATOM      9  N   UNL     1       1.103  10.869  18.957  0.00  0.00    +0.000 NA
ATOM     10  N   UNL     1       0.814  10.491  20.222  0.00  0.00    +0.000 N 
ATOM     11  C   UNL     1       0.284  11.446  21.165  0.00  0.00    +0.000 C 
ATOM     12  C   UNL     1       1.087   9.181  20.471  0.00  0.00    +0.000 A 
ENDBRANCH   4   7
BRANCH   6  13
ATOM     13  C   UNL     1       3.856   4.639  17.504  0.00  0.00    +0.000 C 
ATOM     14  O   UNL     1       3.279   3.795  16.812  0.00  0.00    +0.000 OA
ATOM     15  N   UNL     1       5.280   4.703  17.476  0.00  0.00    +0.000 N 
BRANCH  15  16
ATOM     16  C   UNL     1       6.243   5.616  18.171  0.00  0.00    +0.000 C 
ATOM     17  C   UNL     1       7.778   5.492  18.163  0.00  0.00    +0.000 C 
ATOM     18  C   UNL     1       7.822   7.036  18.148  0.00  0.00    +0.000 C 
ATOM     19  C   UNL     1       6.493   6.949  17.377  0.00  0.00    +0.000 C 
ENDBRANCH  15  16
BRANCH  15  20
ATOM     20  C   UNL     1       5.956   3.872  16.426  0.00  0.00    +0.000 C 
BRANCH  20  21
ATOM     21  C   UNL     1       6.086   4.531  15.044  0.00  0.00    +0.000 C 
ATOM     22  F   UNL     1       7.319   5.032  14.815  0.00  0.00    +0.000 F 
ATOM     23  F   UNL     1       5.833   3.626  14.064  0.00  0.00    +0.000 F 
ATOM     24  F   UNL     1       5.198   5.539  14.891  0.00  0.00    +0.000 F 
ENDBRANCH  20  21
ENDBRANCH  15  20
ENDBRANCH   6  13
TORSDOF 5
ENDMDL
MODEL 7
REMARK VINA RESULT:      -7.5      1.625      2.592
REMARK  Name = 
REMARK  7 active torsions:
REMARK  status: ('A' for Active; 'I' for Inactive)
REMARK    1  A    between atoms: C_1  and  C_2
REMARK    2  A    between atoms: C_4  and  C_5
REMARK    3  A    between atoms: N_8  and  C_9
REMARK    4  A    between atoms: C_12  and  C_13
REMARK    5  A    between atoms: N_15  and  C_16
REMARK    6  A    between atoms: N_15  and  C_21
REMARK    7  A    between atoms: C_16  and  C_17
REMARK                            x       y       z     vdW  Elec       q    Type
REMARK                         _______ _______ _______ _____ _____    ______ ____
ROOT
ATOM      1  C   UNL     1       7.436   7.469  17.715  0.00  0.00    +0.000 C 
ATOM      2  C   UNL     1       6.591   6.450  17.040  0.00  0.00    +0.000 A 
ATOM      3  O   UNL     1       7.127   6.025  15.871  0.00  0.00    +0.000 OA
ATOM      4  C   UNL     1       6.180   5.224  15.313  0.00  0.00    +0.000 A 
ATOM      5  N   UNL     1       5.094   5.111  16.054  0.00  0.00    +0.000 NA
ATOM      6  C   UNL     1       5.383   5.778  17.236  0.00  0.00    +0.000 A 
ENDROOT
BRANCH   4   7
ATOM      7  C   UNL     1       6.401   4.574  14.014  0.00  0.00    +0.000 A 
ATOM      8  C   UNL     1       7.358   4.837  13.026  0.00  0.00    +0.000 A 
ATOM      9  N   UNL     1       7.228   4.029  11.967  0.00  0.00    +0.000 NA
ATOM     10  N   UNL     1       6.170   3.252  12.288  0.00  0.00    +0.000 N 
ATOM     11  C   UNL     1       5.692   2.254  11.363  0.00  0.00    +0.000 C 
ATOM     12  C   UNL     1       5.645   3.533  13.512  0.00  0.00    +0.000 A 
ENDBRANCH   4   7
BRANCH   6  13
ATOM     13  C   UNL     1       4.509   5.832  18.420  0.00  0.00    +0.000 C 
ATOM     14  O   UNL     1       4.071   6.929  18.778  0.00  0.00    +0.000 OA
ATOM     15  N   UNL     1       4.173   4.671  19.175  0.00  0.00    +0.000 N 
BRANCH  15  16
ATOM     16  C   UNL     1       4.524   3.228  18.981  0.00  0.00    +0.000 C 
ATOM     17  C   UNL     1       4.103   2.060  19.893  0.00  0.00    +0.000 C 
ATOM     18  C   UNL     1       3.986   1.207  18.610  0.00  0.00    +0.000 C 
ATOM     19  C   UNL     1       3.615   2.524  17.908  0.00  0.00    +0.000 C 
ENDBRANCH  15  16
BRANCH  15  20
ATOM     20  C   UNL     1       3.122   4.853  20.230  0.00  0.00    +0.000 C 
BRANCH  20  21
ATOM     21  C   UNL     1       1.670   4.700  19.750  0.00  0.00    +0.000 C 
ATOM     22  F   UNL     1       0.812   5.508  20.407  0.00  0.00    +0.000 F 
ATOM     23  F   UNL     1       1.575   5.003  18.430  0.00  0.00    +0.000 F 
ATOM     24  F   UNL     1       1.232   3.429  19.897  0.00  0.00    +0.000 F 
ENDBRANCH  20  21
ENDBRANCH  15  20
ENDBRANCH   6  13
TORSDOF 5
ENDMDL
MODEL 8
REMARK VINA RESULT:      -7.5      3.565      7.282
REMARK  Name = 
REMARK  7 active torsions:
REMARK  status: ('A' for Active; 'I' for Inactive)
REMARK    1  A    between atoms: C_1  and  C_2
REMARK    2  A    between atoms: C_4  and  C_5
REMARK    3  A    between atoms: N_8  and  C_9
REMARK    4  A    between atoms: C_12  and  C_13
REMARK    5  A    between atoms: N_15  and  C_16
REMARK    6  A    between atoms: N_15  and  C_21
REMARK    7  A    between atoms: C_16  and  C_17
REMARK                            x       y       z     vdW  Elec       q    Type
REMARK                         _______ _______ _______ _____ _____    ______ ____
ROOT
ATOM      1  C   UNL     1       2.448   3.417  20.088  0.00  0.00    +0.000 C 
ATOM      2  C   UNL     1       2.712   4.746  19.478  0.00  0.00    +0.000 A 
ATOM      3  O   UNL     1       2.020   5.741  20.084  0.00  0.00    +0.000 OA
ATOM      4  C   UNL     1       2.249   6.848  19.328  0.00  0.00    +0.000 A 
ATOM      5  N   UNL     1       3.041   6.618  18.298  0.00  0.00    +0.000 NA
ATOM      6  C   UNL     1       3.467   5.305  18.445  0.00  0.00    +0.000 A 
ENDROOT
BRANCH   4   7
ATOM      7  C   UNL     1       1.649   8.144  19.673  0.00  0.00    +0.000 A 
ATOM      8  C   UNL     1       1.436   9.278  18.881  0.00  0.00    +0.000 A 
ATOM      9  N   UNL     1       0.867  10.276  19.568  0.00  0.00    +0.000 NA
ATOM     10  N   UNL     1       0.728   9.767  20.812  0.00  0.00    +0.000 N 
ATOM     11  C   UNL     1       0.169  10.571  21.871  0.00  0.00    +0.000 C 
ATOM     12  C   UNL     1       1.173   8.486  20.924  0.00  0.00    +0.000 A 
ENDBRANCH   4   7
BRANCH   6  13
ATOM     13  C   UNL     1       4.457   4.629  17.591  0.00  0.00    +0.000 C 
ATOM     14  O   UNL     1       4.083   3.678  16.899  0.00  0.00    +0.000 OA
ATOM     15  N   UNL     1       5.827   5.018  17.553  0.00  0.00    +0.000 N 
BRANCH  15  16
ATOM     16  C   UNL     1       6.561   6.125  18.246  0.00  0.00    +0.000 C 
ATOM     17  C   UNL     1       7.928   6.009  18.947  0.00  0.00    +0.000 C 
ATOM     18  C   UNL     1       8.221   7.437  18.434  0.00  0.00    +0.000 C 
ATOM     19  C   UNL     1       7.321   7.067  17.243  0.00  0.00    +0.000 C 
ENDBRANCH  15  16
BRANCH  15  20
ATOM     20  C   UNL     1       6.668   4.368  16.494  0.00  0.00    +0.000 C 
BRANCH  20  21
ATOM     21  C   UNL     1       6.350   4.784  15.050  0.00  0.00    +0.000 C 
ATOM     22  F   UNL     1       5.458   5.795  14.978  0.00  0.00    +0.000 F 
ATOM     23  F   UNL     1       7.478   5.199  14.418  0.00  0.00    +0.000 F 
ATOM     24  F   UNL     1       5.855   3.749  14.334  0.00  0.00    +0.000 F 
ENDBRANCH  20  21
ENDBRANCH  15  20
ENDBRANCH   6  13
TORSDOF 5
ENDMDL
MODEL 9
REMARK VINA RESULT:      -7.5      3.533      7.357
REMARK  Name = 
REMARK  7 active torsions:
REMARK  status: ('A' for Active; 'I' for Inactive)
REMARK    1  A    between atoms: C_1  and  C_2
REMARK    2  A    between atoms: C_4  and  C_5
REMARK    3  A    between atoms: N_8  and  C_9
REMARK    4  A    between atoms: C_12  and  C_13
REMARK    5  A    between atoms: N_15  and  C_16
REMARK    6  A    between atoms: N_15  and  C_21
REMARK    7  A    between atoms: C_16  and  C_17
REMARK                            x       y       z     vdW  Elec       q    Type
REMARK                         _______ _______ _______ _____ _____    ______ ____
ROOT
ATOM      1  C   UNL     1       2.113   2.925  19.995  0.00  0.00    +0.000 C 
ATOM      2  C   UNL     1       2.369   4.282  19.444  0.00  0.00    +0.000 A 
ATOM      3  O   UNL     1       1.848   5.263  20.220  0.00  0.00    +0.000 OA
ATOM      4  C   UNL     1       2.031   6.412  19.515  0.00  0.00    +0.000 A 
ATOM      5  N   UNL     1       2.635   6.220  18.358  0.00  0.00    +0.000 NA
ATOM      6  C   UNL     1       2.989   4.878  18.344  0.00  0.00    +0.000 A 
ENDROOT
BRANCH   4   7
ATOM      7  C   UNL     1       1.581   7.707  20.041  0.00  0.00    +0.000 A 
ATOM      8  C   UNL     1       1.513   8.959  19.417  0.00  0.00    +0.000 A 
ATOM      9  N   UNL     1       1.055   9.910  20.240  0.00  0.00    +0.000 NA
ATOM     10  N   UNL     1       0.841   9.252  21.400  0.00  0.00    +0.000 N 
ATOM     11  C   UNL     1       0.364   9.960  22.563  0.00  0.00    +0.000 C 
ATOM     12  C   UNL     1       1.131   7.924  21.330  0.00  0.00    +0.000 A 
ENDBRANCH   4   7
BRANCH   6  13
ATOM     13  C   UNL     1       3.785   4.217  17.297  0.00  0.00    +0.000 C 
ATOM     14  O   UNL     1       3.220   3.416  16.547  0.00  0.00    +0.000 OA
ATOM     15  N   UNL     1       5.182   4.452  17.136  0.00  0.00    +0.000 N 
BRANCH  15  16
ATOM     16  C   UNL     1       6.122   5.365  17.860  0.00  0.00    +0.000 C 
ATOM     17  C   UNL     1       6.318   5.443  19.386  0.00  0.00    +0.000 C 
ATOM     18  C   UNL     1       7.813   5.709  19.099  0.00  0.00    +0.000 C 
ATOM     19  C   UNL     1       7.605   4.844  17.844  0.00  0.00    +0.000 C 
ENDBRANCH  15  16
BRANCH  15  20
ATOM     20  C   UNL     1       5.812   3.861  15.909  0.00  0.00    +0.000 C 
BRANCH  20  21
ATOM     21  C   UNL     1       5.776   4.747  14.655  0.00  0.00    +0.000 C 
ATOM     22  F   UNL     1       7.005   5.019  14.168  0.00  0.00    +0.000 F 
ATOM     23  F   UNL     1       5.078   4.136  13.663  0.00  0.00    +0.000 F 
ATOM     24  F   UNL     1       5.162   5.927  14.901  0.00  0.00    +0.000 F 
ENDBRANCH  20  21
ENDBRANCH  15  20
ENDBRANCH   6  13
TORSDOF 5
ENDMDL
