MODEL 1
REMARK VINA RESULT:      -7.9      0.000      0.000
REMARK  Name = 
REMARK  9 active torsions:
REMARK  status: ('A' for Active; 'I' for Inactive)
REMARK    1  A    between atoms: C_1  and  C_2
REMARK    2  A    between atoms: C_2  and  N_3
REMARK    3  A    between atoms: C_2  and  C_14
REMARK    4  A    between atoms: C_4  and  C_6
REMARK    5  A    between atoms: C_6  and  C_7
REMARK    6  A    between atoms: C_7  and  C_8
REMARK    7  A    between atoms: C_23  and  O_24
REMARK    8  A    between atoms: C_27  and  C_28
REMARK    9  A    between atoms: C_32  and  C_33
REMARK                            x       y       z     vdW  Elec       q    Type
REMARK                         _______ _______ _______ _____ _____    ______ ____
ROOT
ATOM      1  C   UNL     1      10.183  12.520  18.296  0.00  0.00    +0.000 C 
ATOM      2  C   UNL     1      10.233  13.963  17.748  0.00  0.00    +0.000 C 
ATOM      3  C   UNL     1      11.497  14.518  18.348  0.00  0.00    +0.000 C 
ATOM      4  C   UNL     1      11.495  14.074  19.835  0.00  0.00    +0.000 C 
ATOM      5  C   UNL     1      10.783  14.886  20.944  0.00  0.00    +0.000 C 
ATOM      6  C   UNL     1      11.162  16.354  20.889  0.00  0.00    +0.000 C 
ATOM      7  C   UNL     1      10.013  17.280  20.979  0.00  0.00    +0.000 C 
ATOM      8  C   UNL     1       8.726  16.928  21.072  0.00  0.00    +0.000 C 
ATOM      9  C   UNL     1       7.781  17.974  20.449  0.00  0.00    +0.000 C 
ATOM     10  C   UNL     1       6.818  17.367  19.439  0.00  0.00    +0.000 C 
ATOM     11  C   UNL     1       5.993  16.322  20.162  0.00  0.00    +0.000 C 
ATOM     12  C   UNL     1       6.910  15.195  20.606  0.00  0.00    +0.000 C 
ATOM     13  C   UNL     1       8.215  15.517  21.408  0.00  0.00    +0.000 C 
ATOM     14  C   UNL     1       7.846  15.277  22.899  0.00  0.00    +0.000 C 
ATOM     15  C   UNL     1       9.307  14.475  20.985  0.00  0.00    +0.000 C 
ATOM     16  C   UNL     1       9.263  13.097  21.667  0.00  0.00    +0.000 C 
ATOM     17  C   UNL     1      10.021  12.048  20.869  0.00  0.00    +0.000 C 
ATOM     18  C   UNL     1      10.978  12.579  19.767  0.00  0.00    +0.000 C 
ATOM     19  C   UNL     1      12.330  11.801  20.026  0.00  0.00    +0.000 C 
ENDROOT
BRANCH   1  21
ATOM     20  C   UNL     1       7.593  12.751  17.468  0.00  0.00    +0.000 C 
ATOM     21  C   UNL     1       8.688  11.932  18.151  0.00  0.00    +0.000 C 
BRANCH  21  22
ATOM     22  N   UNL     1       8.608  10.661  17.412  0.00  0.00    +0.000 N 
ATOM     23  C   UNL     1       8.571   9.489  18.149  0.00  0.00    +0.000 C 
ATOM     24  O   UNL     1       9.010   9.430  19.293  0.00  0.00    +0.000 OA
ATOM     25  H   UNL     1       8.026  10.691  16.583  0.00  0.00    +0.000 HD
BRANCH  23  26
ATOM     26  C   UNL     1       7.862   8.276  17.570  0.00  0.00    +0.000 C 
BRANCH  26  27
ATOM     27  C   UNL     1       7.869   6.957  18.341  0.00  0.00    +0.000 C 
BRANCH  27  28
ATOM     28  C   UNL     1       6.946   5.951  17.786  0.00  0.00    +0.000 A 
ATOM     29  C   UNL     1       6.875   5.682  16.409  0.00  0.00    +0.000 A 
ATOM     30  C   UNL     1       5.940   4.802  15.898  0.00  0.00    +0.000 A 
ATOM     31  C   UNL     1       5.086   4.124  16.760  0.00  0.00    +0.000 A 
ATOM     32  C   UNL     1       5.155   4.325  18.120  0.00  0.00    +0.000 A 
ATOM     33  C   UNL     1       6.102   5.198  18.650  0.00  0.00    +0.000 A 
ENDBRANCH  27  28
ENDBRANCH  26  27
ENDBRANCH  23  26
ENDBRANCH  21  22
ENDBRANCH   1  21
BRANCH  10  34
ATOM     34  O   UNL     1       7.476  16.785  18.299  0.00  0.00    +0.000 OA
ATOM     35  H   UNL     1       6.807  16.562  17.624  0.00  0.00    +0.000 HD
ENDBRANCH  10  34
TORSDOF 6
ENDMDL
MODEL 2
REMARK VINA RESULT:      -7.6      0.763      1.047
REMARK  Name = 
REMARK  9 active torsions:
REMARK  status: ('A' for Active; 'I' for Inactive)
REMARK    1  A    between atoms: C_1  and  C_2
REMARK    2  A    between atoms: C_2  and  N_3
REMARK    3  A    between atoms: C_2  and  C_14
REMARK    4  A    between atoms: C_4  and  C_6
REMARK    5  A    between atoms: C_6  and  C_7
REMARK    6  A    between atoms: C_7  and  C_8
REMARK    7  A    between atoms: C_23  and  O_24
REMARK    8  A    between atoms: C_27  and  C_28
REMARK    9  A    between atoms: C_32  and  C_33
REMARK                            x       y       z     vdW  Elec       q    Type
REMARK                         _______ _______ _______ _____ _____    ______ ____
ROOT
ATOM      1  C   UNL     1      10.150  12.194  18.096  0.00  0.00    +0.000 C 
ATOM      2  C   UNL     1      10.248  13.613  17.495  0.00  0.00    +0.000 C 
ATOM      3  C   UNL     1      11.549  14.134  18.046  0.00  0.00    +0.000 C 
ATOM      4  C   UNL     1      11.563  13.743  19.548  0.00  0.00    +0.000 C 
ATOM      5  C   UNL     1      10.912  14.624  20.643  0.00  0.00    +0.000 C 
ATOM      6  C   UNL     1      11.351  16.071  20.525  0.00  0.00    +0.000 C 
ATOM      7  C   UNL     1      10.245  17.049  20.607  0.00  0.00    +0.000 C 
ATOM      8  C   UNL     1       8.947  16.756  20.740  0.00  0.00    +0.000 C 
ATOM      9  C   UNL     1       8.033  17.820  20.100  0.00  0.00    +0.000 C 
ATOM     10  C   UNL     1       7.022  17.219  19.134  0.00  0.00    +0.000 C 
ATOM     11  C   UNL     1       6.170  16.237  19.913  0.00  0.00    +0.000 C 
ATOM     12  C   UNL     1       7.049  15.088  20.377  0.00  0.00    +0.000 C 
ATOM     13  C   UNL     1       8.384  15.382  21.139  0.00  0.00    +0.000 C 
ATOM     14  C   UNL     1       8.040  15.210  22.645  0.00  0.00    +0.000 C 
ATOM     15  C   UNL     1       9.420  14.279  20.730  0.00  0.00    +0.000 C 
ATOM     16  C   UNL     1       9.335  12.930  21.463  0.00  0.00    +0.000 C 
ATOM     17  C   UNL     1      10.029  11.820  20.687  0.00  0.00    +0.000 C 
ATOM     18  C   UNL     1      10.981  12.271  19.546  0.00  0.00    +0.000 C 
ATOM     19  C   UNL     1      12.305  11.445  19.804  0.00  0.00    +0.000 C 
ENDROOT
BRANCH   1  21
ATOM     20  C   UNL     1       7.546  12.524  17.351  0.00  0.00    +0.000 C 
ATOM     21  C   UNL     1       8.628  11.666  18.005  0.00  0.00    +0.000 C 
BRANCH  21  22
ATOM     22  N   UNL     1       8.473  10.393  17.281  0.00  0.00    +0.000 N 
ATOM     23  C   UNL     1       8.330   9.239  18.031  0.00  0.00    +0.000 C 
ATOM     24  O   UNL     1       8.736   9.164  19.187  0.00  0.00    +0.000 OA
ATOM     25  H   UNL     1       7.915  10.454  16.436  0.00  0.00    +0.000 HD
BRANCH  23  26
ATOM     26  C   UNL     1       7.549   8.073  17.450  0.00  0.00    +0.000 C 
BRANCH  26  27
ATOM     27  C   UNL     1       7.556   6.724  18.168  0.00  0.00    +0.000 C 
BRANCH  27  28
ATOM     28  C   UNL     1       6.239   6.062  18.181  0.00  0.00    +0.000 A 
ATOM     29  C   UNL     1       5.977   4.936  18.979  0.00  0.00    +0.000 A 
ATOM     30  C   UNL     1       4.766   4.275  18.909  0.00  0.00    +0.000 A 
ATOM     31  C   UNL     1       3.763   4.757  18.078  0.00  0.00    +0.000 A 
ATOM     32  C   UNL     1       3.964   5.885  17.314  0.00  0.00    +0.000 A 
ATOM     33  C   UNL     1       5.174   6.569  17.385  0.00  0.00    +0.000 A 
ENDBRANCH  27  28
ENDBRANCH  26  27
ENDBRANCH  23  26
ENDBRANCH  21  22
ENDBRANCH   1  21
BRANCH  10  34
ATOM     34  O   UNL     1       7.627  16.569  18.002  0.00  0.00    +0.000 OA
ATOM     35  H   UNL     1       6.925  16.228  17.417  0.00  0.00    +0.000 HD
ENDBRANCH  10  34
TORSDOF 6
ENDMDL
MODEL 3
REMARK VINA RESULT:      -7.4      6.301      8.634
REMARK  Name = 
REMARK  9 active torsions:
REMARK  status: ('A' for Active; 'I' for Inactive)
REMARK    1  A    between atoms: C_1  and  C_2
REMARK    2  A    between atoms: C_2  and  N_3
REMARK    3  A    between atoms: C_2  and  C_14
REMARK    4  A    between atoms: C_4  and  C_6
REMARK    5  A    between atoms: C_6  and  C_7
REMARK    6  A    between atoms: C_7  and  C_8
REMARK    7  A    between atoms: C_23  and  O_24
REMARK    8  A    between atoms: C_27  and  C_28
REMARK    9  A    between atoms: C_32  and  C_33
REMARK                            x       y       z     vdW  Elec       q    Type
REMARK                         _______ _______ _______ _____ _____    ______ ____
ROOT
ATOM      1  C   UNL     1      -0.613  10.354  20.248  0.00  0.00    +0.000 C 
ATOM      2  C   UNL     1      -1.109  11.619  20.982  0.00  0.00    +0.000 C 
ATOM      3  C   UNL     1      -1.935  12.323  19.940  0.00  0.00    +0.000 C 
ATOM      4  C   UNL     1      -1.111  12.257  18.626  0.00  0.00    +0.000 C 
ATOM      5  C   UNL     1      -0.029  13.306  18.270  0.00  0.00    +0.000 C 
ATOM      6  C   UNL     1      -0.551  14.721  18.431  0.00  0.00    +0.000 C 
ATOM      7  C   UNL     1       0.359  15.623  19.167  0.00  0.00    +0.000 C 
ATOM      8  C   UNL     1       1.540  15.285  19.698  0.00  0.00    +0.000 C 
ATOM      9  C   UNL     1       1.894  16.132  20.937  0.00  0.00    +0.000 C 
ATOM     10  C   UNL     1       2.259  15.280  22.145  0.00  0.00    +0.000 C 
ATOM     11  C   UNL     1       3.456  14.432  21.765  0.00  0.00    +0.000 C 
ATOM     12  C   UNL     1       3.041  13.463  20.671  0.00  0.00    +0.000 C 
ATOM     13  C   UNL     1       2.313  13.992  19.390  0.00  0.00    +0.000 C 
ATOM     14  C   UNL     1       3.426  14.119  18.312  0.00  0.00    +0.000 C 
ATOM     15  C   UNL     1       1.292  12.895  18.932  0.00  0.00    +0.000 C 
ATOM     16  C   UNL     1       1.844  11.726  18.098  0.00  0.00    +0.000 C 
ATOM     17  C   UNL     1       0.912  10.524  18.124  0.00  0.00    +0.000 C 
ATOM     18  C   UNL     1      -0.532  10.784  18.634  0.00  0.00    +0.000 C 
ATOM     19  C   UNL     1      -1.452  10.114  17.535  0.00  0.00    +0.000 C 
ENDROOT
BRANCH   1  21
ATOM     20  C   UNL     1       0.888  10.053  22.507  0.00  0.00    +0.000 C 
ATOM     21  C   UNL     1       0.648   9.725  21.034  0.00  0.00    +0.000 C 
BRANCH  21  22
ATOM     22  N   UNL     1       0.675   8.253  21.053  0.00  0.00    +0.000 N 
ATOM     23  C   UNL     1       1.641   7.616  20.292  0.00  0.00    +0.000 C 
ATOM     24  O   UNL     1       2.165   8.160  19.325  0.00  0.00    +0.000 OA
ATOM     25  H   UNL     1       0.465   7.838  21.954  0.00  0.00    +0.000 HD
BRANCH  23  26
ATOM     26  C   UNL     1       2.150   6.255  20.735  0.00  0.00    +0.000 C 
BRANCH  26  27
ATOM     27  C   UNL     1       1.230   5.038  20.648  0.00  0.00    +0.000 C 
BRANCH  27  28
ATOM     28  C   UNL     1       1.635   4.071  19.612  0.00  0.00    +0.000 A 
ATOM     29  C   UNL     1       1.718   2.692  19.869  0.00  0.00    +0.000 A 
ATOM     30  C   UNL     1       2.188   1.813  18.913  0.00  0.00    +0.000 A 
ATOM     31  C   UNL     1       2.536   2.284  17.652  0.00  0.00    +0.000 A 
ATOM     32  C   UNL     1       2.426   3.622  17.346  0.00  0.00    +0.000 A 
ATOM     33  C   UNL     1       1.940   4.517  18.296  0.00  0.00    +0.000 A 
ENDBRANCH  27  28
ENDBRANCH  26  27
ENDBRANCH  23  26
ENDBRANCH  21  22
ENDBRANCH   1  21
BRANCH  10  34
ATOM     34  O   UNL     1       1.180  14.446  22.604  0.00  0.00    +0.000 OA
ATOM     35  H   UNL     1       0.349  14.739  22.183  0.00  0.00    +0.000 HD
ENDBRANCH  10  34
TORSDOF 6
ENDMDL
MODEL 4
REMARK VINA RESULT:      -7.4      8.037     10.120
REMARK  Name = 
REMARK  9 active torsions:
REMARK  status: ('A' for Active; 'I' for Inactive)
REMARK    1  A    between atoms: C_1  and  C_2
REMARK    2  A    between atoms: C_2  and  N_3
REMARK    3  A    between atoms: C_2  and  C_14
REMARK    4  A    between atoms: C_4  and  C_6
REMARK    5  A    between atoms: C_6  and  C_7
REMARK    6  A    between atoms: C_7  and  C_8
REMARK    7  A    between atoms: C_23  and  O_24
REMARK    8  A    between atoms: C_27  and  C_28
REMARK    9  A    between atoms: C_32  and  C_33
REMARK                            x       y       z     vdW  Elec       q    Type
REMARK                         _______ _______ _______ _____ _____    ______ ____
ROOT
ATOM      1  C   UNL     1       0.268  12.404  19.383  0.00  0.00    +0.000 C 
ATOM      2  C   UNL     1      -0.756  13.111  18.468  0.00  0.00    +0.000 C 
ATOM      3  C   UNL     1      -0.346  14.557  18.540  0.00  0.00    +0.000 C 
ATOM      4  C   UNL     1      -0.062  14.847  20.038  0.00  0.00    +0.000 C 
ATOM      5  C   UNL     1      -1.176  15.263  21.030  0.00  0.00    +0.000 C 
ATOM      6  C   UNL     1      -2.015  16.400  20.478  0.00  0.00    +0.000 C 
ATOM      7  C   UNL     1      -3.474  16.197  20.609  0.00  0.00    +0.000 C 
ATOM      8  C   UNL     1      -4.072  15.119  21.129  0.00  0.00    +0.000 C 
ATOM      9  C   UNL     1      -5.462  14.862  20.514  0.00  0.00    +0.000 C 
ATOM     10  C   UNL     1      -5.620  13.439  19.997  0.00  0.00    +0.000 C 
ATOM     11  C   UNL     1      -5.415  12.500  21.168  0.00  0.00    +0.000 C 
ATOM     12  C   UNL     1      -3.978  12.621  21.647  0.00  0.00    +0.000 C 
ATOM     13  C   UNL     1      -3.373  14.031  21.959  0.00  0.00    +0.000 C 
ATOM     14  C   UNL     1      -3.486  14.189  23.501  0.00  0.00    +0.000 C 
ATOM     15  C   UNL     1      -1.856  13.998  21.567  0.00  0.00    +0.000 C 
ATOM     16  C   UNL     1      -0.880  13.386  22.586  0.00  0.00    +0.000 C 
ATOM     17  C   UNL     1       0.432  12.975  21.936  0.00  0.00    +0.000 C 
ATOM     18  C   UNL     1       0.708  13.550  20.519  0.00  0.00    +0.000 C 
ATOM     19  C   UNL     1       2.181  14.118  20.618  0.00  0.00    +0.000 C 
ENDROOT
BRANCH   1  21
ATOM     20  C   UNL     1      -1.326  10.235  18.938  0.00  0.00    +0.000 C 
ATOM     21  C   UNL     1      -0.286  10.948  19.801  0.00  0.00    +0.000 C 
BRANCH  21  22
ATOM     22  N   UNL     1       0.757   9.916  19.918  0.00  0.00    +0.000 N 
ATOM     23  C   UNL     1       0.817   9.190  21.095  0.00  0.00    +0.000 C 
ATOM     24  O   UNL     1       0.358   9.625  22.147  0.00  0.00    +0.000 OA
ATOM     25  H   UNL     1       0.940   9.402  19.062  0.00  0.00    +0.000 HD
BRANCH  23  26
ATOM     26  C   UNL     1       1.358   7.771  21.062  0.00  0.00    +0.000 C 
BRANCH  26  27
ATOM     27  C   UNL     1       2.185   7.305  19.864  0.00  0.00    +0.000 C 
BRANCH  27  28
ATOM     28  C   UNL     1       1.939   5.899  19.496  0.00  0.00    +0.000 A 
ATOM     29  C   UNL     1       2.134   5.425  18.188  0.00  0.00    +0.000 A 
ATOM     30  C   UNL     1       1.811   4.126  17.842  0.00  0.00    +0.000 A 
ATOM     31  C   UNL     1       1.336   3.251  18.811  0.00  0.00    +0.000 A 
ATOM     32  C   UNL     1       1.175   3.664  20.114  0.00  0.00    +0.000 A 
ATOM     33  C   UNL     1       1.510   4.965  20.481  0.00  0.00    +0.000 A 
ENDBRANCH  27  28
ENDBRANCH  26  27
ENDBRANCH  23  26
ENDBRANCH  21  22
ENDBRANCH   1  21
BRANCH  10  34
ATOM     34  O   UNL     1      -4.713  13.113  18.929  0.00  0.00    +0.000 OA
ATOM     35  H   UNL     1      -4.593  12.145  18.897  0.00  0.00    +0.000 HD
ENDBRANCH  10  34
TORSDOF 6
ENDMDL
MODEL 5
REMARK VINA RESULT:      -7.3      1.367      1.987
REMARK  Name = 
REMARK  9 active torsions:
REMARK  status: ('A' for Active; 'I' for Inactive)
REMARK    1  A    between atoms: C_1  and  C_2
REMARK    2  A    between atoms: C_2  and  N_3
REMARK    3  A    between atoms: C_2  and  C_14
REMARK    4  A    between atoms: C_4  and  C_6
REMARK    5  A    between atoms: C_6  and  C_7
REMARK    6  A    between atoms: C_7  and  C_8
REMARK    7  A    between atoms: C_23  and  O_24
REMARK    8  A    between atoms: C_27  and  C_28
REMARK    9  A    between atoms: C_32  and  C_33
REMARK                            x       y       z     vdW  Elec       q    Type
REMARK                         _______ _______ _______ _____ _____    ______ ____
ROOT
ATOM      1  C   UNL     1       9.864  14.174  18.218  0.00  0.00    +0.000 C 
ATOM      2  C   UNL     1       9.236  15.478  17.678  0.00  0.00    +0.000 C 
ATOM      3  C   UNL     1      10.226  16.535  18.088  0.00  0.00    +0.000 C 
ATOM      4  C   UNL     1      10.612  16.212  19.557  0.00  0.00    +0.000 C 
ATOM      5  C   UNL     1       9.787  16.720  20.764  0.00  0.00    +0.000 C 
ATOM      6  C   UNL     1       9.512  18.208  20.664  0.00  0.00    +0.000 C 
ATOM      7  C   UNL     1       8.108  18.585  20.928  0.00  0.00    +0.000 C 
ATOM      8  C   UNL     1       7.108  17.741  21.207  0.00  0.00    +0.000 C 
ATOM      9  C   UNL     1       5.739  18.272  20.737  0.00  0.00    +0.000 C 
ATOM     10  C   UNL     1       4.985  17.268  19.876  0.00  0.00    +0.000 C 
ATOM     11  C   UNL     1       4.774  16.018  20.706  0.00  0.00    +0.000 C 
ATOM     12  C   UNL     1       6.127  15.393  21.002  0.00  0.00    +0.000 C 
ATOM     13  C   UNL     1       7.278  16.266  21.605  0.00  0.00    +0.000 C 
ATOM     14  C   UNL     1       7.250  15.977  23.133  0.00  0.00    +0.000 C 
ATOM     15  C   UNL     1       8.634  15.742  21.019  0.00  0.00    +0.000 C 
ATOM     16  C   UNL     1       9.259  14.508  21.692  0.00  0.00    +0.000 C 
ATOM     17  C   UNL     1      10.266  13.819  20.783  0.00  0.00    +0.000 C 
ATOM     18  C   UNL     1      10.756  14.635  19.555  0.00  0.00    +0.000 C 
ATOM     19  C   UNL     1      12.331  14.496  19.608  0.00  0.00    +0.000 C 
ENDROOT
BRANCH   1  21
ATOM     20  C   UNL     1       7.526  13.055  17.366  0.00  0.00    +0.000 C 
ATOM     21  C   UNL     1       8.742  13.017  18.291  0.00  0.00    +0.000 C 
BRANCH  21  22
ATOM     22  N   UNL     1       9.257  11.660  18.043  0.00  0.00    +0.000 N 
ATOM     23  C   UNL     1       9.099  10.718  19.046  0.00  0.00    +0.000 C 
ATOM     24  O   UNL     1       8.954  11.042  20.220  0.00  0.00    +0.000 OA
ATOM     25  H   UNL     1       9.137  11.330  17.092  0.00  0.00    +0.000 HD
BRANCH  23  26
ATOM     26  C   UNL     1       8.986   9.251  18.669  0.00  0.00    +0.000 C 
BRANCH  26  27
ATOM     27  C   UNL     1       7.913   8.805  17.676  0.00  0.00    +0.000 C 
BRANCH  27  28
ATOM     28  C   UNL     1       7.652   7.355  17.709  0.00  0.00    +0.000 A 
ATOM     29  C   UNL     1       7.980   6.563  18.822  0.00  0.00    +0.000 A 
ATOM     30  C   UNL     1       7.812   5.191  18.798  0.00  0.00    +0.000 A 
ATOM     31  C   UNL     1       7.259   4.582  17.678  0.00  0.00    +0.000 A 
ATOM     32  C   UNL     1       6.882   5.329  16.585  0.00  0.00    +0.000 A 
ATOM     33  C   UNL     1       7.032   6.714  16.601  0.00  0.00    +0.000 A 
ENDBRANCH  27  28
ENDBRANCH  26  27
ENDBRANCH  23  26
ENDBRANCH  21  22
ENDBRANCH   1  21
BRANCH  10  34
ATOM     34  O   UNL     1       5.662  16.945  18.648  0.00  0.00    +0.000 OA
ATOM     35  H   UNL     1       5.071  16.406  18.090  0.00  0.00    +0.000 HD
ENDBRANCH  10  34
TORSDOF 6
ENDMDL
MODEL 6
REMARK VINA RESULT:      -7.3      7.131      9.208
REMARK  Name = 
REMARK  9 active torsions:
REMARK  status: ('A' for Active; 'I' for Inactive)
REMARK    1  A    between atoms: C_1  and  C_2
REMARK    2  A    between atoms: C_2  and  N_3
REMARK    3  A    between atoms: C_2  and  C_14
REMARK    4  A    between atoms: C_4  and  C_6
REMARK    5  A    between atoms: C_6  and  C_7
REMARK    6  A    between atoms: C_7  and  C_8
REMARK    7  A    between atoms: C_23  and  O_24
REMARK    8  A    between atoms: C_27  and  C_28
REMARK    9  A    between atoms: C_32  and  C_33
REMARK                            x       y       z     vdW  Elec       q    Type
REMARK                         _______ _______ _______ _____ _____    ______ ____
ROOT
ATOM      1  C   UNL     1       0.725  11.790  18.947  0.00  0.00    +0.000 C 
ATOM      2  C   UNL     1      -0.744  12.133  18.615  0.00  0.00    +0.000 C 
ATOM      3  C   UNL     1      -0.644  13.482  17.955  0.00  0.00    +0.000 C 
ATOM      4  C   UNL     1       0.345  14.308  18.819  0.00  0.00    +0.000 C 
ATOM      5  C   UNL     1      -0.109  15.111  20.063  0.00  0.00    +0.000 C 
ATOM      6  C   UNL     1      -1.311  15.982  19.755  0.00  0.00    +0.000 C 
ATOM      7  C   UNL     1      -2.395  15.898  20.757  0.00  0.00    +0.000 C 
ATOM      8  C   UNL     1      -2.398  15.121  21.846  0.00  0.00    +0.000 C 
ATOM      9  C   UNL     1      -3.820  14.701  22.267  0.00  0.00    +0.000 C 
ATOM     10  C   UNL     1      -3.958  13.195  22.441  0.00  0.00    +0.000 C 
ATOM     11  C   UNL     1      -2.976  12.764  23.512  0.00  0.00    +0.000 C 
ATOM     12  C   UNL     1      -1.564  13.006  23.007  0.00  0.00    +0.000 C 
ATOM     13  C   UNL     1      -1.168  14.405  22.427  0.00  0.00    +0.000 C 
ATOM     14  C   UNL     1      -0.455  15.142  23.596  0.00  0.00    +0.000 C 
ATOM     15  C   UNL     1      -0.133  14.170  21.274  0.00  0.00    +0.000 C 
ATOM     16  C   UNL     1       1.335  13.957  21.681  0.00  0.00    +0.000 C 
ATOM     17  C   UNL     1       2.134  13.281  20.577  0.00  0.00    +0.000 C 
ATOM     18  C   UNL     1       1.483  13.265  19.167  0.00  0.00    +0.000 C 
ATOM     19  C   UNL     1       2.634  13.773  18.209  0.00  0.00    +0.000 C 
ENDROOT
BRANCH   1  21
ATOM     20  C   UNL     1      -0.349  10.478  21.085  0.00  0.00    +0.000 C 
ATOM     21  C   UNL     1       0.775  10.623  20.060  0.00  0.00    +0.000 C 
BRANCH  21  22
ATOM     22  N   UNL     1       0.845   9.261  19.504  0.00  0.00    +0.000 N 
ATOM     23  C   UNL     1       1.801   9.009  18.536  0.00  0.00    +0.000 C 
ATOM     24  O   UNL     1       2.276   9.906  17.846  0.00  0.00    +0.000 OA
ATOM     25  H   UNL     1       0.679   8.522  20.178  0.00  0.00    +0.000 HD
BRANCH  23  26
ATOM     26  C   UNL     1       2.364   7.604  18.403  0.00  0.00    +0.000 C 
BRANCH  26  27
ATOM     27  C   UNL     1       2.516   6.729  19.647  0.00  0.00    +0.000 C 
BRANCH  27  28
ATOM     28  C   UNL     1       1.966   5.372  19.477  0.00  0.00    +0.000 A 
ATOM     29  C   UNL     1       1.412   4.652  20.548  0.00  0.00    +0.000 A 
ATOM     30  C   UNL     1       0.985   3.347  20.389  0.00  0.00    +0.000 A 
ATOM     31  C   UNL     1       1.051   2.747  19.138  0.00  0.00    +0.000 A 
ATOM     32  C   UNL     1       1.545   3.435  18.053  0.00  0.00    +0.000 A 
ATOM     33  C   UNL     1       1.965   4.755  18.195  0.00  0.00    +0.000 A 
ENDBRANCH  27  28
ENDBRANCH  26  27
ENDBRANCH  23  26
ENDBRANCH  21  22
ENDBRANCH   1  21
BRANCH  10  34
ATOM     34  O   UNL     1      -3.733  12.455  21.228  0.00  0.00    +0.000 OA
ATOM     35  H   UNL     1      -2.860  12.020  21.278  0.00  0.00    +0.000 HD
ENDBRANCH  10  34
TORSDOF 6
ENDMDL
MODEL 7
REMARK VINA RESULT:      -7.3      6.233      8.701
REMARK  Name = 
REMARK  9 active torsions:
REMARK  status: ('A' for Active; 'I' for Inactive)
REMARK    1  A    between atoms: C_1  and  C_2
REMARK    2  A    between atoms: C_2  and  N_3
REMARK    3  A    between atoms: C_2  and  C_14
REMARK    4  A    between atoms: C_4  and  C_6
REMARK    5  A    between atoms: C_6  and  C_7
REMARK    6  A    between atoms: C_7  and  C_8
REMARK    7  A    between atoms: C_23  and  O_24
REMARK    8  A    between atoms: C_27  and  C_28
REMARK    9  A    between atoms: C_32  and  C_33
REMARK                            x       y       z     vdW  Elec       q    Type
REMARK                         _______ _______ _______ _____ _____    ______ ____
ROOT
ATOM      1  C   UNL     1      -0.720  11.517  20.865  0.00  0.00    +0.000 C 
ATOM      2  C   UNL     1      -0.474  12.427  22.088  0.00  0.00    +0.000 C 
ATOM      3  C   UNL     1      -1.645  13.373  22.058  0.00  0.00    +0.000 C 
ATOM      4  C   UNL     1      -1.805  13.807  20.576  0.00  0.00    +0.000 C 
ATOM      5  C   UNL     1      -1.016  14.992  19.967  0.00  0.00    +0.000 C 
ATOM      6  C   UNL     1      -1.114  16.231  20.837  0.00  0.00    +0.000 C 
ATOM      7  C   UNL     1       0.179  16.905  21.081  0.00  0.00    +0.000 C 
ATOM      8  C   UNL     1       1.372  16.499  20.632  0.00  0.00    +0.000 C 
ATOM      9  C   UNL     1       2.526  16.913  21.567  0.00  0.00    +0.000 C 
ATOM     10  C   UNL     1       3.414  15.740  21.958  0.00  0.00    +0.000 C 
ATOM     11  C   UNL     1       3.992  15.157  20.684  0.00  0.00    +0.000 C 
ATOM     12  C   UNL     1       2.860  14.576  19.854  0.00  0.00    +0.000 C 
ATOM     13  C   UNL     1       1.596  15.443  19.538  0.00  0.00    +0.000 C 
ATOM     14  C   UNL     1       1.833  16.002  18.107  0.00  0.00    +0.000 C 
ATOM     15  C   UNL     1       0.355  14.485  19.505  0.00  0.00    +0.000 C 
ATOM     16  C   UNL     1       0.107  13.703  18.204  0.00  0.00    +0.000 C 
ATOM     17  C   UNL     1      -0.787  12.494  18.434  0.00  0.00    +0.000 C 
ATOM     18  C   UNL     1      -1.569  12.462  19.776  0.00  0.00    +0.000 C 
ATOM     19  C   UNL     1      -3.054  12.126  19.346  0.00  0.00    +0.000 C 
ENDROOT
BRANCH   1  21
ATOM     20  C   UNL     1       1.437   9.976  21.509  0.00  0.00    +0.000 C 
ATOM     21  C   UNL     1       0.646  10.760  20.463  0.00  0.00    +0.000 C 
BRANCH  21  22
ATOM     22  N   UNL     1       0.489   9.754  19.399  0.00  0.00    +0.000 N 
ATOM     23  C   UNL     1       1.461   9.700  18.415  0.00  0.00    +0.000 C 
ATOM     24  O   UNL     1       2.172  10.665  18.153  0.00  0.00    +0.000 OA
ATOM     25  H   UNL     1       0.113   8.866  19.711  0.00  0.00    +0.000 HD
BRANCH  23  26
ATOM     26  C   UNL     1       1.736   8.377  17.721  0.00  0.00    +0.000 C 
BRANCH  26  27
ATOM     27  C   UNL     1       2.826   7.451  18.260  0.00  0.00    +0.000 C 
BRANCH  27  28
ATOM     28  C   UNL     1       2.308   6.163  18.754  0.00  0.00    +0.000 A 
ATOM     29  C   UNL     1       2.040   5.086  17.892  0.00  0.00    +0.000 A 
ATOM     30  C   UNL     1       1.468   3.919  18.362  0.00  0.00    +0.000 A 
ATOM     31  C   UNL     1       1.201   3.778  19.718  0.00  0.00    +0.000 A 
ATOM     32  C   UNL     1       1.492   4.792  20.602  0.00  0.00    +0.000 A 
ATOM     33  C   UNL     1       2.081   5.968  20.145  0.00  0.00    +0.000 A 
ENDBRANCH  27  28
ENDBRANCH  26  27
ENDBRANCH  23  26
ENDBRANCH  21  22
ENDBRANCH   1  21
BRANCH  10  34
ATOM     34  O   UNL     1       2.722  14.723  22.705  0.00  0.00    +0.000 OA
ATOM     35  H   UNL     1       3.376  14.104  23.080  0.00  0.00    +0.000 HD
ENDBRANCH  10  34
TORSDOF 6
ENDMDL
MODEL 8
REMARK VINA RESULT:      -7.3      7.093      9.006
REMARK  Name = 
REMARK  9 active torsions:
REMARK  status: ('A' for Active; 'I' for Inactive)
REMARK    1  A    between atoms: C_1  and  C_2
REMARK    2  A    between atoms: C_2  and  N_3
REMARK    3  A    between atoms: C_2  and  C_14
REMARK    4  A    between atoms: C_4  and  C_6
REMARK    5  A    between atoms: C_6  and  C_7
REMARK    6  A    between atoms: C_7  and  C_8
REMARK    7  A    between atoms: C_23  and  O_24
REMARK    8  A    between atoms: C_27  and  C_28
REMARK    9  A    between atoms: C_32  and  C_33
REMARK                            x       y       z     vdW  Elec       q    Type
REMARK                         _______ _______ _______ _____ _____    ______ ____
ROOT
ATOM      1  C   UNL     1       0.406  11.555  19.734  0.00  0.00    +0.000 C 
ATOM      2  C   UNL     1      -1.014  12.092  19.450  0.00  0.00    +0.000 C 
ATOM      3  C   UNL     1      -0.796  13.071  18.328  0.00  0.00    +0.000 C 
ATOM      4  C   UNL     1       0.462  13.893  18.716  0.00  0.00    +0.000 C 
ATOM      5  C   UNL     1       0.389  15.154  19.610  0.00  0.00    +0.000 C 
ATOM      6  C   UNL     1      -0.675  16.119  19.123  0.00  0.00    +0.000 C 
ATOM      7  C   UNL     1      -1.559  16.636  20.189  0.00  0.00    +0.000 C 
ATOM      8  C   UNL     1      -1.505  16.303  21.484  0.00  0.00    +0.000 C 
ATOM      9  C   UNL     1      -2.880  16.392  22.174  0.00  0.00    +0.000 C 
ATOM     10  C   UNL     1      -3.250  15.113  22.911  0.00  0.00    +0.000 C 
ATOM     11  C   UNL     1      -2.185  14.861  23.959  0.00  0.00    +0.000 C 
ATOM     12  C   UNL     1      -0.866  14.582  23.258  0.00  0.00    +0.000 C 
ATOM     13  C   UNL     1      -0.338  15.567  22.161  0.00  0.00    +0.000 C 
ATOM     14  C   UNL     1       0.692  16.474  22.891  0.00  0.00    +0.000 C 
ATOM     15  C   UNL     1       0.415  14.718  21.080  0.00  0.00    +0.000 C 
ATOM     16  C   UNL     1       1.871  14.325  21.384  0.00  0.00    +0.000 C 
ATOM     17  C   UNL     1       2.326  13.147  20.537  0.00  0.00    +0.000 C 
ATOM     18  C   UNL     1       1.441  12.799  19.309  0.00  0.00    +0.000 C 
ATOM     19  C   UNL     1       2.473  12.668  18.118  0.00  0.00    +0.000 C 
ENDROOT
BRANCH   1  21
ATOM     20  C   UNL     1      -0.559  11.262  22.270  0.00  0.00    +0.000 C 
ATOM     21  C   UNL     1       0.447  10.863  21.191  0.00  0.00    +0.000 C 
BRANCH  21  22
ATOM     22  N   UNL     1       0.289   9.399  21.168  0.00  0.00    +0.000 N 
ATOM     23  C   UNL     1       1.167   8.669  20.385  0.00  0.00    +0.000 C 
ATOM     24  O   UNL     1       1.754   9.170  19.431  0.00  0.00    +0.000 OA
ATOM     25  H   UNL     1       0.031   8.989  22.059  0.00  0.00    +0.000 HD
BRANCH  23  26
ATOM     26  C   UNL     1       1.502   7.242  20.787  0.00  0.00    +0.000 C 
BRANCH  26  27
ATOM     27  C   UNL     1       2.462   6.420  19.928  0.00  0.00    +0.000 C 
BRANCH  27  28
ATOM     28  C   UNL     1       1.926   5.099  19.553  0.00  0.00    +0.000 A 
ATOM     29  C   UNL     1       1.291   4.260  20.484  0.00  0.00    +0.000 A 
ATOM     30  C   UNL     1       0.878   2.988  20.134  0.00  0.00    +0.000 A 
ATOM     31  C   UNL     1       1.039   2.544  18.828  0.00  0.00    +0.000 A 
ATOM     32  C   UNL     1       1.614   3.354  17.875  0.00  0.00    +0.000 A 
ATOM     33  C   UNL     1       2.022   4.643  18.209  0.00  0.00    +0.000 A 
ENDBRANCH  27  28
ENDBRANCH  26  27
ENDBRANCH  23  26
ENDBRANCH  21  22
ENDBRANCH   1  21
BRANCH  10  34
ATOM     34  O   UNL     1      -3.381  13.971  22.045  0.00  0.00    +0.000 OA
ATOM     35  H   UNL     1      -4.055  13.368  22.412  0.00  0.00    +0.000 HD
ENDBRANCH  10  34
TORSDOF 6
ENDMDL
MODEL 9
REMARK VINA RESULT:      -7.3      6.015      8.506
REMARK  Name = 
REMARK  9 active torsions:
REMARK  status: ('A' for Active; 'I' for Inactive)
REMARK    1  A    between atoms: C_1  and  C_2
REMARK    2  A    between atoms: C_2  and  N_3
REMARK    3  A    between atoms: C_2  and  C_14
REMARK    4  A    between atoms: C_4  and  C_6
REMARK    5  A    between atoms: C_6  and  C_7
REMARK    6  A    between atoms: C_7  and  C_8
REMARK    7  A    between atoms: C_23  and  O_24
REMARK    8  A    between atoms: C_27  and  C_28
REMARK    9  A    between atoms: C_32  and  C_33
REMARK                            x       y       z     vdW  Elec       q    Type
REMARK                         _______ _______ _______ _____ _____    ______ ____
ROOT
ATOM      1  C   UNL     1      -0.398  11.077  20.066  0.00  0.00    +0.000 C 
ATOM      2  C   UNL     1       0.222  11.493  21.418  0.00  0.00    +0.000 C 
ATOM      3  C   UNL     1      -0.860  12.326  22.053  0.00  0.00    +0.000 C 
ATOM      4  C   UNL     1      -1.395  13.258  20.933  0.00  0.00    +0.000 C 
ATOM      5  C   UNL     1      -0.739  14.621  20.602  0.00  0.00    +0.000 C 
ATOM      6  C   UNL     1      -0.530  15.454  21.852  0.00  0.00    +0.000 C 
ATOM      7  C   UNL     1       0.815  16.059  21.960  0.00  0.00    +0.000 C 
ATOM      8  C   UNL     1       1.818  15.904  21.088  0.00  0.00    +0.000 C 
ATOM      9  C   UNL     1       3.203  16.009  21.756  0.00  0.00    +0.000 C 
ATOM     10  C   UNL     1       4.099  14.820  21.437  0.00  0.00    +0.000 C 
ATOM     11  C   UNL     1       4.276  14.768  19.933  0.00  0.00    +0.000 C 
ATOM     12  C   UNL     1       2.931  14.470  19.292  0.00  0.00    +0.000 C 
ATOM     13  C   UNL     1       1.677  15.328  19.669  0.00  0.00    +0.000 C 
ATOM     14  C   UNL     1       1.545  16.378  18.531  0.00  0.00    +0.000 C 
ATOM     15  C   UNL     1       0.425  14.386  19.632  0.00  0.00    +0.000 C 
ATOM     16  C   UNL     1      -0.210  14.116  18.258  0.00  0.00    +0.000 C 
ATOM     17  C   UNL     1      -1.072  12.862  18.270  0.00  0.00    +0.000 C 
ATOM     18  C   UNL     1      -1.459  12.307  19.669  0.00  0.00    +0.000 C 
ATOM     19  C   UNL     1      -3.020  12.075  19.569  0.00  0.00    +0.000 C 
ENDROOT
BRANCH   1  21
ATOM     20  C   UNL     1       2.108  11.314  19.012  0.00  0.00    +0.000 C 
ATOM     21  C   UNL     1       0.765  10.586  19.060  0.00  0.00    +0.000 C 
BRANCH  21  22
ATOM     22  N   UNL     1       1.193   9.193  19.266  0.00  0.00    +0.000 N 
ATOM     23  C   UNL     1       1.953   8.599  18.273  0.00  0.00    +0.000 C 
ATOM     24  O   UNL     1       1.926   8.997  17.112  0.00  0.00    +0.000 OA
ATOM     25  H   UNL     1       1.443   8.965  20.222  0.00  0.00    +0.000 HD
BRANCH  23  26
ATOM     26  C   UNL     1       2.935   7.503  18.651  0.00  0.00    +0.000 C 
BRANCH  26  27
ATOM     27  C   UNL     1       2.910   6.172  17.900  0.00  0.00    +0.000 C 
BRANCH  27  28
ATOM     28  C   UNL     1       2.174   5.113  18.613  0.00  0.00    +0.000 A 
ATOM     29  C   UNL     1       1.921   5.178  19.993  0.00  0.00    +0.000 A 
ATOM     30  C   UNL     1       1.311   4.133  20.659  0.00  0.00    +0.000 A 
ATOM     31  C   UNL     1       0.888   3.015  19.950  0.00  0.00    +0.000 A 
ATOM     32  C   UNL     1       1.076   2.932  18.589  0.00  0.00    +0.000 A 
ATOM     33  C   UNL     1       1.676   3.985  17.903  0.00  0.00    +0.000 A 
ENDBRANCH  27  28
ENDBRANCH  26  27
ENDBRANCH  23  26
ENDBRANCH  21  22
ENDBRANCH   1  21
BRANCH  10  34
ATOM     34  O   UNL     1       3.583  13.569  21.925  0.00  0.00    +0.000 OA
ATOM     35  H   UNL     1       2.613  13.560  21.818  0.00  0.00    +0.000 HD
ENDBRANCH  10  34
TORSDOF 6
ENDMDL
