MODEL 1
REMARK VINA RESULT:      -6.6      0.000      0.000
REMARK  Name = 
REMARK  3 active torsions:
REMARK  status: ('A' for Active; 'I' for Inactive)
REMARK    1  A    between atoms: O_1  and  C_2
REMARK    2  A    between atoms: C_2  and  C_3
REMARK    3  A    between atoms: N_5  and  C_6
REMARK                            x       y       z     vdW  Elec       q    Type
REMARK                         _______ _______ _______ _____ _____    ______ ____
ROOT
ATOM      1  C   UNL     1       2.819   3.425  20.470  0.00  0.00    +0.000 A 
ATOM      2  C   UNL     1       3.286   4.411  19.628  0.00  0.00    +0.000 A 
ATOM      3  N   UNL     1       4.481   3.937  19.153  0.00  0.00    +0.000 N 
ATOM      4  N   UNL     1       4.763   2.752  19.749  0.00  0.00    +0.000 NA
ATOM      5  N   UNL     1       3.750   2.429  20.544  0.00  0.00    +0.000 NA
ENDROOT
BRANCH   3   6
ATOM      6  C   UNL     1       5.320   4.500  18.156  0.00  0.00    +0.000 A 
ATOM      7  C   UNL     1       6.101   5.629  18.436  0.00  0.00    +0.000 A 
ATOM      8  C   UNL     1       6.873   6.204  17.426  0.00  0.00    +0.000 A 
ATOM      9 CL   UNL     1       7.818   7.599  17.775  0.00  0.00    +0.000 Cl
ATOM     10  C   UNL     1       6.878   5.670  16.141  0.00  0.00    +0.000 A 
ATOM     11  C   UNL     1       6.110   4.542  15.870  0.00  0.00    +0.000 A 
ATOM     12 CL   UNL     1       6.103   3.885  14.279  0.00  0.00    +0.000 Cl
ATOM     13  C   UNL     1       5.337   3.946  16.868  0.00  0.00    +0.000 A 
ENDBRANCH   3   6
BRANCH   1  14
ATOM     14  C   UNL     1       1.528   3.332  21.190  0.00  0.00    +0.000 C 
BRANCH  14  15
ATOM     15  O   UNL     1       0.431   3.138  20.294  0.00  0.00    +0.000 OA
ATOM     16  H   UNL     1      -0.354   2.984  20.849  0.00  0.00    +0.000 HD
ENDBRANCH  14  15
ENDBRANCH   1  14
TORSDOF 3
ENDMDL
MODEL 2
REMARK VINA RESULT:      -6.5      0.708      2.430
REMARK  Name = 
REMARK  3 active torsions:
REMARK  status: ('A' for Active; 'I' for Inactive)
REMARK    1  A    between atoms: O_1  and  C_2
REMARK    2  A    between atoms: C_2  and  C_3
REMARK    3  A    between atoms: N_5  and  C_6
REMARK                            x       y       z     vdW  Elec       q    Type
REMARK                         _______ _______ _______ _____ _____    ______ ____
ROOT
ATOM      1  C   UNL     1       2.829   2.962  20.195  0.00  0.00    +0.000 A 
ATOM      2  C   UNL     1       3.096   3.922  19.243  0.00  0.00    +0.000 A 
ATOM      3  N   UNL     1       4.428   3.776  18.954  0.00  0.00    +0.000 N 
ATOM      4  N   UNL     1       4.960   2.823  19.759  0.00  0.00    +0.000 NA
ATOM      5  N   UNL     1       3.990   2.315  20.509  0.00  0.00    +0.000 NA
ENDROOT
BRANCH   3   6
ATOM      6  C   UNL     1       5.189   4.430  17.951  0.00  0.00    +0.000 A 
ATOM      7  C   UNL     1       5.191   3.955  16.633  0.00  0.00    +0.000 A 
ATOM      8  C   UNL     1       5.994   4.576  15.675  0.00  0.00    +0.000 A 
ATOM      9 CL   UNL     1       6.001   3.976  14.061  0.00  0.00    +0.000 Cl
ATOM     10  C   UNL     1       6.795   5.663  16.011  0.00  0.00    +0.000 A 
ATOM     11  C   UNL     1       6.781   6.139  17.318  0.00  0.00    +0.000 A 
ATOM     12 CL   UNL     1       7.779   7.475  17.743  0.00  0.00    +0.000 Cl
ATOM     13  C   UNL     1       5.980   5.538  18.291  0.00  0.00    +0.000 A 
ENDBRANCH   3   6
BRANCH   1  14
ATOM     14  C   UNL     1       1.538   2.576  20.811  0.00  0.00    +0.000 C 
BRANCH  14  15
ATOM     15  O   UNL     1       1.618   2.542  22.238  0.00  0.00    +0.000 OA
ATOM     16  H   UNL     1       1.884   3.434  22.520  0.00  0.00    +0.000 HD
ENDBRANCH  14  15
ENDBRANCH   1  14
TORSDOF 3
ENDMDL
MODEL 3
REMARK VINA RESULT:      -6.5      1.098      1.098
REMARK  Name = 
REMARK  3 active torsions:
REMARK  status: ('A' for Active; 'I' for Inactive)
REMARK    1  A    between atoms: O_1  and  C_2
REMARK    2  A    between atoms: C_2  and  C_3
REMARK    3  A    between atoms: N_5  and  C_6
REMARK                            x       y       z     vdW  Elec       q    Type
REMARK                         _______ _______ _______ _____ _____    ______ ____
ROOT
ATOM      1  C   UNL     1       2.373   3.124  19.933  0.00  0.00    +0.000 A 
ATOM      2  C   UNL     1       3.395   4.012  19.681  0.00  0.00    +0.000 A 
ATOM      3  N   UNL     1       4.008   3.539  18.549  0.00  0.00    +0.000 N 
ATOM      4  N   UNL     1       3.430   2.369  18.183  0.00  0.00    +0.000 NA
ATOM      5  N   UNL     1       2.427   2.115  19.014  0.00  0.00    +0.000 NA
ENDROOT
BRANCH   3   6
ATOM      6  C   UNL     1       5.042   4.143  17.788  0.00  0.00    +0.000 A 
ATOM      7  C   UNL     1       5.884   5.104  18.364  0.00  0.00    +0.000 A 
ATOM      8  C   UNL     1       6.855   5.730  17.583  0.00  0.00    +0.000 A 
ATOM      9 CL   UNL     1       7.876   6.920  18.295  0.00  0.00    +0.000 Cl
ATOM     10  C   UNL     1       7.001   5.413  16.236  0.00  0.00    +0.000 A 
ATOM     11  C   UNL     1       6.171   4.449  15.670  0.00  0.00    +0.000 A 
ATOM     12 CL   UNL     1       6.338   4.062  14.002  0.00  0.00    +0.000 Cl
ATOM     13  C   UNL     1       5.197   3.805  16.435  0.00  0.00    +0.000 A 
ENDBRANCH   3   6
BRANCH   1  14
ATOM     14  C   UNL     1       1.311   3.175  20.964  0.00  0.00    +0.000 C 
BRANCH  14  15
ATOM     15  O   UNL     1       1.758   2.651  22.216  0.00  0.00    +0.000 OA
ATOM     16  H   UNL     1       2.715   2.820  22.260  0.00  0.00    +0.000 HD
ENDBRANCH  14  15
ENDBRANCH   1  14
TORSDOF 3
ENDMDL
MODEL 4
REMARK VINA RESULT:      -6.4      1.369      2.693
REMARK  Name = 
REMARK  3 active torsions:
REMARK  status: ('A' for Active; 'I' for Inactive)
REMARK    1  A    between atoms: O_1  and  C_2
REMARK    2  A    between atoms: C_2  and  C_3
REMARK    3  A    between atoms: N_5  and  C_6
REMARK                            x       y       z     vdW  Elec       q    Type
REMARK                         _______ _______ _______ _____ _____    ______ ____
ROOT
ATOM      1  C   UNL     1       2.260   3.016  19.944  0.00  0.00    +0.000 A 
ATOM      2  C   UNL     1       3.521   3.544  19.780  0.00  0.00    +0.000 A 
ATOM      3  N   UNL     1       3.709   3.602  18.423  0.00  0.00    +0.000 N 
ATOM      4  N   UNL     1       2.638   3.053  17.798  0.00  0.00    +0.000 NA
ATOM      5  N   UNL     1       1.746   2.704  18.718  0.00  0.00    +0.000 NA
ENDROOT
BRANCH   3   6
ATOM      6  C   UNL     1       4.788   4.178  17.705  0.00  0.00    +0.000 A 
ATOM      7  C   UNL     1       5.006   3.853  16.359  0.00  0.00    +0.000 A 
ATOM      8  C   UNL     1       6.108   4.383  15.689  0.00  0.00    +0.000 A 
ATOM      9 CL   UNL     1       6.375   3.966  14.040  0.00  0.00    +0.000 Cl
ATOM     10  C   UNL     1       6.998   5.233  16.338  0.00  0.00    +0.000 A 
ATOM     11  C   UNL     1       6.772   5.564  17.671  0.00  0.00    +0.000 A 
ATOM     12 CL   UNL     1       7.876   6.604  18.484  0.00  0.00    +0.000 Cl
ATOM     13  C   UNL     1       5.671   5.050  18.360  0.00  0.00    +0.000 A 
ENDBRANCH   3   6
BRANCH   1  14
ATOM     14  C   UNL     1       1.474   2.816  21.184  0.00  0.00    +0.000 C 
BRANCH  14  15
ATOM     15  O   UNL     1       2.282   2.956  22.356  0.00  0.00    +0.000 OA
ATOM     16  H   UNL     1       1.755   2.609  23.097  0.00  0.00    +0.000 HD
ENDBRANCH  14  15
ENDBRANCH   1  14
TORSDOF 3
ENDMDL
MODEL 5
REMARK VINA RESULT:      -6.4      4.028      5.922
REMARK  Name = 
REMARK  3 active torsions:
REMARK  status: ('A' for Active; 'I' for Inactive)
REMARK    1  A    between atoms: O_1  and  C_2
REMARK    2  A    between atoms: C_2  and  C_3
REMARK    3  A    between atoms: N_5  and  C_6
REMARK                            x       y       z     vdW  Elec       q    Type
REMARK                         _______ _______ _______ _____ _____    ______ ____
ROOT
ATOM      1  C   UNL     1       6.249   4.425  16.098  0.00  0.00    +0.000 A 
ATOM      2  C   UNL     1       4.955   4.480  16.565  0.00  0.00    +0.000 A 
ATOM      3  N   UNL     1       5.071   4.542  17.930  0.00  0.00    +0.000 N 
ATOM      4  N   UNL     1       6.378   4.443  18.274  0.00  0.00    +0.000 NA
ATOM      5  N   UNL     1       7.103   4.383  17.163  0.00  0.00    +0.000 NA
ENDROOT
BRANCH   3   6
ATOM      6  C   UNL     1       4.048   4.738  18.894  0.00  0.00    +0.000 A 
ATOM      7  C   UNL     1       3.541   3.655  19.626  0.00  0.00    +0.000 A 
ATOM      8  C   UNL     1       2.494   3.858  20.525  0.00  0.00    +0.000 A 
ATOM      9 CL   UNL     1       1.868   2.520  21.409  0.00  0.00    +0.000 Cl
ATOM     10  C   UNL     1       1.945   5.124  20.707  0.00  0.00    +0.000 A 
ATOM     11  C   UNL     1       2.459   6.198  19.987  0.00  0.00    +0.000 A 
ATOM     12 CL   UNL     1       1.775   7.763  20.198  0.00  0.00    +0.000 Cl
ATOM     13  C   UNL     1       3.511   6.019  19.088  0.00  0.00    +0.000 A 
ENDBRANCH   3   6
BRANCH   1  14
ATOM     14  C   UNL     1       6.752   4.447  14.705  0.00  0.00    +0.000 C 
BRANCH  14  15
ATOM     15  O   UNL     1       7.760   5.444  14.519  0.00  0.00    +0.000 OA
ATOM     16  H   UNL     1       7.552   6.166  15.136  0.00  0.00    +0.000 HD
ENDBRANCH  14  15
ENDBRANCH   1  14
TORSDOF 3
ENDMDL
MODEL 6
REMARK VINA RESULT:      -6.4      4.049      5.700
REMARK  Name = 
REMARK  3 active torsions:
REMARK  status: ('A' for Active; 'I' for Inactive)
REMARK    1  A    between atoms: O_1  and  C_2
REMARK    2  A    between atoms: C_2  and  C_3
REMARK    3  A    between atoms: N_5  and  C_6
REMARK                            x       y       z     vdW  Elec       q    Type
REMARK                         _______ _______ _______ _____ _____    ______ ____
ROOT
ATOM      1  C   UNL     1       6.180   4.444  16.174  0.00  0.00    +0.000 A 
ATOM      2  C   UNL     1       4.871   4.495  16.598  0.00  0.00    +0.000 A 
ATOM      3  N   UNL     1       4.942   4.541  17.966  0.00  0.00    +0.000 N 
ATOM      4  N   UNL     1       6.237   4.436  18.353  0.00  0.00    +0.000 NA
ATOM      5  N   UNL     1       6.998   4.389  17.266  0.00  0.00    +0.000 NA
ENDROOT
BRANCH   3   6
ATOM      6  C   UNL     1       3.888   4.726  18.898  0.00  0.00    +0.000 A 
ATOM      7  C   UNL     1       3.334   5.996  19.106  0.00  0.00    +0.000 A 
ATOM      8  C   UNL     1       2.340   6.169  20.070  0.00  0.00    +0.000 A 
ATOM      9 CL   UNL     1       1.676   7.736  20.328  0.00  0.00    +0.000 Cl
ATOM     10  C   UNL     1       1.890   5.094  20.831  0.00  0.00    +0.000 A 
ATOM     11  C   UNL     1       2.434   3.832  20.613  0.00  0.00    +0.000 A 
ATOM     12 CL   UNL     1       1.890   2.501  21.560  0.00  0.00    +0.000 Cl
ATOM     13  C   UNL     1       3.424   3.635  19.649  0.00  0.00    +0.000 A 
ENDBRANCH   3   6
BRANCH   1  14
ATOM     14  C   UNL     1       6.730   4.483  14.798  0.00  0.00    +0.000 C 
BRANCH  14  15
ATOM     15  O   UNL     1       7.790   5.434  14.675  0.00  0.00    +0.000 OA
ATOM     16  H   UNL     1       7.478   6.115  14.054  0.00  0.00    +0.000 HD
ENDBRANCH  14  15
ENDBRANCH   1  14
TORSDOF 3
ENDMDL
MODEL 7
REMARK VINA RESULT:      -6.3      1.389      1.551
REMARK  Name = 
REMARK  3 active torsions:
REMARK  status: ('A' for Active; 'I' for Inactive)
REMARK    1  A    between atoms: O_1  and  C_2
REMARK    2  A    between atoms: C_2  and  C_3
REMARK    3  A    between atoms: N_5  and  C_6
REMARK                            x       y       z     vdW  Elec       q    Type
REMARK                         _______ _______ _______ _____ _____    ______ ____
ROOT
ATOM      1  C   UNL     1       2.229   3.806  19.934  0.00  0.00    +0.000 A 
ATOM      2  C   UNL     1       3.562   3.946  19.616  0.00  0.00    +0.000 A 
ATOM      3  N   UNL     1       3.576   4.323  18.297  0.00  0.00    +0.000 N 
ATOM      4  N   UNL     1       2.307   4.327  17.818  0.00  0.00    +0.000 NA
ATOM      5  N   UNL     1       1.481   4.025  18.812  0.00  0.00    +0.000 NA
ENDROOT
BRANCH   3   6
ATOM      6  C   UNL     1       4.684   4.718  17.504  0.00  0.00    +0.000 A 
ATOM      7  C   UNL     1       5.518   5.767  17.916  0.00  0.00    +0.000 A 
ATOM      8  C   UNL     1       6.566   6.181  17.093  0.00  0.00    +0.000 A 
ATOM      9 CL   UNL     1       7.576   7.479  17.600  0.00  0.00    +0.000 Cl
ATOM     10  C   UNL     1       6.797   5.566  15.867  0.00  0.00    +0.000 A 
ATOM     11  C   UNL     1       5.974   4.517  15.467  0.00  0.00    +0.000 A 
ATOM     12 CL   UNL     1       6.246   3.760  13.945  0.00  0.00    +0.000 Cl
ATOM     13  C   UNL     1       4.924   4.081  16.278  0.00  0.00    +0.000 A 
ENDBRANCH   3   6
BRANCH   1  14
ATOM     14  C   UNL     1       1.596   3.516  21.241  0.00  0.00    +0.000 C 
BRANCH  14  15
ATOM     15  O   UNL     1       2.473   2.796  22.110  0.00  0.00    +0.000 OA
ATOM     16  H   UNL     1       2.856   2.075  21.580  0.00  0.00    +0.000 HD
ENDBRANCH  14  15
ENDBRANCH   1  14
TORSDOF 3
ENDMDL
MODEL 8
REMARK VINA RESULT:      -6.3      4.290      6.366
REMARK  Name = 
REMARK  3 active torsions:
REMARK  status: ('A' for Active; 'I' for Inactive)
REMARK    1  A    between atoms: O_1  and  C_2
REMARK    2  A    between atoms: C_2  and  C_3
REMARK    3  A    between atoms: N_5  and  C_6
REMARK                            x       y       z     vdW  Elec       q    Type
REMARK                         _______ _______ _______ _____ _____    ______ ____
ROOT
ATOM      1  C   UNL     1       5.895   5.146  15.305  0.00  0.00    +0.000 A 
ATOM      2  C   UNL     1       5.164   4.401  16.203  0.00  0.00    +0.000 A 
ATOM      3  N   UNL     1       4.437   5.317  16.919  0.00  0.00    +0.000 N 
ATOM      4  N   UNL     1       4.780   6.568  16.524  0.00  0.00    +0.000 NA
ATOM      5  N   UNL     1       5.659   6.472  15.534  0.00  0.00    +0.000 NA
ENDROOT
BRANCH   3   6
ATOM      6  C   UNL     1       3.428   5.080  17.888  0.00  0.00    +0.000 A 
ATOM      7  C   UNL     1       2.710   3.877  17.891  0.00  0.00    +0.000 A 
ATOM      8  C   UNL     1       1.681   3.688  18.813  0.00  0.00    +0.000 A 
ATOM      9 CL   UNL     1       0.794   2.212  18.800  0.00  0.00    +0.000 Cl
ATOM     10  C   UNL     1       1.356   4.679  19.734  0.00  0.00    +0.000 A 
ATOM     11  C   UNL     1       2.080   5.868  19.736  0.00  0.00    +0.000 A 
ATOM     12 CL   UNL     1       1.674   7.103  20.864  0.00  0.00    +0.000 Cl
ATOM     13  C   UNL     1       3.118   6.076  18.827  0.00  0.00    +0.000 A 
ENDBRANCH   3   6
BRANCH   1  14
ATOM     14  C   UNL     1       6.782   4.698  14.207  0.00  0.00    +0.000 C 
BRANCH  14  15
ATOM     15  O   UNL     1       7.895   5.576  14.029  0.00  0.00    +0.000 OA
ATOM     16  H   UNL     1       8.420   5.210  13.295  0.00  0.00    +0.000 HD
ENDBRANCH  14  15
ENDBRANCH   1  14
TORSDOF 3
ENDMDL
MODEL 9
REMARK VINA RESULT:      -6.3      4.247      6.068
REMARK  Name = 
REMARK  3 active torsions:
REMARK  status: ('A' for Active; 'I' for Inactive)
REMARK    1  A    between atoms: O_1  and  C_2
REMARK    2  A    between atoms: C_2  and  C_3
REMARK    3  A    between atoms: N_5  and  C_6
REMARK                            x       y       z     vdW  Elec       q    Type
REMARK                         _______ _______ _______ _____ _____    ______ ____
ROOT
ATOM      1  C   UNL     1       6.713   4.441  13.881  0.00  0.00    +0.000 A 
ATOM      2  C   UNL     1       5.668   4.151  14.729  0.00  0.00    +0.000 A 
ATOM      3  N   UNL     1       5.875   4.937  15.833  0.00  0.00    +0.000 N 
ATOM      4  N   UNL     1       7.043   5.610  15.691  0.00  0.00    +0.000 NA
ATOM      5  N   UNL     1       7.554   5.322  14.500  0.00  0.00    +0.000 NA
ENDROOT
BRANCH   3   6
ATOM      6  C   UNL     1       5.029   5.121  16.957  0.00  0.00    +0.000 A 
ATOM      7  C   UNL     1       4.845   4.089  17.888  0.00  0.00    +0.000 A 
ATOM      8  C   UNL     1       3.961   4.268  18.952  0.00  0.00    +0.000 A 
ATOM      9 CL   UNL     1       3.731   2.991  20.083  0.00  0.00    +0.000 Cl
ATOM     10  C   UNL     1       3.258   5.459  19.105  0.00  0.00    +0.000 A 
ATOM     11  C   UNL     1       3.453   6.486  18.184  0.00  0.00    +0.000 A 
ATOM     12 CL   UNL     1       2.576   7.956  18.359  0.00  0.00    +0.000 Cl
ATOM     13  C   UNL     1       4.337   6.331  17.116  0.00  0.00    +0.000 A 
ENDBRANCH   3   6
BRANCH   1  14
ATOM     14  C   UNL     1       6.965   3.976  12.497  0.00  0.00    +0.000 C 
BRANCH  14  15
ATOM     15  O   UNL     1       6.298   2.742  12.221  0.00  0.00    +0.000 OA
ATOM     16  H   UNL     1       6.598   2.109  12.897  0.00  0.00    +0.000 HD
ENDBRANCH  14  15
ENDBRANCH   1  14
TORSDOF 3
ENDMDL
