MODEL 1
REMARK VINA RESULT:      -8.0      0.000      0.000
REMARK  Name = 
REMARK  8 active torsions:
REMARK  status: ('A' for Active; 'I' for Inactive)
REMARK    1  A    between atoms: C_1  and  C_2
REMARK    2  A    between atoms: N_4  and  C_5
REMARK    3  A    between atoms: C_12  and  S_13
REMARK    4  A    between atoms: S_13  and  C_14
REMARK    5  A    between atoms: C_21  and  C_22
REMARK    6  A    between atoms: N_23  and  O_24
REMARK    7  A    between atoms: O_24  and  C_25
REMARK    8  A    between atoms: C_25  and  C_27
REMARK                            x       y       z     vdW  Elec       q    Type
REMARK                         _______ _______ _______ _____ _____    ______ ____
ROOT
ATOM      1  C   UNL     1       7.673   8.295  17.730  0.00  0.00    +0.000 C 
ATOM      2  C   UNL     1       6.852   7.192  17.151  0.00  0.00    +0.000 C 
ATOM      3  N   UNL     1       7.213   6.558  16.086  0.00  0.00    +0.000 NA
ATOM      4  N   UNL     1       6.262   5.607  15.843  0.00  0.00    +0.000 N 
ATOM      5  C   UNL     1       5.247   5.527  16.911  0.00  0.00    +0.000 C 
ATOM      6  C   UNL     1       5.531   6.795  17.728  0.00  0.00    +0.000 C 
ENDROOT
BRANCH   4   7
ATOM      7  C   UNL     1       6.329   4.892  14.649  0.00  0.00    +0.000 A 
ATOM      8  C   UNL     1       7.424   5.078  13.775  0.00  0.00    +0.000 A 
ATOM      9  C   UNL     1       7.564   4.364  12.580  0.00  0.00    +0.000 A 
ATOM     10  C   UNL     1       6.596   3.437  12.228  0.00  0.00    +0.000 A 
ATOM     11 CL   UNL     1       6.772   2.525  10.779  0.00  0.00    +0.000 Cl
ATOM     12  C   UNL     1       5.490   3.242  13.049  0.00  0.00    +0.000 A 
ATOM     13  C   UNL     1       5.358   3.966  14.247  0.00  0.00    +0.000 A 
ENDBRANCH   4   7
BRANCH   6  14
ATOM     14  C   UNL     1       4.499   7.862  17.492  0.00  0.00    +0.000 C 
ATOM     15  N   UNL     1       3.258   7.579  17.712  0.00  0.00    +0.000 NA
BRANCH  15  16
ATOM     16  O   UNL     1       2.438   8.706  17.509  0.00  0.00    +0.000 OA
BRANCH  16  17
ATOM     17  C   UNL     1       1.687   8.923  18.638  0.00  0.00    +0.000 C 
ATOM     18  O   UNL     1       1.788   8.340  19.711  0.00  0.00    +0.000 OA
BRANCH  17  19
ATOM     19  C   UNL     1       0.680   9.999  18.416  0.00  0.00    +0.000 A 
ATOM     20  C   UNL     1       1.008  11.299  18.834  0.00  0.00    +0.000 A 
ATOM     21  C   UNL     1       0.103  12.349  18.667  0.00  0.00    +0.000 A 
ATOM     22  C   UNL     1      -1.138  12.108  18.081  0.00  0.00    +0.000 A 
ATOM     23  C   UNL     1      -1.473  10.820  17.661  0.00  0.00    +0.000 A 
ATOM     24  C   UNL     1      -0.569   9.766  17.827  0.00  0.00    +0.000 A 
ENDBRANCH  17  19
ENDBRANCH  16  17
ENDBRANCH  15  16
ENDBRANCH   6  14
BRANCH   5  25
ATOM     25  S   UNL     1       5.489   4.022  17.963  0.00  0.00    +0.000 S 
BRANCH  25  26
ATOM     26  C   UNL     1       3.802   3.515  18.279  0.00  0.00    +0.000 A 
ATOM     27  C   UNL     1       2.709   4.202  17.726  0.00  0.00    +0.000 A 
ATOM     28  C   UNL     1       1.406   3.762  17.956  0.00  0.00    +0.000 A 
ATOM     29  C   UNL     1       1.185   2.623  18.723  0.00  0.00    +0.000 A 
ATOM     30  F   UNL     1      -0.070   2.198  18.933  0.00  0.00    +0.000 F 
ATOM     31  C   UNL     1       2.250   1.909  19.256  0.00  0.00    +0.000 A 
ATOM     32  C   UNL     1       3.558   2.352  19.028  0.00  0.00    +0.000 A 
ENDBRANCH  25  26
ENDBRANCH   5  25
TORSDOF 7
ENDMDL
MODEL 2
REMARK VINA RESULT:      -7.9      0.500      1.252
REMARK  Name = 
REMARK  8 active torsions:
REMARK  status: ('A' for Active; 'I' for Inactive)
REMARK    1  A    between atoms: C_1  and  C_2
REMARK    2  A    between atoms: N_4  and  C_5
REMARK    3  A    between atoms: C_12  and  S_13
REMARK    4  A    between atoms: S_13  and  C_14
REMARK    5  A    between atoms: C_21  and  C_22
REMARK    6  A    between atoms: N_23  and  O_24
REMARK    7  A    between atoms: O_24  and  C_25
REMARK    8  A    between atoms: C_25  and  C_27
REMARK                            x       y       z     vdW  Elec       q    Type
REMARK                         _______ _______ _______ _____ _____    ______ ____
ROOT
ATOM      1  C   UNL     1       7.758   8.194  17.811  0.00  0.00    +0.000 C 
ATOM      2  C   UNL     1       6.925   7.106  17.219  0.00  0.00    +0.000 C 
ATOM      3  N   UNL     1       7.281   6.480  16.147  0.00  0.00    +0.000 NA
ATOM      4  N   UNL     1       6.321   5.543  15.892  0.00  0.00    +0.000 N 
ATOM      5  C   UNL     1       5.304   5.461  16.958  0.00  0.00    +0.000 C 
ATOM      6  C   UNL     1       5.600   6.716  17.790  0.00  0.00    +0.000 C 
ENDROOT
BRANCH   4   7
ATOM      7  C   UNL     1       6.383   4.840  14.691  0.00  0.00    +0.000 A 
ATOM      8  C   UNL     1       7.461   5.053  13.803  0.00  0.00    +0.000 A 
ATOM      9  C   UNL     1       7.595   4.353  12.598  0.00  0.00    +0.000 A 
ATOM     10  C   UNL     1       6.638   3.413  12.252  0.00  0.00    +0.000 A 
ATOM     11 CL   UNL     1       6.808   2.518  10.792  0.00  0.00    +0.000 Cl
ATOM     12  C   UNL     1       5.548   3.191  13.087  0.00  0.00    +0.000 A 
ATOM     13  C   UNL     1       5.421   3.901  14.294  0.00  0.00    +0.000 A 
ENDBRANCH   4   7
BRANCH   6  14
ATOM     14  C   UNL     1       4.579   7.796  17.564  0.00  0.00    +0.000 C 
ATOM     15  N   UNL     1       3.328   7.479  17.596  0.00  0.00    +0.000 NA
BRANCH  15  16
ATOM     16  O   UNL     1       2.512   8.616  17.437  0.00  0.00    +0.000 OA
BRANCH  16  17
ATOM     17  C   UNL     1       1.827   8.844  18.605  0.00  0.00    +0.000 C 
ATOM     18  O   UNL     1       1.758   8.098  19.573  0.00  0.00    +0.000 OA
BRANCH  17  19
ATOM     19  C   UNL     1       1.139  10.166  18.576  0.00  0.00    +0.000 A 
ATOM     20  C   UNL     1      -0.264  10.172  18.507  0.00  0.00    +0.000 A 
ATOM     21  C   UNL     1      -0.968  11.377  18.463  0.00  0.00    +0.000 A 
ATOM     22  C   UNL     1      -0.277  12.585  18.487  0.00  0.00    +0.000 A 
ATOM     23  C   UNL     1       1.117  12.591  18.557  0.00  0.00    +0.000 A 
ATOM     24  C   UNL     1       1.826  11.386  18.602  0.00  0.00    +0.000 A 
ENDBRANCH  17  19
ENDBRANCH  16  17
ENDBRANCH  15  16
ENDBRANCH   6  14
BRANCH   5  25
ATOM     25  S   UNL     1       5.529   3.942  17.993  0.00  0.00    +0.000 S 
BRANCH  25  26
ATOM     26  C   UNL     1       3.844   3.562  18.466  0.00  0.00    +0.000 A 
ATOM     27  C   UNL     1       3.534   3.036  19.730  0.00  0.00    +0.000 A 
ATOM     28  C   UNL     1       2.209   2.786  20.087  0.00  0.00    +0.000 A 
ATOM     29  C   UNL     1       1.184   3.079  19.193  0.00  0.00    +0.000 A 
ATOM     30  F   UNL     1      -0.089   2.846  19.545  0.00  0.00    +0.000 F 
ATOM     31  C   UNL     1       1.464   3.627  17.949  0.00  0.00    +0.000 A 
ATOM     32  C   UNL     1       2.794   3.875  17.588  0.00  0.00    +0.000 A 
ENDBRANCH  25  26
ENDBRANCH   5  25
TORSDOF 7
ENDMDL
MODEL 3
REMARK VINA RESULT:      -7.8      0.457      1.274
REMARK  Name = 
REMARK  8 active torsions:
REMARK  status: ('A' for Active; 'I' for Inactive)
REMARK    1  A    between atoms: C_1  and  C_2
REMARK    2  A    between atoms: N_4  and  C_5
REMARK    3  A    between atoms: C_12  and  S_13
REMARK    4  A    between atoms: S_13  and  C_14
REMARK    5  A    between atoms: C_21  and  C_22
REMARK    6  A    between atoms: N_23  and  O_24
REMARK    7  A    between atoms: O_24  and  C_25
REMARK    8  A    between atoms: C_25  and  C_27
REMARK                            x       y       z     vdW  Elec       q    Type
REMARK                         _______ _______ _______ _____ _____    ______ ____
ROOT
ATOM      1  C   UNL     1       7.809   8.279  17.766  0.00  0.00    +0.000 C 
ATOM      2  C   UNL     1       6.973   7.181  17.198  0.00  0.00    +0.000 C 
ATOM      3  N   UNL     1       7.324   6.533  16.137  0.00  0.00    +0.000 NA
ATOM      4  N   UNL     1       6.361   5.593  15.904  0.00  0.00    +0.000 N 
ATOM      5  C   UNL     1       5.347   5.534  16.974  0.00  0.00    +0.000 C 
ATOM      6  C   UNL     1       5.648   6.806  17.780  0.00  0.00    +0.000 C 
ENDROOT
BRANCH   4   7
ATOM      7  C   UNL     1       6.418   4.866  14.717  0.00  0.00    +0.000 A 
ATOM      8  C   UNL     1       5.390   3.950  14.399  0.00  0.00    +0.000 A 
ATOM      9  C   UNL     1       5.374   3.217  13.208  0.00  0.00    +0.000 A 
ATOM     10  C   UNL     1       6.404   3.387  12.296  0.00  0.00    +0.000 A 
ATOM     11 CL   UNL     1       6.381   2.520  10.809  0.00  0.00    +0.000 Cl
ATOM     12  C   UNL     1       7.448   4.261  12.581  0.00  0.00    +0.000 A 
ATOM     13  C   UNL     1       7.455   4.991  13.783  0.00  0.00    +0.000 A 
ENDBRANCH   4   7
BRANCH   6  14
ATOM     14  C   UNL     1       4.629   7.883  17.535  0.00  0.00    +0.000 C 
ATOM     15  N   UNL     1       3.377   7.573  17.596  0.00  0.00    +0.000 NA
BRANCH  15  16
ATOM     16  O   UNL     1       2.564   8.708  17.413  0.00  0.00    +0.000 OA
BRANCH  16  17
ATOM     17  C   UNL     1       1.836   8.928  18.556  0.00  0.00    +0.000 C 
ATOM     18  O   UNL     1       1.698   8.157  19.497  0.00  0.00    +0.000 OA
BRANCH  17  19
ATOM     19  C   UNL     1       1.194  10.273  18.536  0.00  0.00    +0.000 A 
ATOM     20  C   UNL     1      -0.209  10.330  18.559  0.00  0.00    +0.000 A 
ATOM     21  C   UNL     1      -0.871  11.559  18.528  0.00  0.00    +0.000 A 
ATOM     22  C   UNL     1      -0.137  12.741  18.474  0.00  0.00    +0.000 A 
ATOM     23  C   UNL     1       1.258  12.696  18.453  0.00  0.00    +0.000 A 
ATOM     24  C   UNL     1       1.925  11.467  18.484  0.00  0.00    +0.000 A 
ENDBRANCH  17  19
ENDBRANCH  16  17
ENDBRANCH  15  16
ENDBRANCH   6  14
BRANCH   5  25
ATOM     25  S   UNL     1       5.572   4.036  18.039  0.00  0.00    +0.000 S 
BRANCH  25  26
ATOM     26  C   UNL     1       3.880   3.599  18.427  0.00  0.00    +0.000 A 
ATOM     27  C   UNL     1       2.805   4.041  17.639  0.00  0.00    +0.000 A 
ATOM     28  C   UNL     1       1.500   3.653  17.941  0.00  0.00    +0.000 A 
ATOM     29  C   UNL     1       1.260   2.807  19.018  0.00  0.00    +0.000 A 
ATOM     30  F   UNL     1       0.004   2.430  19.299  0.00  0.00    +0.000 F 
ATOM     31  C   UNL     1       2.309   2.334  19.795  0.00  0.00    +0.000 A 
ATOM     32  C   UNL     1       3.620   2.725  19.495  0.00  0.00    +0.000 A 
ENDBRANCH  25  26
ENDBRANCH   5  25
TORSDOF 7
ENDMDL
MODEL 4
REMARK VINA RESULT:      -7.7      6.269      9.743
REMARK  Name = 
REMARK  8 active torsions:
REMARK  status: ('A' for Active; 'I' for Inactive)
REMARK    1  A    between atoms: C_1  and  C_2
REMARK    2  A    between atoms: N_4  and  C_5
REMARK    3  A    between atoms: C_12  and  S_13
REMARK    4  A    between atoms: S_13  and  C_14
REMARK    5  A    between atoms: C_21  and  C_22
REMARK    6  A    between atoms: N_23  and  O_24
REMARK    7  A    between atoms: O_24  and  C_25
REMARK    8  A    between atoms: C_25  and  C_27
REMARK                            x       y       z     vdW  Elec       q    Type
REMARK                         _______ _______ _______ _____ _____    ______ ____
ROOT
ATOM      1  C   UNL     1      -0.151  14.212  18.661  0.00  0.00    +0.000 C 
ATOM      2  C   UNL     1      -0.242  12.829  19.212  0.00  0.00    +0.000 C 
ATOM      3  N   UNL     1       0.654  11.933  18.960  0.00  0.00    +0.000 NA
ATOM      4  N   UNL     1       0.286  10.800  19.628  0.00  0.00    +0.000 N 
ATOM      5  C   UNL     1      -0.891  11.002  20.495  0.00  0.00    +0.000 C 
ATOM      6  C   UNL     1      -1.404  12.373  20.034  0.00  0.00    +0.000 C 
ENDROOT
BRANCH   4   7
ATOM      7  C   UNL     1       1.001   9.628  19.389  0.00  0.00    +0.000 A 
ATOM      8  C   UNL     1       1.560   9.390  18.113  0.00  0.00    +0.000 A 
ATOM      9  C   UNL     1       2.316   8.249  17.822  0.00  0.00    +0.000 A 
ATOM     10  C   UNL     1       2.530   7.307  18.816  0.00  0.00    +0.000 A 
ATOM     11 CL   UNL     1       3.488   5.917  18.484  0.00  0.00    +0.000 Cl
ATOM     12  C   UNL     1       1.976   7.492  20.079  0.00  0.00    +0.000 A 
ATOM     13  C   UNL     1       1.216   8.642  20.360  0.00  0.00    +0.000 A 
ENDBRANCH   4   7
BRANCH   6  14
ATOM     14  C   UNL     1      -2.645  12.258  19.193  0.00  0.00    +0.000 C 
ATOM     15  N   UNL     1      -3.790  12.472  19.751  0.00  0.00    +0.000 NA
BRANCH  15  16
ATOM     16  O   UNL     1      -4.835  12.393  18.810  0.00  0.00    +0.000 OA
BRANCH  16  17
ATOM     17  C   UNL     1      -6.030  12.616  19.448  0.00  0.00    +0.000 C 
ATOM     18  O   UNL     1      -6.571  13.699  19.636  0.00  0.00    +0.000 OA
BRANCH  17  19
ATOM     19  C   UNL     1      -6.639  11.338  19.914  0.00  0.00    +0.000 A 
ATOM     20  C   UNL     1      -6.486  10.205  19.099  0.00  0.00    +0.000 A 
ATOM     21  C   UNL     1      -7.044   8.981  19.471  0.00  0.00    +0.000 A 
ATOM     22  C   UNL     1      -7.759   8.878  20.662  0.00  0.00    +0.000 A 
ATOM     23  C   UNL     1      -7.915   9.998  21.481  0.00  0.00    +0.000 A 
ATOM     24  C   UNL     1      -7.357  11.226  21.111  0.00  0.00    +0.000 A 
ENDBRANCH  17  19
ENDBRANCH  16  17
ENDBRANCH  15  16
ENDBRANCH   6  14
BRANCH   5  25
ATOM     25  S   UNL     1      -0.412  11.067  22.283  0.00  0.00    +0.000 S 
BRANCH  25  26
ATOM     26  C   UNL     1      -1.543  12.298  22.924  0.00  0.00    +0.000 A 
ATOM     27  C   UNL     1      -2.875  11.985  23.236  0.00  0.00    +0.000 A 
ATOM     28  C   UNL     1      -3.723  12.953  23.772  0.00  0.00    +0.000 A 
ATOM     29  C   UNL     1      -3.243  14.236  24.017  0.00  0.00    +0.000 A 
ATOM     30  F   UNL     1      -4.061  15.161  24.541  0.00  0.00    +0.000 F 
ATOM     31  C   UNL     1      -1.922  14.562  23.744  0.00  0.00    +0.000 A 
ATOM     32  C   UNL     1      -1.070  13.591  23.203  0.00  0.00    +0.000 A 
ENDBRANCH  25  26
ENDBRANCH   5  25
TORSDOF 7
ENDMDL
MODEL 5
REMARK VINA RESULT:      -7.6      3.780      5.921
REMARK  Name = 
REMARK  8 active torsions:
REMARK  status: ('A' for Active; 'I' for Inactive)
REMARK    1  A    between atoms: C_1  and  C_2
REMARK    2  A    between atoms: N_4  and  C_5
REMARK    3  A    between atoms: C_12  and  S_13
REMARK    4  A    between atoms: S_13  and  C_14
REMARK    5  A    between atoms: C_21  and  C_22
REMARK    6  A    between atoms: N_23  and  O_24
REMARK    7  A    between atoms: O_24  and  C_25
REMARK    8  A    between atoms: C_25  and  C_27
REMARK                            x       y       z     vdW  Elec       q    Type
REMARK                         _______ _______ _______ _____ _____    ______ ____
ROOT
ATOM      1  C   UNL     1       7.827   5.446  19.444  0.00  0.00    +0.000 C 
ATOM      2  C   UNL     1       7.192   5.788  18.137  0.00  0.00    +0.000 C 
ATOM      3  N   UNL     1       7.051   4.914  17.197  0.00  0.00    +0.000 NA
ATOM      4  N   UNL     1       6.420   5.540  16.159  0.00  0.00    +0.000 N 
ATOM      5  C   UNL     1       5.999   6.915  16.491  0.00  0.00    +0.000 C 
ATOM      6  C   UNL     1       6.739   7.174  17.810  0.00  0.00    +0.000 C 
ENDROOT
BRANCH   4   7
ATOM      7  C   UNL     1       6.296   4.858  14.951  0.00  0.00    +0.000 A 
ATOM      8  C   UNL     1       7.348   4.895  14.008  0.00  0.00    +0.000 A 
ATOM      9  C   UNL     1       7.296   4.204  12.792  0.00  0.00    +0.000 A 
ATOM     10  C   UNL     1       6.172   3.451  12.490  0.00  0.00    +0.000 A 
ATOM     11 CL   UNL     1       6.108   2.566  11.016  0.00  0.00    +0.000 Cl
ATOM     12  C   UNL     1       5.104   3.408  13.380  0.00  0.00    +0.000 A 
ATOM     13  C   UNL     1       5.166   4.109  14.598  0.00  0.00    +0.000 A 
ENDBRANCH   4   7
BRANCH   6  14
ATOM     14  C   UNL     1       7.914   8.094  17.627  0.00  0.00    +0.000 C 
ATOM     15  N   UNL     1       7.785   9.334  17.964  0.00  0.00    +0.000 NA
BRANCH  15  16
ATOM     16  O   UNL     1       8.995  10.034  17.794  0.00  0.00    +0.000 OA
BRANCH  16  17
ATOM     17  C   UNL     1       9.374  10.574  18.998  0.00  0.00    +0.000 C 
ATOM     18  O   UNL     1       8.977  10.243  20.108  0.00  0.00    +0.000 OA
BRANCH  17  19
ATOM     19  C   UNL     1      10.375  11.662  18.809  0.00  0.00    +0.000 A 
ATOM     20  C   UNL     1      11.374  11.809  19.784  0.00  0.00    +0.000 A 
ATOM     21  C   UNL     1      12.333  12.818  19.673  0.00  0.00    +0.000 A 
ATOM     22  C   UNL     1      12.302  13.688  18.585  0.00  0.00    +0.000 A 
ATOM     23  C   UNL     1      11.314  13.549  17.609  0.00  0.00    +0.000 A 
ATOM     24  C   UNL     1      10.352  12.540  17.717  0.00  0.00    +0.000 A 
ENDBRANCH  17  19
ENDBRANCH  16  17
ENDBRANCH  15  16
ENDBRANCH   6  14
BRANCH   5  25
ATOM     25  S   UNL     1       4.169   7.017  16.755  0.00  0.00    +0.000 S 
BRANCH  25  26
ATOM     26  C   UNL     1       3.882   5.660  17.888  0.00  0.00    +0.000 A 
ATOM     27  C   UNL     1       3.716   5.872  19.266  0.00  0.00    +0.000 A 
ATOM     28  C   UNL     1       3.455   4.802  20.121  0.00  0.00    +0.000 A 
ATOM     29  C   UNL     1       3.338   3.516  19.605  0.00  0.00    +0.000 A 
ATOM     30  F   UNL     1       3.077   2.491  20.430  0.00  0.00    +0.000 F 
ATOM     31  C   UNL     1       3.469   3.284  18.242  0.00  0.00    +0.000 A 
ATOM     32  C   UNL     1       3.734   4.358  17.384  0.00  0.00    +0.000 A 
ENDBRANCH  25  26
ENDBRANCH   5  25
TORSDOF 7
ENDMDL
MODEL 6
REMARK VINA RESULT:      -7.5      1.646      1.894
REMARK  Name = 
REMARK  8 active torsions:
REMARK  status: ('A' for Active; 'I' for Inactive)
REMARK    1  A    between atoms: C_1  and  C_2
REMARK    2  A    between atoms: N_4  and  C_5
REMARK    3  A    between atoms: C_12  and  S_13
REMARK    4  A    between atoms: S_13  and  C_14
REMARK    5  A    between atoms: C_21  and  C_22
REMARK    6  A    between atoms: N_23  and  O_24
REMARK    7  A    between atoms: O_24  and  C_25
REMARK    8  A    between atoms: C_25  and  C_27
REMARK                            x       y       z     vdW  Elec       q    Type
REMARK                         _______ _______ _______ _____ _____    ______ ____
ROOT
ATOM      1  C   UNL     1       6.957   5.622  19.654  0.00  0.00    +0.000 C 
ATOM      2  C   UNL     1       6.155   5.225  18.461  0.00  0.00    +0.000 C 
ATOM      3  N   UNL     1       6.706   4.964  17.323  0.00  0.00    +0.000 NA
ATOM      4  N   UNL     1       5.703   4.614  16.463  0.00  0.00    +0.000 N 
ATOM      5  C   UNL     1       4.388   4.517  17.125  0.00  0.00    +0.000 C 
ATOM      6  C   UNL     1       4.661   5.165  18.490  0.00  0.00    +0.000 C 
ENDROOT
BRANCH   4   7
ATOM      7  C   UNL     1       6.015   4.444  15.116  0.00  0.00    +0.000 A 
ATOM      8  C   UNL     1       7.221   4.968  14.598  0.00  0.00    +0.000 A 
ATOM      9  C   UNL     1       7.605   4.801  13.263  0.00  0.00    +0.000 A 
ATOM     10  C   UNL     1       6.776   4.096  12.404  0.00  0.00    +0.000 A 
ATOM     11 CL   UNL     1       7.250   3.850  10.769  0.00  0.00    +0.000 Cl
ATOM     12  C   UNL     1       5.568   3.585  12.868  0.00  0.00    +0.000 A 
ATOM     13  C   UNL     1       5.191   3.761  14.212  0.00  0.00    +0.000 A 
ENDBRANCH   4   7
BRANCH   6  14
ATOM     14  C   UNL     1       4.070   6.544  18.588  0.00  0.00    +0.000 C 
ATOM     15  N   UNL     1       2.796   6.681  18.434  0.00  0.00    +0.000 NA
BRANCH  15  16
ATOM     16  O   UNL     1       2.403   8.020  18.626  0.00  0.00    +0.000 OA
BRANCH  16  17
ATOM     17  C   UNL     1       1.701   8.117  19.802  0.00  0.00    +0.000 C 
ATOM     18  O   UNL     1       1.706   7.316  20.728  0.00  0.00    +0.000 OA
BRANCH  17  19
ATOM     19  C   UNL     1       0.885   9.364  19.841  0.00  0.00    +0.000 A 
ATOM     20  C   UNL     1       0.964  10.232  18.740  0.00  0.00    +0.000 A 
ATOM     21  C   UNL     1       0.236  11.423  18.721  0.00  0.00    +0.000 A 
ATOM     22  C   UNL     1      -0.577  11.757  19.801  0.00  0.00    +0.000 A 
ATOM     23  C   UNL     1      -0.665  10.900  20.899  0.00  0.00    +0.000 A 
ATOM     24  C   UNL     1       0.063   9.706  20.922  0.00  0.00    +0.000 A 
ENDBRANCH  17  19
ENDBRANCH  16  17
ENDBRANCH  15  16
ENDBRANCH   6  14
BRANCH   5  25
ATOM     25  S   UNL     1       3.871   2.753  17.348  0.00  0.00    +0.000 S 
BRANCH  25  26
ATOM     26  C   UNL     1       2.951   2.828  18.882  0.00  0.00    +0.000 A 
ATOM     27  C   UNL     1       1.595   3.192  18.913  0.00  0.00    +0.000 A 
ATOM     28  C   UNL     1       0.892   3.205  20.117  0.00  0.00    +0.000 A 
ATOM     29  C   UNL     1       1.531   2.835  21.296  0.00  0.00    +0.000 A 
ATOM     30  F   UNL     1       0.848   2.839  22.450  0.00  0.00    +0.000 F 
ATOM     31  C   UNL     1       2.863   2.443  21.288  0.00  0.00    +0.000 A 
ATOM     32  C   UNL     1       3.571   2.434  20.080  0.00  0.00    +0.000 A 
ENDBRANCH  25  26
ENDBRANCH   5  25
TORSDOF 7
ENDMDL
MODEL 7
REMARK VINA RESULT:      -7.4      6.484      9.485
REMARK  Name = 
REMARK  8 active torsions:
REMARK  status: ('A' for Active; 'I' for Inactive)
REMARK    1  A    between atoms: C_1  and  C_2
REMARK    2  A    between atoms: N_4  and  C_5
REMARK    3  A    between atoms: C_12  and  S_13
REMARK    4  A    between atoms: S_13  and  C_14
REMARK    5  A    between atoms: C_21  and  C_22
REMARK    6  A    between atoms: N_23  and  O_24
REMARK    7  A    between atoms: O_24  and  C_25
REMARK    8  A    between atoms: C_25  and  C_27
REMARK                            x       y       z     vdW  Elec       q    Type
REMARK                         _______ _______ _______ _____ _____    ______ ____
ROOT
ATOM      1  C   UNL     1      -0.132  14.684  19.057  0.00  0.00    +0.000 C 
ATOM      2  C   UNL     1      -0.270  13.262  19.485  0.00  0.00    +0.000 C 
ATOM      3  N   UNL     1       0.605  12.365  19.171  0.00  0.00    +0.000 NA
ATOM      4  N   UNL     1       0.194  11.190  19.733  0.00  0.00    +0.000 N 
ATOM      5  C   UNL     1      -0.991  11.351  20.597  0.00  0.00    +0.000 C 
ATOM      6  C   UNL     1      -1.459  12.771  20.248  0.00  0.00    +0.000 C 
ENDROOT
BRANCH   4   7
ATOM      7  C   UNL     1       0.881  10.023  19.404  0.00  0.00    +0.000 A 
ATOM      8  C   UNL     1       1.121   9.042  20.393  0.00  0.00    +0.000 A 
ATOM      9  C   UNL     1       1.774   7.836  20.116  0.00  0.00    +0.000 A 
ATOM     10  C   UNL     1       2.208   7.583  18.824  0.00  0.00    +0.000 A 
ATOM     11 CL   UNL     1       2.981   6.090  18.459  0.00  0.00    +0.000 Cl
ATOM     12  C   UNL     1       2.013   8.534  17.827  0.00  0.00    +0.000 A 
ATOM     13  C   UNL     1       1.357   9.744  18.117  0.00  0.00    +0.000 A 
ENDBRANCH   4   7
BRANCH   6  14
ATOM     14  C   UNL     1      -2.688  12.765  19.383  0.00  0.00    +0.000 C 
ATOM     15  N   UNL     1      -3.775  12.258  19.860  0.00  0.00    +0.000 NA
BRANCH  15  16
ATOM     16  O   UNL     1      -4.841  12.396  18.949  0.00  0.00    +0.000 OA
BRANCH  16  17
ATOM     17  C   UNL     1      -5.187  11.156  18.472  0.00  0.00    +0.000 C 
ATOM     18  O   UNL     1      -6.108  10.450  18.861  0.00  0.00    +0.000 OA
BRANCH  17  19
ATOM     19  C   UNL     1      -4.277  10.732  17.370  0.00  0.00    +0.000 A 
ATOM     20  C   UNL     1      -3.235   9.846  17.686  0.00  0.00    +0.000 A 
ATOM     21  C   UNL     1      -2.340   9.421  16.702  0.00  0.00    +0.000 A 
ATOM     22  C   UNL     1      -2.480   9.877  15.393  0.00  0.00    +0.000 A 
ATOM     23  C   UNL     1      -3.515  10.756  15.068  0.00  0.00    +0.000 A 
ATOM     24  C   UNL     1      -4.412  11.184  16.051  0.00  0.00    +0.000 A 
ENDBRANCH  17  19
ENDBRANCH  16  17
ENDBRANCH  15  16
ENDBRANCH   6  14
BRANCH   5  25
ATOM     25  S   UNL     1      -0.542  11.249  22.390  0.00  0.00    +0.000 S 
BRANCH  25  26
ATOM     26  C   UNL     1      -1.651  12.451  23.119  0.00  0.00    +0.000 A 
ATOM     27  C   UNL     1      -2.977  12.126  23.448  0.00  0.00    +0.000 A 
ATOM     28  C   UNL     1      -3.808  13.070  24.051  0.00  0.00    +0.000 A 
ATOM     29  C   UNL     1      -3.316  14.337  24.348  0.00  0.00    +0.000 A 
ATOM     30  F   UNL     1      -4.117  15.238  24.937  0.00  0.00    +0.000 F 
ATOM     31  C   UNL     1      -2.001  14.672  24.058  0.00  0.00    +0.000 A 
ATOM     32  C   UNL     1      -1.166  13.727  23.450  0.00  0.00    +0.000 A 
ENDBRANCH  25  26
ENDBRANCH   5  25
TORSDOF 7
ENDMDL
MODEL 8
REMARK VINA RESULT:      -7.4      4.021      5.643
REMARK  Name = 
REMARK  8 active torsions:
REMARK  status: ('A' for Active; 'I' for Inactive)
REMARK    1  A    between atoms: C_1  and  C_2
REMARK    2  A    between atoms: N_4  and  C_5
REMARK    3  A    between atoms: C_12  and  S_13
REMARK    4  A    between atoms: S_13  and  C_14
REMARK    5  A    between atoms: C_21  and  C_22
REMARK    6  A    between atoms: N_23  and  O_24
REMARK    7  A    between atoms: O_24  and  C_25
REMARK    8  A    between atoms: C_25  and  C_27
REMARK                            x       y       z     vdW  Elec       q    Type
REMARK                         _______ _______ _______ _____ _____    ______ ____
ROOT
ATOM      1  C   UNL     1       8.122   5.470  19.477  0.00  0.00    +0.000 C 
ATOM      2  C   UNL     1       7.488   5.806  18.169  0.00  0.00    +0.000 C 
ATOM      3  N   UNL     1       7.376   4.937  17.221  0.00  0.00    +0.000 NA
ATOM      4  N   UNL     1       6.736   5.555  16.184  0.00  0.00    +0.000 N 
ATOM      5  C   UNL     1       6.278   6.916  16.524  0.00  0.00    +0.000 C 
ATOM      6  C   UNL     1       7.002   7.183  17.850  0.00  0.00    +0.000 C 
ENDROOT
BRANCH   4   7
ATOM      7  C   UNL     1       6.639   4.880  14.969  0.00  0.00    +0.000 A 
ATOM      8  C   UNL     1       5.651   3.885  14.791  0.00  0.00    +0.000 A 
ATOM      9  C   UNL     1       5.482   3.198  13.584  0.00  0.00    +0.000 A 
ATOM     10  C   UNL     1       6.312   3.496  12.514  0.00  0.00    +0.000 A 
ATOM     11 CL   UNL     1       6.093   2.685  11.012  0.00  0.00    +0.000 Cl
ATOM     12  C   UNL     1       7.313   4.451  12.656  0.00  0.00    +0.000 A 
ATOM     13  C   UNL     1       7.475   5.135  13.874  0.00  0.00    +0.000 A 
ENDBRANCH   4   7
BRANCH   6  14
ATOM     14  C   UNL     1       8.154   8.134  17.683  0.00  0.00    +0.000 C 
ATOM     15  N   UNL     1       7.994   9.365  18.038  0.00  0.00    +0.000 NA
BRANCH  15  16
ATOM     16  O   UNL     1       9.186  10.098  17.880  0.00  0.00    +0.000 OA
BRANCH  16  17
ATOM     17  C   UNL     1       9.340  10.940  18.954  0.00  0.00    +0.000 C 
ATOM     18  O   UNL     1       9.176  10.662  20.135  0.00  0.00    +0.000 OA
BRANCH  17  19
ATOM     19  C   UNL     1       9.751  12.303  18.514  0.00  0.00    +0.000 A 
ATOM     20  C   UNL     1       9.121  13.404  19.117  0.00  0.00    +0.000 A 
ATOM     21  C   UNL     1       9.450  14.707  18.739  0.00  0.00    +0.000 A 
ATOM     22  C   UNL     1      10.413  14.922  17.755  0.00  0.00    +0.000 A 
ATOM     23  C   UNL     1      11.047  13.835  17.151  0.00  0.00    +0.000 A 
ATOM     24  C   UNL     1      10.719  12.528  17.527  0.00  0.00    +0.000 A 
ENDBRANCH  17  19
ENDBRANCH  16  17
ENDBRANCH  15  16
ENDBRANCH   6  14
BRANCH   5  25
ATOM     25  S   UNL     1       4.444   6.968  16.776  0.00  0.00    +0.000 S 
BRANCH  25  26
ATOM     26  C   UNL     1       4.164   5.504  17.767  0.00  0.00    +0.000 A 
ATOM     27  C   UNL     1       3.852   4.267  17.184  0.00  0.00    +0.000 A 
ATOM     28  C   UNL     1       3.677   3.133  17.977  0.00  0.00    +0.000 A 
ATOM     29  C   UNL     1       3.832   3.223  19.357  0.00  0.00    +0.000 A 
ATOM     30  F   UNL     1       3.673   2.128  20.115  0.00  0.00    +0.000 F 
ATOM     31  C   UNL     1       4.168   4.430  19.955  0.00  0.00    +0.000 A 
ATOM     32  C   UNL     1       4.341   5.569  19.159  0.00  0.00    +0.000 A 
ENDBRANCH  25  26
ENDBRANCH   5  25
TORSDOF 7
ENDMDL
MODEL 9
REMARK VINA RESULT:      -7.4      3.948      5.930
REMARK  Name = 
REMARK  8 active torsions:
REMARK  status: ('A' for Active; 'I' for Inactive)
REMARK    1  A    between atoms: C_1  and  C_2
REMARK    2  A    between atoms: N_4  and  C_5
REMARK    3  A    between atoms: C_12  and  S_13
REMARK    4  A    between atoms: S_13  and  C_14
REMARK    5  A    between atoms: C_21  and  C_22
REMARK    6  A    between atoms: N_23  and  O_24
REMARK    7  A    between atoms: O_24  and  C_25
REMARK    8  A    between atoms: C_25  and  C_27
REMARK                            x       y       z     vdW  Elec       q    Type
REMARK                         _______ _______ _______ _____ _____    ______ ____
ROOT
ATOM      1  C   UNL     1       8.232   5.674  19.433  0.00  0.00    +0.000 C 
ATOM      2  C   UNL     1       7.528   5.973  18.152  0.00  0.00    +0.000 C 
ATOM      3  N   UNL     1       7.389   5.085  17.225  0.00  0.00    +0.000 NA
ATOM      4  N   UNL     1       6.686   5.671  16.210  0.00  0.00    +0.000 N 
ATOM      5  C   UNL     1       6.215   7.027  16.548  0.00  0.00    +0.000 C 
ATOM      6  C   UNL     1       6.997   7.334  17.833  0.00  0.00    +0.000 C 
ENDROOT
BRANCH   4   7
ATOM      7  C   UNL     1       6.545   4.972  15.013  0.00  0.00    +0.000 A 
ATOM      8  C   UNL     1       7.491   5.144  13.978  0.00  0.00    +0.000 A 
ATOM      9  C   UNL     1       7.421   4.445  12.768  0.00  0.00    +0.000 A 
ATOM     10  C   UNL     1       6.385   3.547  12.564  0.00  0.00    +0.000 A 
ATOM     11 CL   UNL     1       6.305   2.654  11.095  0.00  0.00    +0.000 Cl
ATOM     12  C   UNL     1       5.418   3.367  13.548  0.00  0.00    +0.000 A 
ATOM     13  C   UNL     1       5.497   4.077  14.760  0.00  0.00    +0.000 A 
ENDBRANCH   4   7
BRANCH   6  14
ATOM     14  C   UNL     1       8.119   8.305  17.593  0.00  0.00    +0.000 C 
ATOM     15  N   UNL     1       8.231   9.324  18.379  0.00  0.00    +0.000 NA
BRANCH  15  16
ATOM     16  O   UNL     1       9.369  10.089  18.059  0.00  0.00    +0.000 OA
BRANCH  16  17
ATOM     17  C   UNL     1       9.010  11.411  17.965  0.00  0.00    +0.000 C 
ATOM     18  O   UNL     1       7.976  11.858  17.485  0.00  0.00    +0.000 OA
BRANCH  17  19
ATOM     19  C   UNL     1      10.062  12.296  18.538  0.00  0.00    +0.000 A 
ATOM     20  C   UNL     1      11.278  12.403  17.843  0.00  0.00    +0.000 A 
ATOM     21  C   UNL     1      12.310  13.205  18.333  0.00  0.00    +0.000 A 
ATOM     22  C   UNL     1      12.136  13.909  19.523  0.00  0.00    +0.000 A 
ATOM     23  C   UNL     1      10.931  13.812  20.221  0.00  0.00    +0.000 A 
ATOM     24  C   UNL     1       9.895  13.009  19.732  0.00  0.00    +0.000 A 
ENDBRANCH  17  19
ENDBRANCH  16  17
ENDBRANCH  15  16
ENDBRANCH   6  14
BRANCH   5  25
ATOM     25  S   UNL     1       4.395   7.046  16.888  0.00  0.00    +0.000 S 
BRANCH  25  26
ATOM     26  C   UNL     1       4.178   5.538  17.828  0.00  0.00    +0.000 A 
ATOM     27  C   UNL     1       4.397   5.494  19.213  0.00  0.00    +0.000 A 
ATOM     28  C   UNL     1       4.182   4.316  19.927  0.00  0.00    +0.000 A 
ATOM     29  C   UNL     1       3.729   3.179  19.267  0.00  0.00    +0.000 A 
ATOM     30  F   UNL     1       3.514   2.050  19.960  0.00  0.00    +0.000 F 
ATOM     31  C   UNL     1       3.477   3.205  17.902  0.00  0.00    +0.000 A 
ATOM     32  C   UNL     1       3.695   4.386  17.184  0.00  0.00    +0.000 A 
ENDBRANCH  25  26
ENDBRANCH   5  25
TORSDOF 7
ENDMDL
