MODEL 1
REMARK VINA RESULT:      -8.6      0.000      0.000
REMARK  Name = 
REMARK  7 active torsions:
REMARK  status: ('A' for Active; 'I' for Inactive)
REMARK    1  A    between atoms: N_1  and  S_2
REMARK    2  A    between atoms: S_2  and  O_5
REMARK    3  A    between atoms: O_5  and  C_6
REMARK    4  A    between atoms: C_9  and  C_10
REMARK    5  A    between atoms: C_13  and  C_14
REMARK    6  A    between atoms: C_14  and  C_16
REMARK    7  A    between atoms: C_21  and  O_22
REMARK                            x       y       z     vdW  Elec       q    Type
REMARK                         _______ _______ _______ _____ _____    ______ ____
ROOT
ATOM      1  C   UNL     1       1.480   8.740  19.506  0.00  0.00    +0.000 A 
ATOM      2  C   UNL     1       1.621   9.140  18.188  0.00  0.00    +0.000 A 
ATOM      3  C   UNL     1       2.370   8.218  17.404  0.00  0.00    +0.000 A 
ATOM      4  C   UNL     1       2.837   7.152  18.149  0.00  0.00    +0.000 A 
ATOM      5  S   UNL     1       2.278   7.245  19.766  0.00  0.00    +0.000 S 
ENDROOT
BRANCH   1   9
ATOM      6  C   UNL     1      -0.644  10.868  22.573  0.00  0.00    +0.000 A 
ATOM      7  C   UNL     1      -0.649   9.474  22.572  0.00  0.00    +0.000 A 
ATOM      8  C   UNL     1       0.054   8.766  21.588  0.00  0.00    +0.000 A 
ATOM      9  C   UNL     1       0.782   9.443  20.596  0.00  0.00    +0.000 A 
ATOM     10  C   UNL     1       0.810  10.843  20.640  0.00  0.00    +0.000 A 
ATOM     11  C   UNL     1       0.112  11.541  21.623  0.00  0.00    +0.000 A 
ATOM     12  F   UNL     1       0.204  12.876  21.625  0.00  0.00    +0.000 F 
BRANCH   6  13
ATOM     13  O   UNL     1      -1.397  11.468  23.551  0.00  0.00    +0.000 OA
BRANCH  13  14
ATOM     14  S   UNL     1      -2.593  12.509  23.178  0.00  0.00    +0.000 S 
ATOM     15  O   UNL     1      -3.053  12.301  21.823  0.00  0.00    +0.000 OA
ATOM     16  O   UNL     1      -2.273  13.816  23.701  0.00  0.00    +0.000 OA
BRANCH  14  17
ATOM     17  N   UNL     1      -3.864  11.989  24.150  0.00  0.00    +0.000 NA
ATOM     18  H   UNL     1      -4.089  12.745  24.797  0.00  0.00    +0.000 HD
ATOM     19  H   UNL     1      -3.574  11.145  24.644  0.00  0.00    +0.000 HD
ENDBRANCH  14  17
ENDBRANCH  13  14
ENDBRANCH   6  13
ENDBRANCH   1   9
BRANCH   4  20
ATOM     20  C   UNL     1       3.691   6.036  17.758  0.00  0.00    +0.000 C 
ATOM     21  O   UNL     1       4.662   6.156  17.013  0.00  0.00    +0.000 OA
BRANCH  20  22
ATOM     22  C   UNL     1       3.386   4.674  18.255  0.00  0.00    +0.000 A 
ATOM     23  C   UNL     1       2.130   4.111  18.025  0.00  0.00    +0.000 A 
ATOM     24  F   UNL     1       1.200   4.757  17.309  0.00  0.00    +0.000 F 
ATOM     25  C   UNL     1       1.809   2.843  18.511  0.00  0.00    +0.000 A 
ATOM     26  C   UNL     1       2.752   2.106  19.229  0.00  0.00    +0.000 A 
ATOM     27  C   UNL     1       4.004   2.662  19.465  0.00  0.00    +0.000 A 
ATOM     28  C   UNL     1       4.310   3.945  19.004  0.00  0.00    +0.000 A 
ATOM     29  F   UNL     1       5.509   4.464  19.313  0.00  0.00    +0.000 F 
BRANCH  27  30
ATOM     30  O   UNL     1       4.961   1.970  20.151  0.00  0.00    +0.000 OA
ATOM     31  H   UNL     1       4.555   1.230  20.630  0.00  0.00    +0.000 HD
ENDBRANCH  27  30
ENDBRANCH  20  22
ENDBRANCH   4  20
TORSDOF 7
ENDMDL
MODEL 2
REMARK VINA RESULT:      -8.5      1.178      2.011
REMARK  Name = 
REMARK  7 active torsions:
REMARK  status: ('A' for Active; 'I' for Inactive)
REMARK    1  A    between atoms: N_1  and  S_2
REMARK    2  A    between atoms: S_2  and  O_5
REMARK    3  A    between atoms: O_5  and  C_6
REMARK    4  A    between atoms: C_9  and  C_10
REMARK    5  A    between atoms: C_13  and  C_14
REMARK    6  A    between atoms: C_14  and  C_16
REMARK    7  A    between atoms: C_21  and  O_22
REMARK                            x       y       z     vdW  Elec       q    Type
REMARK                         _______ _______ _______ _____ _____    ______ ____
ROOT
ATOM      1  C   UNL     1       1.474   8.822  19.572  0.00  0.00    +0.000 A 
ATOM      2  C   UNL     1       1.753   9.244  18.283  0.00  0.00    +0.000 A 
ATOM      3  C   UNL     1       2.441   8.264  17.514  0.00  0.00    +0.000 A 
ATOM      4  C   UNL     1       2.725   7.126  18.245  0.00  0.00    +0.000 A 
ATOM      5  S   UNL     1       2.070   7.235  19.825  0.00  0.00    +0.000 S 
ENDROOT
BRANCH   1   9
ATOM      6  C   UNL     1      -0.617  11.067  22.578  0.00  0.00    +0.000 A 
ATOM      7  C   UNL     1      -0.559   9.678  22.672  0.00  0.00    +0.000 A 
ATOM      8  C   UNL     1       0.135   8.933  21.709  0.00  0.00    +0.000 A 
ATOM      9  C   UNL     1       0.790   9.570  20.641  0.00  0.00    +0.000 A 
ATOM     10  C   UNL     1       0.756  10.970  20.589  0.00  0.00    +0.000 A 
ATOM     11  C   UNL     1       0.068  11.704  21.552  0.00  0.00    +0.000 A 
ATOM     12  F   UNL     1       0.099  13.039  21.459  0.00  0.00    +0.000 F 
BRANCH   6  13
ATOM     13  O   UNL     1      -1.356  11.702  23.545  0.00  0.00    +0.000 OA
BRANCH  13  14
ATOM     14  S   UNL     1      -2.808  12.357  23.205  0.00  0.00    +0.000 S 
ATOM     15  O   UNL     1      -3.813  11.891  24.134  0.00  0.00    +0.000 OA
ATOM     16  O   UNL     1      -3.011  12.363  21.776  0.00  0.00    +0.000 OA
BRANCH  14  17
ATOM     17  N   UNL     1      -2.589  13.981  23.585  0.00  0.00    +0.000 NA
ATOM     18  H   UNL     1      -2.110  14.421  22.800  0.00  0.00    +0.000 HD
ATOM     19  H   UNL     1      -2.042  14.045  24.444  0.00  0.00    +0.000 HD
ENDBRANCH  14  17
ENDBRANCH  13  14
ENDBRANCH   6  13
ENDBRANCH   1   9
BRANCH   4  20
ATOM     20  C   UNL     1       3.467   5.928  17.867  0.00  0.00    +0.000 C 
ATOM     21  O   UNL     1       4.402   5.936  17.067  0.00  0.00    +0.000 OA
BRANCH  20  22
ATOM     22  C   UNL     1       3.086   4.619  18.447  0.00  0.00    +0.000 A 
ATOM     23  C   UNL     1       3.974   3.939  19.281  0.00  0.00    +0.000 A 
ATOM     24  F   UNL     1       5.156   4.472  19.620  0.00  0.00    +0.000 F 
ATOM     25  C   UNL     1       3.650   2.691  19.814  0.00  0.00    +0.000 A 
ATOM     26  C   UNL     1       2.416   2.104  19.529  0.00  0.00    +0.000 A 
ATOM     27  C   UNL     1       1.527   2.775  18.696  0.00  0.00    +0.000 A 
ATOM     28  C   UNL     1       1.869   4.010  18.140  0.00  0.00    +0.000 A 
ATOM     29  F   UNL     1       1.006   4.588  17.290  0.00  0.00    +0.000 F 
BRANCH  27  30
ATOM     30  O   UNL     1       0.304   2.244  18.402  0.00  0.00    +0.000 OA
ATOM     31  H   UNL     1       0.066   2.448  17.483  0.00  0.00    +0.000 HD
ENDBRANCH  27  30
ENDBRANCH  20  22
ENDBRANCH   4  20
TORSDOF 7
ENDMDL
MODEL 3
REMARK VINA RESULT:      -8.4      1.719      1.850
REMARK  Name = 
REMARK  7 active torsions:
REMARK  status: ('A' for Active; 'I' for Inactive)
REMARK    1  A    between atoms: N_1  and  S_2
REMARK    2  A    between atoms: S_2  and  O_5
REMARK    3  A    between atoms: O_5  and  C_6
REMARK    4  A    between atoms: C_9  and  C_10
REMARK    5  A    between atoms: C_13  and  C_14
REMARK    6  A    between atoms: C_14  and  C_16
REMARK    7  A    between atoms: C_21  and  O_22
REMARK                            x       y       z     vdW  Elec       q    Type
REMARK                         _______ _______ _______ _____ _____    ______ ____
ROOT
ATOM      1  C   UNL     1       0.914   9.270  20.311  0.00  0.00    +0.000 A 
ATOM      2  C   UNL     1       1.274   9.402  18.981  0.00  0.00    +0.000 A 
ATOM      3  C   UNL     1       1.994   8.278  18.485  0.00  0.00    +0.000 A 
ATOM      4  C   UNL     1       2.217   7.325  19.460  0.00  0.00    +0.000 A 
ATOM      5  S   UNL     1       1.471   7.774  20.936  0.00  0.00    +0.000 S 
ENDROOT
BRANCH   1   9
ATOM      6  C   UNL     1      -1.337  12.095  22.635  0.00  0.00    +0.000 A 
ATOM      7  C   UNL     1      -1.141  10.804  23.122  0.00  0.00    +0.000 A 
ATOM      8  C   UNL     1      -0.394   9.876  22.383  0.00  0.00    +0.000 A 
ATOM      9  C   UNL     1       0.178  10.231  21.150  0.00  0.00    +0.000 A 
ATOM     10  C   UNL     1       0.005  11.547  20.699  0.00  0.00    +0.000 A 
ATOM     11  C   UNL     1      -0.735  12.465  21.440  0.00  0.00    +0.000 A 
ATOM     12  F   UNL     1      -0.837  13.712  20.966  0.00  0.00    +0.000 F 
BRANCH   6  13
ATOM     13  O   UNL     1      -2.118  12.914  23.411  0.00  0.00    +0.000 OA
BRANCH  13  14
ATOM     14  S   UNL     1      -3.732  12.981  23.210  0.00  0.00    +0.000 S 
ATOM     15  O   UNL     1      -4.134  12.268  22.018  0.00  0.00    +0.000 OA
ATOM     16  O   UNL     1      -4.200  14.313  23.517  0.00  0.00    +0.000 OA
BRANCH  14  17
ATOM     17  N   UNL     1      -4.313  12.050  24.486  0.00  0.00    +0.000 NA
ATOM     18  H   UNL     1      -3.825  12.345  25.332  0.00  0.00    +0.000 HD
ATOM     19  H   UNL     1      -4.142  11.066  24.276  0.00  0.00    +0.000 HD
ENDBRANCH  14  17
ENDBRANCH  13  14
ENDBRANCH   6  13
ENDBRANCH   1   9
BRANCH   4  20
ATOM     20  C   UNL     1       2.963   6.074  19.395  0.00  0.00    +0.000 C 
ATOM     21  O   UNL     1       4.174   6.017  19.185  0.00  0.00    +0.000 OA
BRANCH  20  22
ATOM     22  C   UNL     1       2.248   4.787  19.570  0.00  0.00    +0.000 A 
ATOM     23  C   UNL     1       1.619   4.185  18.480  0.00  0.00    +0.000 A 
ATOM     24  F   UNL     1       1.693   4.717  17.252  0.00  0.00    +0.000 F 
ATOM     25  C   UNL     1       0.912   2.990  18.627  0.00  0.00    +0.000 A 
ATOM     26  C   UNL     1       0.835   2.368  19.874  0.00  0.00    +0.000 A 
ATOM     27  C   UNL     1       1.457   2.965  20.965  0.00  0.00    +0.000 A 
ATOM     28  C   UNL     1       2.136   4.177  20.819  0.00  0.00    +0.000 A 
ATOM     29  F   UNL     1       2.664   4.747  21.914  0.00  0.00    +0.000 F 
BRANCH  27  30
ATOM     30  O   UNL     1       1.417   2.384  22.199  0.00  0.00    +0.000 OA
ATOM     31  H   UNL     1       2.263   2.519  22.656  0.00  0.00    +0.000 HD
ENDBRANCH  27  30
ENDBRANCH  20  22
ENDBRANCH   4  20
TORSDOF 7
ENDMDL
MODEL 4
REMARK VINA RESULT:      -8.4      1.880      2.512
REMARK  Name = 
REMARK  7 active torsions:
REMARK  status: ('A' for Active; 'I' for Inactive)
REMARK    1  A    between atoms: N_1  and  S_2
REMARK    2  A    between atoms: S_2  and  O_5
REMARK    3  A    between atoms: O_5  and  C_6
REMARK    4  A    between atoms: C_9  and  C_10
REMARK    5  A    between atoms: C_13  and  C_14
REMARK    6  A    between atoms: C_14  and  C_16
REMARK    7  A    between atoms: C_21  and  O_22
REMARK                            x       y       z     vdW  Elec       q    Type
REMARK                         _______ _______ _______ _____ _____    ______ ____
ROOT
ATOM      1  C   UNL     1       1.367   8.865  19.604  0.00  0.00    +0.000 A 
ATOM      2  C   UNL     1       1.608   9.272  18.303  0.00  0.00    +0.000 A 
ATOM      3  C   UNL     1       2.307   8.298  17.536  0.00  0.00    +0.000 A 
ATOM      4  C   UNL     1       2.637   7.181  18.280  0.00  0.00    +0.000 A 
ATOM      5  S   UNL     1       2.011   7.299  19.871  0.00  0.00    +0.000 S 
ENDROOT
BRANCH   1   9
ATOM      6  C   UNL     1      -0.720  11.109  22.614  0.00  0.00    +0.000 A 
ATOM      7  C   UNL     1      -0.660   9.720  22.709  0.00  0.00    +0.000 A 
ATOM      8  C   UNL     1       0.033   8.976  21.744  0.00  0.00    +0.000 A 
ATOM      9  C   UNL     1       0.684   9.612  20.674  0.00  0.00    +0.000 A 
ATOM     10  C   UNL     1       0.648  11.012  20.621  0.00  0.00    +0.000 A 
ATOM     11  C   UNL     1      -0.039  11.746  21.585  0.00  0.00    +0.000 A 
ATOM     12  F   UNL     1      -0.011  13.081  21.491  0.00  0.00    +0.000 F 
BRANCH   6  13
ATOM     13  O   UNL     1      -1.458  11.743  23.582  0.00  0.00    +0.000 OA
BRANCH  13  14
ATOM     14  S   UNL     1      -2.769  12.630  23.201  0.00  0.00    +0.000 S 
ATOM     15  O   UNL     1      -3.243  12.306  21.874  0.00  0.00    +0.000 OA
ATOM     16  O   UNL     1      -2.578  13.989  23.650  0.00  0.00    +0.000 OA
BRANCH  14  17
ATOM     17  N   UNL     1      -3.949  12.029  24.239  0.00  0.00    +0.000 NA
ATOM     18  H   UNL     1      -3.503  11.346  24.852  0.00  0.00    +0.000 HD
ATOM     19  H   UNL     1      -4.691  11.606  23.681  0.00  0.00    +0.000 HD
ENDBRANCH  14  17
ENDBRANCH  13  14
ENDBRANCH   6  13
ENDBRANCH   1   9
BRANCH   4  20
ATOM     20  C   UNL     1       3.403   5.997  17.906  0.00  0.00    +0.000 C 
ATOM     21  O   UNL     1       2.885   4.940  17.552  0.00  0.00    +0.000 OA
BRANCH  20  22
ATOM     22  C   UNL     1       4.884   6.038  17.965  0.00  0.00    +0.000 A 
ATOM     23  C   UNL     1       5.612   6.512  16.873  0.00  0.00    +0.000 A 
ATOM     24  F   UNL     1       4.999   6.990  15.782  0.00  0.00    +0.000 F 
ATOM     25  C   UNL     1       7.008   6.530  16.892  0.00  0.00    +0.000 A 
ATOM     26  C   UNL     1       7.701   6.083  18.018  0.00  0.00    +0.000 A 
ATOM     27  C   UNL     1       6.981   5.606  19.108  0.00  0.00    +0.000 A 
ATOM     28  C   UNL     1       5.585   5.560  19.071  0.00  0.00    +0.000 A 
ATOM     29  F   UNL     1       4.937   5.031  20.121  0.00  0.00    +0.000 F 
BRANCH  27  30
ATOM     30  O   UNL     1       7.618   5.171  20.234  0.00  0.00    +0.000 OA
ATOM     31  H   UNL     1       8.064   4.327  20.058  0.00  0.00    +0.000 HD
ENDBRANCH  27  30
ENDBRANCH  20  22
ENDBRANCH   4  20
TORSDOF 7
ENDMDL
MODEL 5
REMARK VINA RESULT:      -8.4      4.734      9.340
REMARK  Name = 
REMARK  7 active torsions:
REMARK  status: ('A' for Active; 'I' for Inactive)
REMARK    1  A    between atoms: N_1  and  S_2
REMARK    2  A    between atoms: S_2  and  O_5
REMARK    3  A    between atoms: O_5  and  C_6
REMARK    4  A    between atoms: C_9  and  C_10
REMARK    5  A    between atoms: C_13  and  C_14
REMARK    6  A    between atoms: C_14  and  C_16
REMARK    7  A    between atoms: C_21  and  O_22
REMARK                            x       y       z     vdW  Elec       q    Type
REMARK                         _______ _______ _______ _____ _____    ______ ____
ROOT
ATOM      1  C   UNL     1       1.291   8.815  19.245  0.00  0.00    +0.000 A 
ATOM      2  C   UNL     1       0.670   9.038  20.462  0.00  0.00    +0.000 A 
ATOM      3  C   UNL     1      -0.257  10.118  20.424  0.00  0.00    +0.000 A 
ATOM      4  C   UNL     1      -0.291  10.738  19.190  0.00  0.00    +0.000 A 
ATOM      5  S   UNL     1       0.738   9.940  18.076  0.00  0.00    +0.000 S 
ENDROOT
BRANCH   1   9
ATOM      6  C   UNL     1       4.361   5.967  18.288  0.00  0.00    +0.000 A 
ATOM      7  C   UNL     1       3.622   5.815  19.460  0.00  0.00    +0.000 A 
ATOM      8  C   UNL     1       2.605   6.727  19.777  0.00  0.00    +0.000 A 
ATOM      9  C   UNL     1       2.306   7.799  18.919  0.00  0.00    +0.000 A 
ATOM     10  C   UNL     1       3.031   7.909  17.725  0.00  0.00    +0.000 A 
ATOM     11  C   UNL     1       4.038   6.997  17.414  0.00  0.00    +0.000 A 
ATOM     12  F   UNL     1       4.672   7.143  16.245  0.00  0.00    +0.000 F 
BRANCH   6  13
ATOM     13  O   UNL     1       5.362   5.050  18.089  0.00  0.00    +0.000 OA
BRANCH  13  14
ATOM     14  S   UNL     1       6.906   5.384  18.483  0.00  0.00    +0.000 S 
ATOM     15  O   UNL     1       7.112   5.260  19.909  0.00  0.00    +0.000 OA
ATOM     16  O   UNL     1       7.359   6.528  17.727  0.00  0.00    +0.000 OA
BRANCH  14  17
ATOM     17  N   UNL     1       7.756   4.098  17.811  0.00  0.00    +0.000 NA
ATOM     18  H   UNL     1       8.466   3.809  18.484  0.00  0.00    +0.000 HD
ATOM     19  H   UNL     1       8.174   4.406  16.932  0.00  0.00    +0.000 HD
ENDBRANCH  14  17
ENDBRANCH  13  14
ENDBRANCH   6  13
ENDBRANCH   1   9
BRANCH   4  20
ATOM     20  C   UNL     1      -1.037  11.912  18.750  0.00  0.00    +0.000 C 
ATOM     21  O   UNL     1      -0.544  13.035  18.663  0.00  0.00    +0.000 OA
BRANCH  20  22
ATOM     22  C   UNL     1      -2.471  11.775  18.400  0.00  0.00    +0.000 A 
ATOM     23  C   UNL     1      -3.453  12.112  19.333  0.00  0.00    +0.000 A 
ATOM     24  F   UNL     1      -3.129  12.616  20.532  0.00  0.00    +0.000 F 
ATOM     25  C   UNL     1      -4.809  11.963  19.038  0.00  0.00    +0.000 A 
ATOM     26  C   UNL     1      -5.207  11.482  17.790  0.00  0.00    +0.000 A 
ATOM     27  C   UNL     1      -4.234  11.141  16.857  0.00  0.00    +0.000 A 
ATOM     28  C   UNL     1      -2.878  11.262  17.168  0.00  0.00    +0.000 A 
ATOM     29  F   UNL     1      -1.976  10.859  16.260  0.00  0.00    +0.000 F 
BRANCH  27  30
ATOM     30  O   UNL     1      -4.580  10.679  15.619  0.00  0.00    +0.000 OA
ATOM     31  H   UNL     1      -5.422  11.075  15.342  0.00  0.00    +0.000 HD
ENDBRANCH  27  30
ENDBRANCH  20  22
ENDBRANCH   4  20
TORSDOF 7
ENDMDL
MODEL 6
REMARK VINA RESULT:      -8.3      1.895      2.368
REMARK  Name = 
REMARK  7 active torsions:
REMARK  status: ('A' for Active; 'I' for Inactive)
REMARK    1  A    between atoms: N_1  and  S_2
REMARK    2  A    between atoms: S_2  and  O_5
REMARK    3  A    between atoms: O_5  and  C_6
REMARK    4  A    between atoms: C_9  and  C_10
REMARK    5  A    between atoms: C_13  and  C_14
REMARK    6  A    between atoms: C_14  and  C_16
REMARK    7  A    between atoms: C_21  and  O_22
REMARK                            x       y       z     vdW  Elec       q    Type
REMARK                         _______ _______ _______ _____ _____    ______ ____
ROOT
ATOM      1  C   UNL     1       1.144   8.869  19.761  0.00  0.00    +0.000 A 
ATOM      2  C   UNL     1       1.376   7.923  20.745  0.00  0.00    +0.000 A 
ATOM      3  C   UNL     1       2.221   6.864  20.311  0.00  0.00    +0.000 A 
ATOM      4  C   UNL     1       2.581   6.988  18.983  0.00  0.00    +0.000 A 
ATOM      5  S   UNL     1       1.958   8.438  18.314  0.00  0.00    +0.000 S 
ENDROOT
BRANCH   1   9
ATOM      6  C   UNL     1      -1.395  12.326  19.975  0.00  0.00    +0.000 A 
ATOM      7  C   UNL     1      -0.662  11.940  21.096  0.00  0.00    +0.000 A 
ATOM      8  C   UNL     1       0.184  10.824  21.036  0.00  0.00    +0.000 A 
ATOM      9  C   UNL     1       0.317  10.084  19.849  0.00  0.00    +0.000 A 
ATOM     10  C   UNL     1      -0.395  10.515  18.721  0.00  0.00    +0.000 A 
ATOM     11  C   UNL     1      -1.232  11.627  18.787  0.00  0.00    +0.000 A 
ATOM     12  F   UNL     1      -1.861  12.001  17.667  0.00  0.00    +0.000 F 
BRANCH   6  13
ATOM     13  O   UNL     1      -2.227  13.403  20.147  0.00  0.00    +0.000 OA
BRANCH  13  14
ATOM     14  S   UNL     1      -3.799  13.206  20.526  0.00  0.00    +0.000 S 
ATOM     15  O   UNL     1      -3.954  12.871  21.924  0.00  0.00    +0.000 OA
ATOM     16  O   UNL     1      -4.460  12.475  19.471  0.00  0.00    +0.000 OA
BRANCH  14  17
ATOM     17  N   UNL     1      -4.421  14.763  20.383  0.00  0.00    +0.000 NA
ATOM     18  H   UNL     1      -4.972  14.954  21.220  0.00  0.00    +0.000 HD
ATOM     19  H   UNL     1      -4.991  14.811  19.538  0.00  0.00    +0.000 HD
ENDBRANCH  14  17
ENDBRANCH  13  14
ENDBRANCH   6  13
ENDBRANCH   1   9
BRANCH   4  20
ATOM     20  C   UNL     1       3.366   6.097  18.136  0.00  0.00    +0.000 C 
ATOM     21  O   UNL     1       4.118   6.496  17.249  0.00  0.00    +0.000 OA
BRANCH  20  22
ATOM     22  C   UNL     1       3.258   4.631  18.321  0.00  0.00    +0.000 A 
ATOM     23  C   UNL     1       2.124   3.952  17.873  0.00  0.00    +0.000 A 
ATOM     24  F   UNL     1       1.143   4.591  17.220  0.00  0.00    +0.000 F 
ATOM     25  C   UNL     1       1.986   2.576  18.064  0.00  0.00    +0.000 A 
ATOM     26  C   UNL     1       2.993   1.851  18.701  0.00  0.00    +0.000 A 
ATOM     27  C   UNL     1       4.124   2.521  19.153  0.00  0.00    +0.000 A 
ATOM     28  C   UNL     1       4.244   3.903  18.988  0.00  0.00    +0.000 A 
ATOM     29  F   UNL     1       5.323   4.515  19.499  0.00  0.00    +0.000 F 
BRANCH  27  30
ATOM     30  O   UNL     1       5.140   1.848  19.769  0.00  0.00    +0.000 OA
ATOM     31  H   UNL     1       5.839   2.469  20.030  0.00  0.00    +0.000 HD
ENDBRANCH  27  30
ENDBRANCH  20  22
ENDBRANCH   4  20
TORSDOF 7
ENDMDL
MODEL 7
REMARK VINA RESULT:      -8.3      1.953      2.879
REMARK  Name = 
REMARK  7 active torsions:
REMARK  status: ('A' for Active; 'I' for Inactive)
REMARK    1  A    between atoms: N_1  and  S_2
REMARK    2  A    between atoms: S_2  and  O_5
REMARK    3  A    between atoms: O_5  and  C_6
REMARK    4  A    between atoms: C_9  and  C_10
REMARK    5  A    between atoms: C_13  and  C_14
REMARK    6  A    between atoms: C_14  and  C_16
REMARK    7  A    between atoms: C_21  and  O_22
REMARK                            x       y       z     vdW  Elec       q    Type
REMARK                         _______ _______ _______ _____ _____    ______ ____
ROOT
ATOM      1  C   UNL     1       1.384   8.914  19.611  0.00  0.00    +0.000 A 
ATOM      2  C   UNL     1       1.692   9.318  18.323  0.00  0.00    +0.000 A 
ATOM      3  C   UNL     1       2.354   8.310  17.567  0.00  0.00    +0.000 A 
ATOM      4  C   UNL     1       2.589   7.167  18.306  0.00  0.00    +0.000 A 
ATOM      5  S   UNL     1       1.921   7.307  19.878  0.00  0.00    +0.000 S 
ENDROOT
BRANCH   1   9
ATOM      6  C   UNL     1      -0.665  11.241  22.583  0.00  0.00    +0.000 A 
ATOM      7  C   UNL     1      -0.593   9.856  22.722  0.00  0.00    +0.000 A 
ATOM      8  C   UNL     1       0.088   9.085  21.769  0.00  0.00    +0.000 A 
ATOM      9  C   UNL     1       0.715   9.691  20.668  0.00  0.00    +0.000 A 
ATOM     10  C   UNL     1       0.668  11.088  20.570  0.00  0.00    +0.000 A 
ATOM     11  C   UNL     1      -0.007  11.849  21.522  0.00  0.00    +0.000 A 
ATOM     12  F   UNL     1       0.011  13.180  21.385  0.00  0.00    +0.000 F 
BRANCH   6  13
ATOM     13  O   UNL     1      -1.390  11.901  23.543  0.00  0.00    +0.000 OA
BRANCH  13  14
ATOM     14  S   UNL     1      -2.898  12.438  23.244  0.00  0.00    +0.000 S 
ATOM     15  O   UNL     1      -3.842  11.872  24.183  0.00  0.00    +0.000 OA
ATOM     16  O   UNL     1      -3.130  12.452  21.819  0.00  0.00    +0.000 OA
BRANCH  14  17
ATOM     17  N   UNL     1      -2.808  14.068  23.651  0.00  0.00    +0.000 NA
ATOM     18  H   UNL     1      -2.598  14.589  22.800  0.00  0.00    +0.000 HD
ATOM     19  H   UNL     1      -2.081  14.189  24.356  0.00  0.00    +0.000 HD
ENDBRANCH  14  17
ENDBRANCH  13  14
ENDBRANCH   6  13
ENDBRANCH   1   9
BRANCH   4  20
ATOM     20  C   UNL     1       3.292   5.942  17.942  0.00  0.00    +0.000 C 
ATOM     21  O   UNL     1       2.723   4.934  17.525  0.00  0.00    +0.000 OA
BRANCH  20  22
ATOM     22  C   UNL     1       4.765   5.874  18.089  0.00  0.00    +0.000 A 
ATOM     23  C   UNL     1       5.327   5.328  19.244  0.00  0.00    +0.000 A 
ATOM     24  F   UNL     1       4.561   4.805  20.210  0.00  0.00    +0.000 F 
ATOM     25  C   UNL     1       6.711   5.282  19.418  0.00  0.00    +0.000 A 
ATOM     26  C   UNL     1       7.561   5.775  18.427  0.00  0.00    +0.000 A 
ATOM     27  C   UNL     1       7.008   6.323  17.276  0.00  0.00    +0.000 A 
ATOM     28  C   UNL     1       5.621   6.396  17.119  0.00  0.00    +0.000 A 
ATOM     29  F   UNL     1       5.134   6.993  16.021  0.00  0.00    +0.000 F 
BRANCH  27  30
ATOM     30  O   UNL     1       7.802   6.804  16.275  0.00  0.00    +0.000 OA
ATOM     31  H   UNL     1       7.701   6.257  15.480  0.00  0.00    +0.000 HD
ENDBRANCH  27  30
ENDBRANCH  20  22
ENDBRANCH   4  20
TORSDOF 7
ENDMDL
MODEL 8
REMARK VINA RESULT:      -8.2      2.288      3.228
REMARK  Name = 
REMARK  7 active torsions:
REMARK  status: ('A' for Active; 'I' for Inactive)
REMARK    1  A    between atoms: N_1  and  S_2
REMARK    2  A    between atoms: S_2  and  O_5
REMARK    3  A    between atoms: O_5  and  C_6
REMARK    4  A    between atoms: C_9  and  C_10
REMARK    5  A    between atoms: C_13  and  C_14
REMARK    6  A    between atoms: C_14  and  C_16
REMARK    7  A    between atoms: C_21  and  O_22
REMARK                            x       y       z     vdW  Elec       q    Type
REMARK                         _______ _______ _______ _____ _____    ______ ____
ROOT
ATOM      1  C   UNL     1       1.779   8.160  19.479  0.00  0.00    +0.000 A 
ATOM      2  C   UNL     1       2.378   8.303  18.240  0.00  0.00    +0.000 A 
ATOM      3  C   UNL     1       3.136   7.162  17.854  0.00  0.00    +0.000 A 
ATOM      4  C   UNL     1       3.149   6.184  18.830  0.00  0.00    +0.000 A 
ATOM      5  S   UNL     1       2.164   6.634  20.158  0.00  0.00    +0.000 S 
ENDROOT
BRANCH   1   9
ATOM      6  C   UNL     1      -0.549  11.040  21.656  0.00  0.00    +0.000 A 
ATOM      7  C   UNL     1      -0.462  11.132  20.268  0.00  0.00    +0.000 A 
ATOM      8  C   UNL     1       0.279  10.190  19.542  0.00  0.00    +0.000 A 
ATOM      9  C   UNL     1       0.937   9.134  20.196  0.00  0.00    +0.000 A 
ATOM     10  C   UNL     1       0.801   9.034  21.587  0.00  0.00    +0.000 A 
ATOM     11  C   UNL     1       0.059   9.972  22.302  0.00  0.00    +0.000 A 
ATOM     12  F   UNL     1      -0.053   9.802  23.624  0.00  0.00    +0.000 F 
BRANCH   6  13
ATOM     13  O   UNL     1      -1.261  12.034  22.278  0.00  0.00    +0.000 OA
BRANCH  13  14
ATOM     14  S   UNL     1      -0.731  13.574  22.290  0.00  0.00    +0.000 S 
ATOM     15  O   UNL     1      -1.564  14.413  21.458  0.00  0.00    +0.000 OA
ATOM     16  O   UNL     1       0.711  13.586  22.213  0.00  0.00    +0.000 OA
BRANCH  14  17
ATOM     17  N   UNL     1      -1.051  14.073  23.864  0.00  0.00    +0.000 NA
ATOM     18  H   UNL     1      -0.745  13.331  24.493  0.00  0.00    +0.000 HD
ATOM     19  H   UNL     1      -2.052  14.253  23.953  0.00  0.00    +0.000 HD
ENDBRANCH  14  17
ENDBRANCH  13  14
ENDBRANCH   6  13
ENDBRANCH   1   9
BRANCH   4  20
ATOM     20  C   UNL     1       3.852   4.907  18.870  0.00  0.00    +0.000 C 
ATOM     21  O   UNL     1       3.484   3.953  19.554  0.00  0.00    +0.000 OA
BRANCH  20  22
ATOM     22  C   UNL     1       5.085   4.727  18.068  0.00  0.00    +0.000 A 
ATOM     23  C   UNL     1       6.315   5.148  18.575  0.00  0.00    +0.000 A 
ATOM     24  F   UNL     1       6.419   5.666  19.806  0.00  0.00    +0.000 F 
ATOM     25  C   UNL     1       7.485   5.018  17.825  0.00  0.00    +0.000 A 
ATOM     26  C   UNL     1       7.445   4.448  16.552  0.00  0.00    +0.000 A 
ATOM     27  C   UNL     1       6.222   4.029  16.040  0.00  0.00    +0.000 A 
ATOM     28  C   UNL     1       5.049   4.190  16.781  0.00  0.00    +0.000 A 
ATOM     29  F   UNL     1       3.884   3.831  16.218  0.00  0.00    +0.000 F 
BRANCH  27  30
ATOM     30  O   UNL     1       6.139   3.454  14.804  0.00  0.00    +0.000 OA
ATOM     31  H   UNL     1       6.005   2.497  14.893  0.00  0.00    +0.000 HD
ENDBRANCH  27  30
ENDBRANCH  20  22
ENDBRANCH   4  20
TORSDOF 7
ENDMDL
MODEL 9
REMARK VINA RESULT:      -8.2      2.167      2.507
REMARK  Name = 
REMARK  7 active torsions:
REMARK  status: ('A' for Active; 'I' for Inactive)
REMARK    1  A    between atoms: N_1  and  S_2
REMARK    2  A    between atoms: S_2  and  O_5
REMARK    3  A    between atoms: O_5  and  C_6
REMARK    4  A    between atoms: C_9  and  C_10
REMARK    5  A    between atoms: C_13  and  C_14
REMARK    6  A    between atoms: C_14  and  C_16
REMARK    7  A    between atoms: C_21  and  O_22
REMARK                            x       y       z     vdW  Elec       q    Type
REMARK                         _______ _______ _______ _____ _____    ______ ____
ROOT
ATOM      1  C   UNL     1       1.206   9.253  19.488  0.00  0.00    +0.000 A 
ATOM      2  C   UNL     1       1.659   9.127  18.186  0.00  0.00    +0.000 A 
ATOM      3  C   UNL     1       2.359   7.910  17.956  0.00  0.00    +0.000 A 
ATOM      4  C   UNL     1       2.476   7.145  19.101  0.00  0.00    +0.000 A 
ATOM      5  S   UNL     1       1.655   7.880  20.413  0.00  0.00    +0.000 S 
ENDROOT
BRANCH   1   9
ATOM      6  C   UNL     1      -0.851  12.543  21.330  0.00  0.00    +0.000 A 
ATOM      7  C   UNL     1      -0.550  12.594  19.970  0.00  0.00    +0.000 A 
ATOM      8  C   UNL     1       0.105  11.520  19.352  0.00  0.00    +0.000 A 
ATOM      9  C   UNL     1       0.460  10.374  20.083  0.00  0.00    +0.000 A 
ATOM     10  C   UNL     1       0.109  10.325  21.439  0.00  0.00    +0.000 A 
ATOM     11  C   UNL     1      -0.546  11.394  22.047  0.00  0.00    +0.000 A 
ATOM     12  F   UNL     1      -0.877  11.271  23.338  0.00  0.00    +0.000 F 
BRANCH   6  13
ATOM     13  O   UNL     1      -1.453  13.660  21.851  0.00  0.00    +0.000 OA
BRANCH  13  14
ATOM     14  S   UNL     1      -0.585  14.821  22.593  0.00  0.00    +0.000 S 
ATOM     15  O   UNL     1      -1.091  16.134  22.261  0.00  0.00    +0.000 OA
ATOM     16  O   UNL     1       0.818  14.487  22.529  0.00  0.00    +0.000 OA
BRANCH  14  17
ATOM     17  N   UNL     1      -0.974  14.607  24.216  0.00  0.00    +0.000 NA
ATOM     18  H   UNL     1      -1.610  15.357  24.484  0.00  0.00    +0.000 HD
ATOM     19  H   UNL     1      -0.114  14.629  24.764  0.00  0.00    +0.000 HD
ENDBRANCH  14  17
ENDBRANCH  13  14
ENDBRANCH   6  13
ENDBRANCH   1   9
BRANCH   4  20
ATOM     20  C   UNL     1       3.169   5.880  19.318  0.00  0.00    +0.000 C 
ATOM     21  O   UNL     1       4.394   5.774  19.336  0.00  0.00    +0.000 OA
BRANCH  20  22
ATOM     22  C   UNL     1       2.381   4.640  19.512  0.00  0.00    +0.000 A 
ATOM     23  C   UNL     1       1.806   3.999  18.414  0.00  0.00    +0.000 A 
ATOM     24  F   UNL     1       1.997   4.450  17.167  0.00  0.00    +0.000 F 
ATOM     25  C   UNL     1       1.033   2.848  18.576  0.00  0.00    +0.000 A 
ATOM     26  C   UNL     1       0.833   2.309  19.847  0.00  0.00    +0.000 A 
ATOM     27  C   UNL     1       1.401   2.944  20.946  0.00  0.00    +0.000 A 
ATOM     28  C   UNL     1       2.147   4.114  20.783  0.00  0.00    +0.000 A 
ATOM     29  F   UNL     1       2.619   4.727  21.879  0.00  0.00    +0.000 F 
BRANCH  27  30
ATOM     30  O   UNL     1       1.242   2.443  22.206  0.00  0.00    +0.000 OA
ATOM     31  H   UNL     1       0.666   1.662  22.181  0.00  0.00    +0.000 HD
ENDBRANCH  27  30
ENDBRANCH  20  22
ENDBRANCH   4  20
TORSDOF 7
ENDMDL
