MODEL 1
REMARK VINA RESULT:      -6.8      0.000      0.000
REMARK  Name = 
REMARK  9 active torsions:
REMARK  status: ('A' for Active; 'I' for Inactive)
REMARK    1  A    between atoms: C_1  and  O_2
REMARK    2  A    between atoms: O_2  and  C_3
REMARK    3  A    between atoms: C_8  and  N_9
REMARK    4  A    between atoms: C_11  and  C_12
REMARK    5  A    between atoms: C_14  and  C_15
REMARK    6  A    between atoms: C_14  and  C_16
REMARK    7  A    between atoms: C_18  and  C_19
REMARK    8  A    between atoms: C_18  and  C_20
REMARK    9  A    between atoms: C_23  and  C_24
REMARK                            x       y       z     vdW  Elec       q    Type
REMARK                         _______ _______ _______ _____ _____    ______ ____
ROOT
ATOM      1  N   UNL     1      -0.443  12.549  20.638  0.00  0.00    +0.000 N 
ATOM      2  N   UNL     1       0.558  13.454  20.851  0.00  0.00    +0.000 NA
ATOM      3  C   UNL     1       0.512  14.238  19.742  0.00  0.00    +0.000 A 
ATOM      4  C   UNL     1      -0.806  14.268  19.265  0.00  0.00    +0.000 A 
ATOM      5  C   UNL     1      -1.397  13.117  19.787  0.00  0.00    +0.000 A 
ENDROOT
BRANCH   3   6
ATOM      6  C   UNL     1       1.716  14.625  18.992  0.00  0.00    +0.000 C 
ATOM      7  C   UNL     1       2.823  15.038  18.304  0.00  0.00    +0.000 C 
ATOM      8  C   UNL     1       3.364  16.565  18.041  0.00  0.00    +0.000 C 
ATOM      9  C   UNL     1       3.294  16.949  16.558  0.00  0.00    +0.000 C 
ATOM     10  C   UNL     1       4.752  16.743  18.657  0.00  0.00    +0.000 C 
ATOM     11  O   UNL     1       2.682  17.706  18.662  0.00  0.00    +0.000 OA
ATOM     12  C   UNL     1       1.426  17.471  19.247  0.00  0.00    +0.000 C 
ATOM     13  C   UNL     1       1.494  17.802  20.755  0.00  0.00    +0.000 C 
ATOM     14  C   UNL     1       0.295  18.172  18.492  0.00  0.00    +0.000 C 
ATOM     15  C   UNL     1       1.146  16.011  19.118  0.00  0.00    +0.000 C 
ENDBRANCH   3   6
BRANCH   5  16
ATOM     16  C   UNL     1      -2.694  12.511  19.490  0.00  0.00    +0.000 A 
ATOM     17  C   UNL     1      -2.814  11.627  18.413  0.00  0.00    +0.000 A 
ATOM     18  C   UNL     1      -4.049  11.069  18.079  0.00  0.00    +0.000 A 
ATOM     19  C   UNL     1      -5.170  11.376  18.842  0.00  0.00    +0.000 A 
ATOM     20 CL   UNL     1      -6.677  10.640  18.469  0.00  0.00    +0.000 Cl
ATOM     21  C   UNL     1      -5.077  12.268  19.911  0.00  0.00    +0.000 A 
ATOM     22  C   UNL     1      -3.845  12.844  20.228  0.00  0.00    +0.000 A 
ENDBRANCH   5  16
BRANCH   1  28
ATOM     23  C   UNL     1      -0.771  10.848  22.457  0.00  0.00    +0.000 A 
ATOM     24  C   UNL     1      -0.693   9.512  22.879  0.00  0.00    +0.000 A 
ATOM     25  C   UNL     1      -0.134   8.511  22.101  0.00  0.00    +0.000 A 
ATOM     26  C   UNL     1       0.347   8.833  20.847  0.00  0.00    +0.000 A 
ATOM     27  C   UNL     1       0.199  10.146  20.365  0.00  0.00    +0.000 A 
ATOM     28  C   UNL     1      -0.390  11.191  21.147  0.00  0.00    +0.000 A 
BRANCH  23  30
ATOM     29  C   UNL     1      -2.574  11.993  23.479  0.00  0.00    +0.000 C 
ATOM     30  O   UNL     1      -1.156  11.750  23.413  0.00  0.00    +0.000 OA
ENDBRANCH  23  30
ENDBRANCH   1  28
TORSDOF 4
ENDMDL
MODEL 2
REMARK VINA RESULT:      -6.7      0.976      1.702
REMARK  Name = 
REMARK  9 active torsions:
REMARK  status: ('A' for Active; 'I' for Inactive)
REMARK    1  A    between atoms: C_1  and  O_2
REMARK    2  A    between atoms: O_2  and  C_3
REMARK    3  A    between atoms: C_8  and  N_9
REMARK    4  A    between atoms: C_11  and  C_12
REMARK    5  A    between atoms: C_14  and  C_15
REMARK    6  A    between atoms: C_14  and  C_16
REMARK    7  A    between atoms: C_18  and  C_19
REMARK    8  A    between atoms: C_18  and  C_20
REMARK    9  A    between atoms: C_23  and  C_24
REMARK                            x       y       z     vdW  Elec       q    Type
REMARK                         _______ _______ _______ _____ _____    ______ ____
ROOT
ATOM      1  N   UNL     1      -0.460  12.652  20.783  0.00  0.00    +0.000 N 
ATOM      2  N   UNL     1       0.557  13.548  20.952  0.00  0.00    +0.000 NA
ATOM      3  C   UNL     1       0.488  14.314  19.831  0.00  0.00    +0.000 A 
ATOM      4  C   UNL     1      -0.843  14.351  19.391  0.00  0.00    +0.000 A 
ATOM      5  C   UNL     1      -1.431  13.216  19.949  0.00  0.00    +0.000 A 
ENDROOT
BRANCH   3   6
ATOM      6  C   UNL     1       1.674  14.674  19.042  0.00  0.00    +0.000 C 
ATOM      7  C   UNL     1       2.767  15.062  18.317  0.00  0.00    +0.000 C 
ATOM      8  C   UNL     1       3.335  16.577  18.038  0.00  0.00    +0.000 C 
ATOM      9  C   UNL     1       3.223  16.966  16.559  0.00  0.00    +0.000 C 
ATOM     10  C   UNL     1       4.747  16.720  18.606  0.00  0.00    +0.000 C 
ATOM     11  O   UNL     1       2.702  17.732  18.684  0.00  0.00    +0.000 OA
ATOM     12  C   UNL     1       1.461  17.525  19.311  0.00  0.00    +0.000 C 
ATOM     13  C   UNL     1       1.589  17.851  20.817  0.00  0.00    +0.000 C 
ATOM     14  C   UNL     1       0.322  18.255  18.597  0.00  0.00    +0.000 C 
ATOM     15  C   UNL     1       1.142  16.073  19.189  0.00  0.00    +0.000 C 
ENDBRANCH   3   6
BRANCH   5  16
ATOM     16  C   UNL     1      -2.743  12.620  19.699  0.00  0.00    +0.000 A 
ATOM     17  C   UNL     1      -2.935  11.820  18.568  0.00  0.00    +0.000 A 
ATOM     18  C   UNL     1      -4.187  11.275  18.281  0.00  0.00    +0.000 A 
ATOM     19  C   UNL     1      -5.252  11.511  19.144  0.00  0.00    +0.000 A 
ATOM     20 CL   UNL     1      -6.778  10.788  18.822  0.00  0.00    +0.000 Cl
ATOM     21  C   UNL     1      -5.088  12.319  20.269  0.00  0.00    +0.000 A 
ATOM     22  C   UNL     1      -3.840  12.882  20.541  0.00  0.00    +0.000 A 
ENDBRANCH   5  16
BRANCH   1  28
ATOM     23  C   UNL     1      -0.153  10.174  20.514  0.00  0.00    +0.000 A 
ATOM     24  C   UNL     1      -0.115   8.898  21.098  0.00  0.00    +0.000 A 
ATOM     25  C   UNL     1      -0.443   8.671  22.425  0.00  0.00    +0.000 A 
ATOM     26  C   UNL     1      -0.799   9.745  23.216  0.00  0.00    +0.000 A 
ATOM     27  C   UNL     1      -0.758  11.045  22.678  0.00  0.00    +0.000 A 
ATOM     28  C   UNL     1      -0.407  11.302  21.314  0.00  0.00    +0.000 A 
BRANCH  23  30
ATOM     29  C   UNL     1       1.334  10.466  18.694  0.00  0.00    +0.000 C 
ATOM     30  O   UNL     1      -0.006  10.206  19.152  0.00  0.00    +0.000 OA
ENDBRANCH  23  30
ENDBRANCH   1  28
TORSDOF 4
ENDMDL
MODEL 3
REMARK VINA RESULT:      -6.6      3.079      6.738
REMARK  Name = 
REMARK  9 active torsions:
REMARK  status: ('A' for Active; 'I' for Inactive)
REMARK    1  A    between atoms: C_1  and  O_2
REMARK    2  A    between atoms: O_2  and  C_3
REMARK    3  A    between atoms: C_8  and  N_9
REMARK    4  A    between atoms: C_11  and  C_12
REMARK    5  A    between atoms: C_14  and  C_15
REMARK    6  A    between atoms: C_14  and  C_16
REMARK    7  A    between atoms: C_18  and  C_19
REMARK    8  A    between atoms: C_18  and  C_20
REMARK    9  A    between atoms: C_23  and  C_24
REMARK                            x       y       z     vdW  Elec       q    Type
REMARK                         _______ _______ _______ _____ _____    ______ ____
ROOT
ATOM      1  N   UNL     1      -2.400  12.384  20.019  0.00  0.00    +0.000 N 
ATOM      2  N   UNL     1      -2.914  12.737  21.235  0.00  0.00    +0.000 NA
ATOM      3  C   UNL     1      -4.183  13.121  20.939  0.00  0.00    +0.000 A 
ATOM      4  C   UNL     1      -4.620  12.405  19.815  0.00  0.00    +0.000 A 
ATOM      5  C   UNL     1      -3.448  12.001  19.176  0.00  0.00    +0.000 A 
ENDROOT
BRANCH   3   6
ATOM      6  C   UNL     1      -4.788  14.349  21.475  0.00  0.00    +0.000 C 
ATOM      7  C   UNL     1      -5.373  15.461  22.014  0.00  0.00    +0.000 C 
ATOM      8  C   UNL     1      -6.336  15.581  23.338  0.00  0.00    +0.000 C 
ATOM      9  C   UNL     1      -7.766  15.996  22.970  0.00  0.00    +0.000 C 
ATOM     10  C   UNL     1      -5.682  16.487  24.381  0.00  0.00    +0.000 C 
ATOM     11  O   UNL     1      -6.589  14.402  24.175  0.00  0.00    +0.000 OA
ATOM     12  C   UNL     1      -6.212  13.149  23.662  0.00  0.00    +0.000 C 
ATOM     13  C   UNL     1      -5.159  12.510  24.595  0.00  0.00    +0.000 C 
ATOM     14  C   UNL     1      -7.420  12.260  23.361  0.00  0.00    +0.000 C 
ATOM     15  C   UNL     1      -5.558  13.392  22.343  0.00  0.00    +0.000 C 
ENDBRANCH   3   6
BRANCH   5  16
ATOM     16  C   UNL     1      -3.260  11.387  17.862  0.00  0.00    +0.000 A 
ATOM     17  C   UNL     1      -4.135  11.703  16.818  0.00  0.00    +0.000 A 
ATOM     18  C   UNL     1      -4.006  11.098  15.568  0.00  0.00    +0.000 A 
ATOM     19  C   UNL     1      -2.979  10.187  15.349  0.00  0.00    +0.000 A 
ATOM     20 CL   UNL     1      -2.783   9.489  13.790  0.00  0.00    +0.000 Cl
ATOM     21  C   UNL     1      -2.105   9.843  16.380  0.00  0.00    +0.000 A 
ATOM     22  C   UNL     1      -2.250  10.432  17.637  0.00  0.00    +0.000 A 
ENDBRANCH   5  16
BRANCH   1  28
ATOM     23  C   UNL     1       0.016  11.755  20.286  0.00  0.00    +0.000 A 
ATOM     24  C   UNL     1       1.356  11.954  19.920  0.00  0.00    +0.000 A 
ATOM     25  C   UNL     1       1.760  12.979  19.080  0.00  0.00    +0.000 A 
ATOM     26  C   UNL     1       0.803  13.829  18.560  0.00  0.00    +0.000 A 
ATOM     27  C   UNL     1      -0.556  13.596  18.840  0.00  0.00    +0.000 A 
ATOM     28  C   UNL     1      -0.993  12.533  19.693  0.00  0.00    +0.000 A 
BRANCH  23  30
ATOM     29  C   UNL     1      -0.213   9.464  20.843  0.00  0.00    +0.000 C 
ATOM     30  O   UNL     1      -0.195  10.837  21.280  0.00  0.00    +0.000 OA
ENDBRANCH  23  30
ENDBRANCH   1  28
TORSDOF 4
ENDMDL
MODEL 4
REMARK VINA RESULT:      -6.5      1.398      2.039
REMARK  Name = 
REMARK  9 active torsions:
REMARK  status: ('A' for Active; 'I' for Inactive)
REMARK    1  A    between atoms: C_1  and  O_2
REMARK    2  A    between atoms: O_2  and  C_3
REMARK    3  A    between atoms: C_8  and  N_9
REMARK    4  A    between atoms: C_11  and  C_12
REMARK    5  A    between atoms: C_14  and  C_15
REMARK    6  A    between atoms: C_14  and  C_16
REMARK    7  A    between atoms: C_18  and  C_19
REMARK    8  A    between atoms: C_18  and  C_20
REMARK    9  A    between atoms: C_23  and  C_24
REMARK                            x       y       z     vdW  Elec       q    Type
REMARK                         _______ _______ _______ _____ _____    ______ ____
ROOT
ATOM      1  N   UNL     1      -0.034  12.638  21.390  0.00  0.00    +0.000 N 
ATOM      2  N   UNL     1       1.135  13.344  21.403  0.00  0.00    +0.000 NA
ATOM      3  C   UNL     1       0.908  14.342  20.509  0.00  0.00    +0.000 A 
ATOM      4  C   UNL     1      -0.462  14.638  20.502  0.00  0.00    +0.000 A 
ATOM      5  C   UNL     1      -1.075  13.488  20.999  0.00  0.00    +0.000 A 
ENDROOT
BRANCH   3   6
ATOM      6  C   UNL     1       1.884  14.722  19.478  0.00  0.00    +0.000 C 
ATOM      7  C   UNL     1       2.787  15.127  18.533  0.00  0.00    +0.000 C 
ATOM      8  C   UNL     1       3.342  16.640  18.220  0.00  0.00    +0.000 C 
ATOM      9  C   UNL     1       2.894  17.139  16.840  0.00  0.00    +0.000 C 
ATOM     10  C   UNL     1       4.854  16.698  18.434  0.00  0.00    +0.000 C 
ATOM     11  O   UNL     1       2.939  17.764  19.072  0.00  0.00    +0.000 OA
ATOM     12  C   UNL     1       1.878  17.551  19.970  0.00  0.00    +0.000 C 
ATOM     13  C   UNL     1       2.382  17.763  21.415  0.00  0.00    +0.000 C 
ATOM     14  C   UNL     1       0.637  18.365  19.602  0.00  0.00    +0.000 C 
ATOM     15  C   UNL     1       1.471  16.122  19.838  0.00  0.00    +0.000 C 
ENDBRANCH   3   6
BRANCH   5  16
ATOM     16  C   UNL     1      -2.491  13.127  21.052  0.00  0.00    +0.000 A 
ATOM     17  C   UNL     1      -3.142  12.709  19.887  0.00  0.00    +0.000 A 
ATOM     18  C   UNL     1      -4.503  12.402  19.898  0.00  0.00    +0.000 A 
ATOM     19  C   UNL     1      -5.216  12.488  21.089  0.00  0.00    +0.000 A 
ATOM     20 CL   UNL     1      -6.877  12.048  21.116  0.00  0.00    +0.000 Cl
ATOM     21  C   UNL     1      -4.591  12.917  22.260  0.00  0.00    +0.000 A 
ATOM     22  C   UNL     1      -3.234  13.247  22.240  0.00  0.00    +0.000 A 
ENDBRANCH   5  16
BRANCH   1  28
ATOM     23  C   UNL     1       0.198  10.253  20.639  0.00  0.00    +0.000 A 
ATOM     24  C   UNL     1       0.129   8.885  20.946  0.00  0.00    +0.000 A 
ATOM     25  C   UNL     1      -0.333   8.413  22.164  0.00  0.00    +0.000 A 
ATOM     26  C   UNL     1      -0.719   9.323  23.128  0.00  0.00    +0.000 A 
ATOM     27  C   UNL     1      -0.575  10.700  22.877  0.00  0.00    +0.000 A 
ATOM     28  C   UNL     1      -0.086  11.207  21.631  0.00  0.00    +0.000 A 
BRANCH  23  30
ATOM     29  C   UNL     1      -0.620  10.348  18.419  0.00  0.00    +0.000 C 
ATOM     30  O   UNL     1       0.475  10.553  19.331  0.00  0.00    +0.000 OA
ENDBRANCH  23  30
ENDBRANCH   1  28
TORSDOF 4
ENDMDL
MODEL 5
REMARK VINA RESULT:      -6.5      1.804      2.442
REMARK  Name = 
REMARK  9 active torsions:
REMARK  status: ('A' for Active; 'I' for Inactive)
REMARK    1  A    between atoms: C_1  and  O_2
REMARK    2  A    between atoms: O_2  and  C_3
REMARK    3  A    between atoms: C_8  and  N_9
REMARK    4  A    between atoms: C_11  and  C_12
REMARK    5  A    between atoms: C_14  and  C_15
REMARK    6  A    between atoms: C_14  and  C_16
REMARK    7  A    between atoms: C_18  and  C_19
REMARK    8  A    between atoms: C_18  and  C_20
REMARK    9  A    between atoms: C_23  and  C_24
REMARK                            x       y       z     vdW  Elec       q    Type
REMARK                         _______ _______ _______ _____ _____    ______ ____
ROOT
ATOM      1  N   UNL     1       0.833  12.274  20.435  0.00  0.00    +0.000 N 
ATOM      2  N   UNL     1       1.874  13.057  20.846  0.00  0.00    +0.000 NA
ATOM      3  C   UNL     1       1.950  14.008  19.878  0.00  0.00    +0.000 A 
ATOM      4  C   UNL     1       0.670  14.210  19.341  0.00  0.00    +0.000 A 
ATOM      5  C   UNL     1      -0.025  13.037  19.637  0.00  0.00    +0.000 A 
ENDROOT
BRANCH   3   6
ATOM      6  C   UNL     1       3.222  14.419  19.267  0.00  0.00    +0.000 C 
ATOM      7  C   UNL     1       4.419  14.827  18.745  0.00  0.00    +0.000 C 
ATOM      8  C   UNL     1       5.621  15.682  19.466  0.00  0.00    +0.000 C 
ATOM      9  C   UNL     1       5.793  17.069  18.835  0.00  0.00    +0.000 C 
ATOM     10  C   UNL     1       6.906  14.856  19.497  0.00  0.00    +0.000 C 
ATOM     11  O   UNL     1       5.528  16.028  20.889  0.00  0.00    +0.000 OA
ATOM     12  C   UNL     1       4.287  15.843  21.522  0.00  0.00    +0.000 C 
ATOM     13  C   UNL     1       4.445  14.822  22.671  0.00  0.00    +0.000 C 
ATOM     14  C   UNL     1       3.644  17.169  21.933  0.00  0.00    +0.000 C 
ATOM     15  C   UNL     1       3.362  15.248  20.514  0.00  0.00    +0.000 C 
ENDBRANCH   3   6
BRANCH   5  16
ATOM     16  C   UNL     1      -1.336  12.582  19.176  0.00  0.00    +0.000 A 
ATOM     17  C   UNL     1      -2.462  12.792  19.978  0.00  0.00    +0.000 A 
ATOM     18  C   UNL     1      -3.718  12.329  19.584  0.00  0.00    +0.000 A 
ATOM     19  C   UNL     1      -3.856  11.673  18.366  0.00  0.00    +0.000 A 
ATOM     20 CL   UNL     1      -5.414  11.158  17.853  0.00  0.00    +0.000 Cl
ATOM     21  C   UNL     1      -2.744  11.438  17.557  0.00  0.00    +0.000 A 
ATOM     22  C   UNL     1      -1.485  11.881  17.965  0.00  0.00    +0.000 A 
ENDBRANCH   5  16
BRANCH   1  28
ATOM     23  C   UNL     1       0.271  10.335  21.929  0.00  0.00    +0.000 A 
ATOM     24  C   UNL     1       0.237   8.947  22.133  0.00  0.00    +0.000 A 
ATOM     25  C   UNL     1       0.790   8.044  21.240  0.00  0.00    +0.000 A 
ATOM     26  C   UNL     1       1.380   8.524  20.088  0.00  0.00    +0.000 A 
ATOM     27  C   UNL     1       1.348   9.904  19.817  0.00  0.00    +0.000 A 
ATOM     28  C   UNL     1       0.767  10.852  20.720  0.00  0.00    +0.000 A 
BRANCH  23  30
ATOM     29  C   UNL     1      -1.552  11.291  23.101  0.00  0.00    +0.000 C 
ATOM     30  O   UNL     1      -0.128  11.099  22.993  0.00  0.00    +0.000 OA
ENDBRANCH  23  30
ENDBRANCH   1  28
TORSDOF 4
ENDMDL
MODEL 6
REMARK VINA RESULT:      -6.4      3.004      6.793
REMARK  Name = 
REMARK  9 active torsions:
REMARK  status: ('A' for Active; 'I' for Inactive)
REMARK    1  A    between atoms: C_1  and  O_2
REMARK    2  A    between atoms: O_2  and  C_3
REMARK    3  A    between atoms: C_8  and  N_9
REMARK    4  A    between atoms: C_11  and  C_12
REMARK    5  A    between atoms: C_14  and  C_15
REMARK    6  A    between atoms: C_14  and  C_16
REMARK    7  A    between atoms: C_18  and  C_19
REMARK    8  A    between atoms: C_18  and  C_20
REMARK    9  A    between atoms: C_23  and  C_24
REMARK                            x       y       z     vdW  Elec       q    Type
REMARK                         _______ _______ _______ _____ _____    ______ ____
ROOT
ATOM      1  N   UNL     1       0.298  12.006  21.563  0.00  0.00    +0.000 N 
ATOM      2  N   UNL     1      -0.261  12.588  22.665  0.00  0.00    +0.000 NA
ATOM      3  C   UNL     1      -1.213  11.694  23.041  0.00  0.00    +0.000 A 
ATOM      4  C   UNL     1      -0.799  10.408  22.664  0.00  0.00    +0.000 A 
ATOM      5  C   UNL     1       0.125  10.621  21.641  0.00  0.00    +0.000 A 
ENDROOT
BRANCH   3   6
ATOM      6  C   UNL     1      -2.580  12.095  23.402  0.00  0.00    +0.000 C 
ATOM      7  C   UNL     1      -3.856  12.494  23.690  0.00  0.00    +0.000 C 
ATOM      8  C   UNL     1      -4.891  13.380  22.774  0.00  0.00    +0.000 C 
ATOM      9  C   UNL     1      -5.184  14.748  23.403  0.00  0.00    +0.000 C 
ATOM     10  C   UNL     1      -6.146  12.565  22.464  0.00  0.00    +0.000 C 
ATOM     11  O   UNL     1      -4.519  13.769  21.409  0.00  0.00    +0.000 OA
ATOM     12  C   UNL     1      -3.178  13.596  21.028  0.00  0.00    +0.000 C 
ATOM     13  C   UNL     1      -3.107  12.613  19.838  0.00  0.00    +0.000 C 
ATOM     14  C   UNL     1      -2.465  14.930  20.795  0.00  0.00    +0.000 C 
ATOM     15  C   UNL     1      -2.471  12.963  22.179  0.00  0.00    +0.000 C 
ENDBRANCH   3   6
BRANCH   5  16
ATOM     16  C   UNL     1       0.755   9.663  20.732  0.00  0.00    +0.000 A 
ATOM     17  C   UNL     1       1.254   8.458  21.235  0.00  0.00    +0.000 A 
ATOM     18  C   UNL     1       1.899   7.546  20.400  0.00  0.00    +0.000 A 
ATOM     19  C   UNL     1       2.027   7.829  19.044  0.00  0.00    +0.000 A 
ATOM     20 CL   UNL     1       2.767   6.677  18.004  0.00  0.00    +0.000 Cl
ATOM     21  C   UNL     1       1.551   9.032  18.523  0.00  0.00    +0.000 A 
ATOM     22  C   UNL     1       0.927   9.953  19.366  0.00  0.00    +0.000 A 
ENDBRANCH   5  16
BRANCH   1  28
ATOM     23  C   UNL     1       2.125  13.378  20.518  0.00  0.00    +0.000 A 
ATOM     24  C   UNL     1       2.595  14.113  19.419  0.00  0.00    +0.000 A 
ATOM     25  C   UNL     1       1.810  14.392  18.312  0.00  0.00    +0.000 A 
ATOM     26  C   UNL     1       0.517  13.908  18.274  0.00  0.00    +0.000 A 
ATOM     27  C   UNL     1       0.051  13.094  19.322  0.00  0.00    +0.000 A 
ATOM     28  C   UNL     1       0.852  12.782  20.467  0.00  0.00    +0.000 A 
BRANCH  23  30
ATOM     29  C   UNL     1       3.790  14.522  21.752  0.00  0.00    +0.000 C 
ATOM     30  O   UNL     1       2.944  13.365  21.616  0.00  0.00    +0.000 OA
ENDBRANCH  23  30
ENDBRANCH   1  28
TORSDOF 4
ENDMDL
MODEL 7
REMARK VINA RESULT:      -6.4      3.530      7.307
REMARK  Name = 
REMARK  9 active torsions:
REMARK  status: ('A' for Active; 'I' for Inactive)
REMARK    1  A    between atoms: C_1  and  O_2
REMARK    2  A    between atoms: O_2  and  C_3
REMARK    3  A    between atoms: C_8  and  N_9
REMARK    4  A    between atoms: C_11  and  C_12
REMARK    5  A    between atoms: C_14  and  C_15
REMARK    6  A    between atoms: C_14  and  C_16
REMARK    7  A    between atoms: C_18  and  C_19
REMARK    8  A    between atoms: C_18  and  C_20
REMARK    9  A    between atoms: C_23  and  C_24
REMARK                            x       y       z     vdW  Elec       q    Type
REMARK                         _______ _______ _______ _____ _____    ______ ____
ROOT
ATOM      1  N   UNL     1      -1.198  11.787  20.246  0.00  0.00    +0.000 N 
ATOM      2  N   UNL     1      -2.509  11.620  19.903  0.00  0.00    +0.000 NA
ATOM      3  C   UNL     1      -3.063  12.828  20.187  0.00  0.00    +0.000 A 
ATOM      4  C   UNL     1      -2.085  13.820  20.029  0.00  0.00    +0.000 A 
ATOM      5  C   UNL     1      -0.872  13.144  20.153  0.00  0.00    +0.000 A 
ENDROOT
BRANCH   3   6
ATOM      6  C   UNL     1      -4.334  12.969  20.911  0.00  0.00    +0.000 C 
ATOM      7  C   UNL     1      -5.543  13.083  21.541  0.00  0.00    +0.000 C 
ATOM      8  C   UNL     1      -7.043  12.751  20.961  0.00  0.00    +0.000 C 
ATOM      9  C   UNL     1      -7.900  14.016  20.834  0.00  0.00    +0.000 C 
ATOM     10  C   UNL     1      -7.694  11.648  21.795  0.00  0.00    +0.000 C 
ATOM     11  O   UNL     1      -7.204  12.164  19.626  0.00  0.00    +0.000 OA
ATOM     12  C   UNL     1      -6.080  12.153  18.782  0.00  0.00    +0.000 C 
ATOM     13  C   UNL     1      -5.718  10.692  18.431  0.00  0.00    +0.000 C 
ATOM     14  C   UNL     1      -6.255  13.073  17.573  0.00  0.00    +0.000 C 
ATOM     15  C   UNL     1      -4.942  12.726  19.557  0.00  0.00    +0.000 C 
ENDBRANCH   3   6
BRANCH   5  16
ATOM     16  C   UNL     1       0.488  13.669  20.266  0.00  0.00    +0.000 A 
ATOM     17  C   UNL     1       1.345  13.612  19.162  0.00  0.00    +0.000 A 
ATOM     18  C   UNL     1       2.662  14.064  19.254  0.00  0.00    +0.000 A 
ATOM     19  C   UNL     1       3.120  14.604  20.451  0.00  0.00    +0.000 A 
ATOM     20 CL   UNL     1       4.723  15.218  20.545  0.00  0.00    +0.000 Cl
ATOM     21  C   UNL     1       2.288  14.656  21.569  0.00  0.00    +0.000 A 
ATOM     22  C   UNL     1       0.978  14.181  21.481  0.00  0.00    +0.000 A 
ENDBRANCH   5  16
BRANCH   1  28
ATOM     23  C   UNL     1       0.401   9.882  19.896  0.00  0.00    +0.000 A 
ATOM     24  C   UNL     1       1.173   8.846  20.445  0.00  0.00    +0.000 A 
ATOM     25  C   UNL     1       1.118   8.499  21.785  0.00  0.00    +0.000 A 
ATOM     26  C   UNL     1       0.287   9.214  22.624  0.00  0.00    +0.000 A 
ATOM     27  C   UNL     1      -0.430  10.313  22.117  0.00  0.00    +0.000 A 
ATOM     28  C   UNL     1      -0.375  10.697  20.739  0.00  0.00    +0.000 A 
BRANCH  23  30
ATOM     29  C   UNL     1       1.578   9.409  17.896  0.00  0.00    +0.000 C 
ATOM     30  O   UNL     1       0.410   9.966  18.529  0.00  0.00    +0.000 OA
ENDBRANCH  23  30
ENDBRANCH   1  28
TORSDOF 4
ENDMDL
MODEL 8
REMARK VINA RESULT:      -6.4      2.822      6.924
REMARK  Name = 
REMARK  9 active torsions:
REMARK  status: ('A' for Active; 'I' for Inactive)
REMARK    1  A    between atoms: C_1  and  O_2
REMARK    2  A    between atoms: O_2  and  C_3
REMARK    3  A    between atoms: C_8  and  N_9
REMARK    4  A    between atoms: C_11  and  C_12
REMARK    5  A    between atoms: C_14  and  C_15
REMARK    6  A    between atoms: C_14  and  C_16
REMARK    7  A    between atoms: C_18  and  C_19
REMARK    8  A    between atoms: C_18  and  C_20
REMARK    9  A    between atoms: C_23  and  C_24
REMARK                            x       y       z     vdW  Elec       q    Type
REMARK                         _______ _______ _______ _____ _____    ______ ____
ROOT
ATOM      1  N   UNL     1      -0.386  12.770  21.938  0.00  0.00    +0.000 N 
ATOM      2  N   UNL     1      -0.959  13.243  23.085  0.00  0.00    +0.000 NA
ATOM      3  C   UNL     1      -1.873  12.286  23.396  0.00  0.00    +0.000 A 
ATOM      4  C   UNL     1      -1.412  11.051  22.919  0.00  0.00    +0.000 A 
ATOM      5  C   UNL     1      -0.506  11.377  21.910  0.00  0.00    +0.000 A 
ENDROOT
BRANCH   3   6
ATOM      6  C   UNL     1      -3.252  12.605  23.793  0.00  0.00    +0.000 C 
ATOM      7  C   UNL     1      -4.543  12.922  24.114  0.00  0.00    +0.000 C 
ATOM      8  C   UNL     1      -5.691  13.636  23.182  0.00  0.00    +0.000 C 
ATOM      9  C   UNL     1      -6.071  15.026  23.708  0.00  0.00    +0.000 C 
ATOM     10  C   UNL     1      -6.884  12.696  23.009  0.00  0.00    +0.000 C 
ATOM     11  O   UNL     1      -5.416  13.931  21.771  0.00  0.00    +0.000 OA
ATOM     12  C   UNL     1      -4.084  13.835  21.335  0.00  0.00    +0.000 C 
ATOM     13  C   UNL     1      -3.983  12.759  20.231  0.00  0.00    +0.000 C 
ATOM     14  C   UNL     1      -3.500  15.196  20.953  0.00  0.00    +0.000 C 
ATOM     15  C   UNL     1      -3.273  13.367  22.497  0.00  0.00    +0.000 C 
ENDBRANCH   3   6
BRANCH   5  16
ATOM     16  C   UNL     1       0.153  10.518  20.927  0.00  0.00    +0.000 A 
ATOM     17  C   UNL     1       0.862   9.391  21.358  0.00  0.00    +0.000 A 
ATOM     18  C   UNL     1       1.537   8.579  20.447  0.00  0.00    +0.000 A 
ATOM     19  C   UNL     1       1.485   8.879  19.090  0.00  0.00    +0.000 A 
ATOM     20 CL   UNL     1       2.266   7.843  17.962  0.00  0.00    +0.000 Cl
ATOM     21  C   UNL     1       0.799  10.007  18.639  0.00  0.00    +0.000 A 
ATOM     22  C   UNL     1       0.143  10.831  19.556  0.00  0.00    +0.000 A 
ENDBRANCH   5  16
BRANCH   1  28
ATOM     23  C   UNL     1       1.345  14.343  21.024  0.00  0.00    +0.000 A 
ATOM     24  C   UNL     1       1.781  15.175  19.981  0.00  0.00    +0.000 A 
ATOM     25  C   UNL     1       1.003  15.450  18.867  0.00  0.00    +0.000 A 
ATOM     26  C   UNL     1      -0.243  14.865  18.765  0.00  0.00    +0.000 A 
ATOM     27  C   UNL     1      -0.666  13.958  19.753  0.00  0.00    +0.000 A 
ATOM     28  C   UNL     1       0.129  13.648  20.903  0.00  0.00    +0.000 A 
BRANCH  23  30
ATOM     29  C   UNL     1       3.470  14.838  21.946  0.00  0.00    +0.000 C 
ATOM     30  O   UNL     1       2.134  14.336  22.144  0.00  0.00    +0.000 OA
ENDBRANCH  23  30
ENDBRANCH   1  28
TORSDOF 4
ENDMDL
MODEL 9
REMARK VINA RESULT:      -6.4      3.424      7.122
REMARK  Name = 
REMARK  9 active torsions:
REMARK  status: ('A' for Active; 'I' for Inactive)
REMARK    1  A    between atoms: C_1  and  O_2
REMARK    2  A    between atoms: O_2  and  C_3
REMARK    3  A    between atoms: C_8  and  N_9
REMARK    4  A    between atoms: C_11  and  C_12
REMARK    5  A    between atoms: C_14  and  C_15
REMARK    6  A    between atoms: C_14  and  C_16
REMARK    7  A    between atoms: C_18  and  C_19
REMARK    8  A    between atoms: C_18  and  C_20
REMARK    9  A    between atoms: C_23  and  C_24
REMARK                            x       y       z     vdW  Elec       q    Type
REMARK                         _______ _______ _______ _____ _____    ______ ____
ROOT
ATOM      1  N   UNL     1      -1.176  11.674  19.548  0.00  0.00    +0.000 N 
ATOM      2  N   UNL     1      -2.509  11.548  19.282  0.00  0.00    +0.000 NA
ATOM      3  C   UNL     1      -3.047  12.665  19.838  0.00  0.00    +0.000 A 
ATOM      4  C   UNL     1      -2.092  13.691  19.802  0.00  0.00    +0.000 A 
ATOM      5  C   UNL     1      -0.868  13.031  19.697  0.00  0.00    +0.000 A 
ENDROOT
BRANCH   3   6
ATOM      6  C   UNL     1      -4.257  12.634  20.672  0.00  0.00    +0.000 C 
ATOM      7  C   UNL     1      -5.413  12.600  21.403  0.00  0.00    +0.000 C 
ATOM      8  C   UNL     1      -6.959  12.436  20.879  0.00  0.00    +0.000 C 
ATOM      9  C   UNL     1      -7.787  13.702  21.135  0.00  0.00    +0.000 C 
ATOM     10  C   UNL     1      -7.580  11.167  21.463  0.00  0.00    +0.000 C 
ATOM     11  O   UNL     1      -7.235  12.201  19.457  0.00  0.00    +0.000 OA
ATOM     12  C   UNL     1      -6.177  12.389  18.551  0.00  0.00    +0.000 C 
ATOM     13  C   UNL     1      -5.884  11.057  17.823  0.00  0.00    +0.000 C 
ATOM     14  C   UNL     1      -6.414  13.582  17.624  0.00  0.00    +0.000 C 
ATOM     15  C   UNL     1      -4.969  12.741  19.352  0.00  0.00    +0.000 C 
ENDBRANCH   3   6
BRANCH   5  16
ATOM     16  C   UNL     1       0.493  13.555  19.805  0.00  0.00    +0.000 A 
ATOM     17  C   UNL     1       1.242  13.778  18.645  0.00  0.00    +0.000 A 
ATOM     18  C   UNL     1       2.558  14.235  18.719  0.00  0.00    +0.000 A 
ATOM     19  C   UNL     1       3.124  14.496  19.962  0.00  0.00    +0.000 A 
ATOM     20 CL   UNL     1       4.724  15.119  20.050  0.00  0.00    +0.000 Cl
ATOM     21  C   UNL     1       2.402  14.265  21.133  0.00  0.00    +0.000 A 
ATOM     22  C   UNL     1       1.093  13.786  21.056  0.00  0.00    +0.000 A 
ENDBRANCH   5  16
BRANCH   1  28
ATOM     23  C   UNL     1      -0.050   9.982  21.023  0.00  0.00    +0.000 A 
ATOM     24  C   UNL     1       0.800   8.872  21.145  0.00  0.00    +0.000 A 
ATOM     25  C   UNL     1       1.510   8.350  20.075  0.00  0.00    +0.000 A 
ATOM     26  C   UNL     1       1.360   8.929  18.831  0.00  0.00    +0.000 A 
ATOM     27  C   UNL     1       0.446   9.986  18.664  0.00  0.00    +0.000 A 
ATOM     28  C   UNL     1      -0.308  10.529  19.753  0.00  0.00    +0.000 A 
BRANCH  23  30
ATOM     29  C   UNL     1      -0.395   9.628  23.339  0.00  0.00    +0.000 C 
ATOM     30  O   UNL     1      -0.515  10.503  22.201  0.00  0.00    +0.000 OA
ENDBRANCH  23  30
ENDBRANCH   1  28
TORSDOF 4
ENDMDL
