MODEL 1
REMARK VINA RESULT:      -8.0      0.000      0.000
REMARK  Name = 
REMARK  4 active torsions:
REMARK  status: ('A' for Active; 'I' for Inactive)
REMARK    1  A    between atoms: C_1  and  C_2
REMARK    2  A    between atoms: C_10  and  C_11
REMARK    3  A    between atoms: C_12  and  C_13
REMARK    4  A    between atoms: N_20  and  C_21
REMARK                            x       y       z     vdW  Elec       q    Type
REMARK                         _______ _______ _______ _____ _____    ______ ____
ROOT
ATOM      1  C   UNL     1      -0.598  10.593  20.449  0.00  0.00    +0.000 C 
ATOM      2  C   UNL     1       0.125   9.317  20.077  0.00  0.00    +0.000 C 
ATOM      3  N   UNL     1       1.267   9.535  19.133  0.00  0.00    +0.000 N 
ATOM      4  C   UNL     1       1.908   8.258  19.260  0.00  0.00    +0.000 A 
ATOM      5  C   UNL     1       2.783   7.689  18.364  0.00  0.00    +0.000 A 
ATOM      6  C   UNL     1       3.053   6.311  18.492  0.00  0.00    +0.000 A 
ATOM      7  C   UNL     1       2.460   5.566  19.555  0.00  0.00    +0.000 A 
ATOM      8  C   UNL     1       1.821   6.250  20.596  0.00  0.00    +0.000 A 
ATOM      9  C   UNL     1       1.540   7.589  20.425  0.00  0.00    +0.000 A 
ATOM     10  C   UNL     1       0.682   8.489  21.258  0.00  0.00    +0.000 C 
ATOM     11  C   UNL     1       1.512   9.299  22.256  0.00  0.00    +0.000 C 
ATOM     12  C   UNL     1       2.436   4.091  19.459  0.00  0.00    +0.000 A 
ATOM     13  C   UNL     1       3.173   3.505  18.499  0.00  0.00    +0.000 A 
ATOM     14  C   UNL     1       4.030   4.252  17.554  0.00  0.00    +0.000 A 
ATOM     15  O   UNL     1       4.768   3.607  16.812  0.00  0.00    +0.000 OA
ATOM     16  N   UNL     1       3.889   5.628  17.550  0.00  0.00    +0.000 N 
ATOM     17  C   UNL     1       4.717   6.389  16.626  0.00  0.00    +0.000 C 
ATOM     18  H   UNL     1       1.908  10.250  19.477  0.00  0.00    +0.000 HD
ENDROOT
BRANCH  12  19
ATOM     19  C   UNL     1       1.509   3.225  20.266  0.00  0.00    +0.000 C 
ATOM     20  F   UNL     1       1.737   3.200  21.601  0.00  0.00    +0.000 F 
ATOM     21  F   UNL     1       0.218   3.629  20.124  0.00  0.00    +0.000 F 
ATOM     22  F   UNL     1       1.551   1.932  19.846  0.00  0.00    +0.000 F 
ENDBRANCH  12  19
TORSDOF 1
ENDMDL
MODEL 2
REMARK VINA RESULT:      -7.9      1.083      1.452
REMARK  Name = 
REMARK  4 active torsions:
REMARK  status: ('A' for Active; 'I' for Inactive)
REMARK    1  A    between atoms: C_1  and  C_2
REMARK    2  A    between atoms: C_10  and  C_11
REMARK    3  A    between atoms: C_12  and  C_13
REMARK    4  A    between atoms: N_20  and  C_21
REMARK                            x       y       z     vdW  Elec       q    Type
REMARK                         _______ _______ _______ _____ _____    ______ ____
ROOT
ATOM      1  C   UNL     1      -0.946  11.178  18.788  0.00  0.00    +0.000 C 
ATOM      2  C   UNL     1      -0.078   9.937  18.785  0.00  0.00    +0.000 C 
ATOM      3  N   UNL     1       1.090  10.031  17.854  0.00  0.00    +0.000 N 
ATOM      4  C   UNL     1       1.845   8.909  18.331  0.00  0.00    +0.000 A 
ATOM      5  C   UNL     1       2.824   8.229  17.642  0.00  0.00    +0.000 A 
ATOM      6  C   UNL     1       3.221   6.969  18.135  0.00  0.00    +0.000 A 
ATOM      7  C   UNL     1       2.643   6.461  19.337  0.00  0.00    +0.000 A 
ATOM      8  C   UNL     1       1.879   7.314  20.142  0.00  0.00    +0.000 A 
ATOM      9  C   UNL     1       1.477   8.525  19.618  0.00  0.00    +0.000 A 
ATOM     10  C   UNL     1       0.487   9.507  20.160  0.00  0.00    +0.000 C 
ATOM     11  C   UNL     1       1.172  10.634  20.936  0.00  0.00    +0.000 C 
ATOM     12  C   UNL     1       2.771   5.017  19.630  0.00  0.00    +0.000 A 
ATOM     13  C   UNL     1       3.618   4.291  18.880  0.00  0.00    +0.000 A 
ATOM     14  C   UNL     1       4.451   4.860  17.800  0.00  0.00    +0.000 A 
ATOM     15  O   UNL     1       5.292   4.132  17.276  0.00  0.00    +0.000 OA
ATOM     16  N   UNL     1       4.175   6.164  17.432  0.00  0.00    +0.000 N 
ATOM     17  C   UNL     1       4.976   6.750  16.367  0.00  0.00    +0.000 C 
ATOM     18  H   UNL     1       1.635  10.877  18.019  0.00  0.00    +0.000 HD
ENDROOT
BRANCH  12  19
ATOM     19  C   UNL     1       1.888   4.291  20.606  0.00  0.00    +0.000 C 
ATOM     20  F   UNL     1       0.571   4.607  20.559  0.00  0.00    +0.000 F 
ATOM     21  F   UNL     1       1.948   2.946  20.409  0.00  0.00    +0.000 F 
ATOM     22  F   UNL     1       2.289   4.506  21.888  0.00  0.00    +0.000 F 
ENDBRANCH  12  19
TORSDOF 1
ENDMDL
MODEL 3
REMARK VINA RESULT:      -7.8      3.899      5.445
REMARK  Name = 
REMARK  4 active torsions:
REMARK  status: ('A' for Active; 'I' for Inactive)
REMARK    1  A    between atoms: C_1  and  C_2
REMARK    2  A    between atoms: C_10  and  C_11
REMARK    3  A    between atoms: C_12  and  C_13
REMARK    4  A    between atoms: N_20  and  C_21
REMARK                            x       y       z     vdW  Elec       q    Type
REMARK                         _______ _______ _______ _____ _____    ______ ____
ROOT
ATOM      1  C   UNL     1       1.248   2.540  21.002  0.00  0.00    +0.000 C 
ATOM      2  C   UNL     1       2.391   3.084  20.173  0.00  0.00    +0.000 C 
ATOM      3  N   UNL     1       2.138   3.022  18.699  0.00  0.00    +0.000 N 
ATOM      4  C   UNL     1       3.196   3.884  18.255  0.00  0.00    +0.000 A 
ATOM      5  C   UNL     1       3.741   3.926  16.992  0.00  0.00    +0.000 A 
ATOM      6  C   UNL     1       4.973   4.593  16.829  0.00  0.00    +0.000 A 
ATOM      7  C   UNL     1       5.589   5.233  17.946  0.00  0.00    +0.000 A 
ATOM      8  C   UNL     1       4.854   5.406  19.125  0.00  0.00    +0.000 A 
ATOM      9  C   UNL     1       3.670   4.714  19.268  0.00  0.00    +0.000 A 
ATOM     10  C   UNL     1       2.819   4.538  20.486  0.00  0.00    +0.000 C 
ATOM     11  C   UNL     1       1.661   5.538  20.518  0.00  0.00    +0.000 C 
ATOM     12  C   UNL     1       7.022   5.583  17.861  0.00  0.00    +0.000 A 
ATOM     13  C   UNL     1       7.625   5.500  16.662  0.00  0.00    +0.000 A 
ATOM     14  C   UNL     1       6.927   5.107  15.420  0.00  0.00    +0.000 A 
ATOM     15  O   UNL     1       7.542   5.202  14.359  0.00  0.00    +0.000 OA
ATOM     16  N   UNL     1       5.644   4.611  15.564  0.00  0.00    +0.000 N 
ATOM     17  C   UNL     1       4.935   4.211  14.358  0.00  0.00    +0.000 C 
ATOM     18  H   UNL     1       1.248   3.455  18.451  0.00  0.00    +0.000 HD
ENDROOT
BRANCH  12  19
ATOM     19  C   UNL     1       7.876   5.867  19.064  0.00  0.00    +0.000 C 
ATOM     20  F   UNL     1       7.233   5.877  20.257  0.00  0.00    +0.000 F 
ATOM     21  F   UNL     1       8.864   4.940  19.191  0.00  0.00    +0.000 F 
ATOM     22  F   UNL     1       8.498   7.072  18.955  0.00  0.00    +0.000 F 
ENDBRANCH  12  19
TORSDOF 1
ENDMDL
MODEL 4
REMARK VINA RESULT:      -7.8      2.527      5.739
REMARK  Name = 
REMARK  4 active torsions:
REMARK  status: ('A' for Active; 'I' for Inactive)
REMARK    1  A    between atoms: C_1  and  C_2
REMARK    2  A    between atoms: C_10  and  C_11
REMARK    3  A    between atoms: C_12  and  C_13
REMARK    4  A    between atoms: N_20  and  C_21
REMARK                            x       y       z     vdW  Elec       q    Type
REMARK                         _______ _______ _______ _____ _____    ______ ____
ROOT
ATOM      1  C   UNL     1       7.887   5.126  13.949  0.00  0.00    +0.000 C 
ATOM      2  C   UNL     1       6.889   5.082  15.085  0.00  0.00    +0.000 C 
ATOM      3  N   UNL     1       6.086   6.338  15.220  0.00  0.00    +0.000 N 
ATOM      4  C   UNL     1       5.065   5.856  16.105  0.00  0.00    +0.000 A 
ATOM      5  C   UNL     1       4.253   6.620  16.911  0.00  0.00    +0.000 A 
ATOM      6  C   UNL     1       3.543   5.966  17.939  0.00  0.00    +0.000 A 
ATOM      7  C   UNL     1       3.647   4.551  18.087  0.00  0.00    +0.000 A 
ATOM      8  C   UNL     1       4.248   3.800  17.069  0.00  0.00    +0.000 A 
ATOM      9  C   UNL     1       4.963   4.467  16.097  0.00  0.00    +0.000 A 
ATOM     10  C   UNL     1       5.876   3.913  15.048  0.00  0.00    +0.000 C 
ATOM     11  C   UNL     1       5.160   3.747  13.705  0.00  0.00    +0.000 C 
ATOM     12  C   UNL     1       3.225   3.938  19.364  0.00  0.00    +0.000 A 
ATOM     13  C   UNL     1       2.549   4.700  20.240  0.00  0.00    +0.000 A 
ATOM     14  C   UNL     1       2.176   6.108  19.985  0.00  0.00    +0.000 A 
ATOM     15  O   UNL     1       1.437   6.664  20.795  0.00  0.00    +0.000 OA
ATOM     16  N   UNL     1       2.741   6.702  18.871  0.00  0.00    +0.000 N 
ATOM     17  C   UNL     1       2.396   8.089  18.597  0.00  0.00    +0.000 C 
ATOM     18  H   UNL     1       5.647   6.601  14.338  0.00  0.00    +0.000 HD
ENDROOT
BRANCH  12  19
ATOM     19  C   UNL     1       3.652   2.565  19.803  0.00  0.00    +0.000 C 
ATOM     20  F   UNL     1       4.989   2.342  19.828  0.00  0.00    +0.000 F 
ATOM     21  F   UNL     1       3.213   2.297  21.062  0.00  0.00    +0.000 F 
ATOM     22  F   UNL     1       3.119   1.603  19.002  0.00  0.00    +0.000 F 
ENDBRANCH  12  19
TORSDOF 1
ENDMDL
MODEL 5
REMARK VINA RESULT:      -7.7      3.471      5.212
REMARK  Name = 
REMARK  4 active torsions:
REMARK  status: ('A' for Active; 'I' for Inactive)
REMARK    1  A    between atoms: C_1  and  C_2
REMARK    2  A    between atoms: C_10  and  C_11
REMARK    3  A    between atoms: C_12  and  C_13
REMARK    4  A    between atoms: N_20  and  C_21
REMARK                            x       y       z     vdW  Elec       q    Type
REMARK                         _______ _______ _______ _____ _____    ______ ____
ROOT
ATOM      1  C   UNL     1       1.258   2.130  22.273  0.00  0.00    +0.000 C 
ATOM      2  C   UNL     1       1.920   3.127  21.347  0.00  0.00    +0.000 C 
ATOM      3  N   UNL     1       3.236   2.656  20.810  0.00  0.00    +0.000 N 
ATOM      4  C   UNL     1       3.408   3.621  19.763  0.00  0.00    +0.000 A 
ATOM      5  C   UNL     1       4.593   3.970  19.158  0.00  0.00    +0.000 A 
ATOM      6  C   UNL     1       4.617   5.153  18.390  0.00  0.00    +0.000 A 
ATOM      7  C   UNL     1       3.424   5.918  18.226  0.00  0.00    +0.000 A 
ATOM      8  C   UNL     1       2.198   5.366  18.615  0.00  0.00    +0.000 A 
ATOM      9  C   UNL     1       2.210   4.228  19.394  0.00  0.00    +0.000 A 
ATOM     10  C   UNL     1       1.081   3.572  20.126  0.00  0.00    +0.000 C 
ATOM     11  C   UNL     1       0.480   2.417  19.323  0.00  0.00    +0.000 C 
ATOM     12  C   UNL     1       3.538   7.317  17.761  0.00  0.00    +0.000 A 
ATOM     13  C   UNL     1       4.727   7.735  17.292  0.00  0.00    +0.000 A 
ATOM     14  C   UNL     1       5.917   6.865  17.186  0.00  0.00    +0.000 A 
ATOM     15  O   UNL     1       6.909   7.312  16.612  0.00  0.00    +0.000 OA
ATOM     16  N   UNL     1       5.832   5.626  17.796  0.00  0.00    +0.000 N 
ATOM     17  C   UNL     1       6.991   4.750  17.713  0.00  0.00    +0.000 C 
ATOM     18  H   UNL     1       3.161   1.732  20.385  0.00  0.00    +0.000 HD
ENDROOT
BRANCH  12  19
ATOM     19  C   UNL     1       2.449   8.337  17.937  0.00  0.00    +0.000 C 
ATOM     20  F   UNL     1       1.294   8.088  17.273  0.00  0.00    +0.000 F 
ATOM     21  F   UNL     1       2.100   8.457  19.246  0.00  0.00    +0.000 F 
ATOM     22  F   UNL     1       2.860   9.572  17.538  0.00  0.00    +0.000 F 
ENDBRANCH  12  19
TORSDOF 1
ENDMDL
MODEL 6
REMARK VINA RESULT:      -7.6      3.126      4.016
REMARK  Name = 
REMARK  4 active torsions:
REMARK  status: ('A' for Active; 'I' for Inactive)
REMARK    1  A    between atoms: C_1  and  C_2
REMARK    2  A    between atoms: C_10  and  C_11
REMARK    3  A    between atoms: C_12  and  C_13
REMARK    4  A    between atoms: N_20  and  C_21
REMARK                            x       y       z     vdW  Elec       q    Type
REMARK                         _______ _______ _______ _____ _____    ______ ____
ROOT
ATOM      1  C   UNL     1       0.644  11.434  20.266  0.00  0.00    +0.000 C 
ATOM      2  C   UNL     1       1.416  10.180  19.915  0.00  0.00    +0.000 C 
ATOM      3  N   UNL     1       0.995   8.982  20.709  0.00  0.00    +0.000 N 
ATOM      4  C   UNL     1       1.635   7.963  19.929  0.00  0.00    +0.000 A 
ATOM      5  C   UNL     1       1.955   6.692  20.348  0.00  0.00    +0.000 A 
ATOM      6  C   UNL     1       2.861   5.948  19.564  0.00  0.00    +0.000 A 
ATOM      7  C   UNL     1       3.378   6.504  18.355  0.00  0.00    +0.000 A 
ATOM      8  C   UNL     1       2.798   7.667  17.835  0.00  0.00    +0.000 A 
ATOM      9  C   UNL     1       1.942   8.390  18.640  0.00  0.00    +0.000 A 
ATOM     10  C   UNL     1       1.375   9.759  18.427  0.00  0.00    +0.000 C 
ATOM     11  C   UNL     1      -0.032   9.703  17.829  0.00  0.00    +0.000 C 
ATOM     12  C   UNL     1       4.587   5.900  17.758  0.00  0.00    +0.000 A 
ATOM     13  C   UNL     1       5.012   4.719  18.241  0.00  0.00    +0.000 A 
ATOM     14  C   UNL     1       4.318   3.977  19.315  0.00  0.00    +0.000 A 
ATOM     15  O   UNL     1       4.713   2.843  19.580  0.00  0.00    +0.000 OA
ATOM     16  N   UNL     1       3.306   4.650  19.975  0.00  0.00    +0.000 N 
ATOM     17  C   UNL     1       2.609   3.946  21.041  0.00  0.00    +0.000 C 
ATOM     18  H   UNL     1      -0.013   8.835  20.663  0.00  0.00    +0.000 HD
ENDROOT
BRANCH  12  19
ATOM     19  C   UNL     1       5.457   6.608  16.758  0.00  0.00    +0.000 C 
ATOM     20  F   UNL     1       4.838   7.023  15.626  0.00  0.00    +0.000 F 
ATOM     21  F   UNL     1       6.013   7.725  17.300  0.00  0.00    +0.000 F 
ATOM     22  F   UNL     1       6.494   5.822  16.361  0.00  0.00    +0.000 F 
ENDBRANCH  12  19
TORSDOF 1
ENDMDL
MODEL 7
REMARK VINA RESULT:      -7.5      3.423      6.336
REMARK  Name = 
REMARK  4 active torsions:
REMARK  status: ('A' for Active; 'I' for Inactive)
REMARK    1  A    between atoms: C_1  and  C_2
REMARK    2  A    between atoms: C_10  and  C_11
REMARK    3  A    between atoms: C_12  and  C_13
REMARK    4  A    between atoms: N_20  and  C_21
REMARK                            x       y       z     vdW  Elec       q    Type
REMARK                         _______ _______ _______ _____ _____    ______ ____
ROOT
ATOM      1  C   UNL     1       6.262   3.759  13.144  0.00  0.00    +0.000 C 
ATOM      2  C   UNL     1       5.542   4.127  14.423  0.00  0.00    +0.000 C 
ATOM      3  N   UNL     1       5.628   3.069  15.479  0.00  0.00    +0.000 N 
ATOM      4  C   UNL     1       5.176   3.837  16.602  0.00  0.00    +0.000 A 
ATOM      5  C   UNL     1       4.660   3.343  17.778  0.00  0.00    +0.000 A 
ATOM      6  C   UNL     1       3.975   4.238  18.625  0.00  0.00    +0.000 A 
ATOM      7  C   UNL     1       3.873   5.616  18.270  0.00  0.00    +0.000 A 
ATOM      8  C   UNL     1       4.659   6.112  17.222  0.00  0.00    +0.000 A 
ATOM      9  C   UNL     1       5.289   5.209  16.392  0.00  0.00    +0.000 A 
ATOM     10  C   UNL     1       5.987   5.451  15.089  0.00  0.00    +0.000 C 
ATOM     11  C   UNL     1       7.500   5.583  15.273  0.00  0.00    +0.000 C 
ATOM     12  C   UNL     1       2.853   6.448  18.942  0.00  0.00    +0.000 A 
ATOM     13  C   UNL     1       2.225   5.938  20.016  0.00  0.00    +0.000 A 
ATOM     14  C   UNL     1       2.521   4.604  20.580  0.00  0.00    +0.000 A 
ATOM     15  O   UNL     1       1.988   4.299  21.646  0.00  0.00    +0.000 OA
ATOM     16  N   UNL     1       3.341   3.784  19.827  0.00  0.00    +0.000 N 
ATOM     17  C   UNL     1       3.644   2.463  20.355  0.00  0.00    +0.000 C 
ATOM     18  H   UNL     1       6.593   2.787  15.652  0.00  0.00    +0.000 HD
ENDROOT
BRANCH  12  19
ATOM     19  C   UNL     1       2.364   7.760  18.394  0.00  0.00    +0.000 C 
ATOM     20  F   UNL     1       3.324   8.609  17.952  0.00  0.00    +0.000 F 
ATOM     21  F   UNL     1       1.532   7.567  17.335  0.00  0.00    +0.000 F 
ATOM     22  F   UNL     1       1.645   8.446  19.323  0.00  0.00    +0.000 F 
ENDBRANCH  12  19
TORSDOF 1
ENDMDL
MODEL 8
REMARK VINA RESULT:      -6.9      2.264      5.328
REMARK  Name = 
REMARK  4 active torsions:
REMARK  status: ('A' for Active; 'I' for Inactive)
REMARK    1  A    between atoms: C_1  and  C_2
REMARK    2  A    between atoms: C_10  and  C_11
REMARK    3  A    between atoms: C_12  and  C_13
REMARK    4  A    between atoms: N_20  and  C_21
REMARK                            x       y       z     vdW  Elec       q    Type
REMARK                         _______ _______ _______ _____ _____    ______ ____
ROOT
ATOM      1  C   UNL     1       7.451   4.875  15.151  0.00  0.00    +0.000 C 
ATOM      2  C   UNL     1       6.357   5.124  16.167  0.00  0.00    +0.000 C 
ATOM      3  N   UNL     1       5.731   6.479  16.046  0.00  0.00    +0.000 N 
ATOM      4  C   UNL     1       4.575   6.263  16.868  0.00  0.00    +0.000 A 
ATOM      5  C   UNL     1       3.809   7.233  17.473  0.00  0.00    +0.000 A 
ATOM      6  C   UNL     1       2.923   6.831  18.494  0.00  0.00    +0.000 A 
ATOM      7  C   UNL     1       2.812   5.450  18.836  0.00  0.00    +0.000 A 
ATOM      8  C   UNL     1       3.390   4.489  17.997  0.00  0.00    +0.000 A 
ATOM      9  C   UNL     1       4.279   4.913  17.031  0.00  0.00    +0.000 A 
ATOM     10  C   UNL     1       5.196   4.101  16.171  0.00  0.00    +0.000 C 
ATOM     11  C   UNL     1       4.591   3.835  14.791  0.00  0.00    +0.000 C 
ATOM     12  C   UNL     1       2.192   5.087  20.128  0.00  0.00    +0.000 A 
ATOM     13  C   UNL     1       1.553   6.048  20.817  0.00  0.00    +0.000 A 
ATOM     14  C   UNL     1       1.409   7.440  20.340  0.00  0.00    +0.000 A 
ATOM     15  O   UNL     1       0.684   8.198  20.983  0.00  0.00    +0.000 OA
ATOM     16  N   UNL     1       2.151   7.790  19.227  0.00  0.00    +0.000 N 
ATOM     17  C   UNL     1       2.033   9.156  18.738  0.00  0.00    +0.000 C 
ATOM     18  H   UNL     1       5.416   6.665  15.095  0.00  0.00    +0.000 HD
ENDROOT
BRANCH  12  19
ATOM     19  C   UNL     1       2.379   3.749  20.787  0.00  0.00    +0.000 C 
ATOM     20  F   UNL     1       3.562   3.133  20.549  0.00  0.00    +0.000 F 
ATOM     21  F   UNL     1       2.289   3.856  22.140  0.00  0.00    +0.000 F 
ATOM     22  F   UNL     1       1.408   2.874  20.409  0.00  0.00    +0.000 F 
ENDBRANCH  12  19
TORSDOF 1
ENDMDL
MODEL 9
REMARK VINA RESULT:      -6.8      1.304      1.753
REMARK  Name = 
REMARK  4 active torsions:
REMARK  status: ('A' for Active; 'I' for Inactive)
REMARK    1  A    between atoms: C_1  and  C_2
REMARK    2  A    between atoms: C_10  and  C_11
REMARK    3  A    between atoms: C_12  and  C_13
REMARK    4  A    between atoms: N_20  and  C_21
REMARK                            x       y       z     vdW  Elec       q    Type
REMARK                         _______ _______ _______ _____ _____    ______ ____
ROOT
ATOM      1  C   UNL     1       0.121  10.463  19.012  0.00  0.00    +0.000 C 
ATOM      2  C   UNL     1       0.862   9.188  18.672  0.00  0.00    +0.000 C 
ATOM      3  N   UNL     1       2.201   9.427  18.048  0.00  0.00    +0.000 N 
ATOM      4  C   UNL     1       2.744   8.106  18.172  0.00  0.00    +0.000 A 
ATOM      5  C   UNL     1       3.783   7.576  17.441  0.00  0.00    +0.000 A 
ATOM      6  C   UNL     1       3.962   6.177  17.471  0.00  0.00    +0.000 A 
ATOM      7  C   UNL     1       3.108   5.367  18.277  0.00  0.00    +0.000 A 
ATOM      8  C   UNL     1       2.269   5.982  19.214  0.00  0.00    +0.000 A 
ATOM      9  C   UNL     1       2.088   7.346  19.137  0.00  0.00    +0.000 A 
ATOM     10  C   UNL     1       1.093   8.209  19.848  0.00  0.00    +0.000 C 
ATOM     11  C   UNL     1       1.696   8.860  21.096  0.00  0.00    +0.000 C 
ATOM     12  C   UNL     1       3.050   3.914  18.011  0.00  0.00    +0.000 A 
ATOM     13  C   UNL     1       3.970   3.384  17.185  0.00  0.00    +0.000 A 
ATOM     14  C   UNL     1       5.053   4.167  16.554  0.00  0.00    +0.000 A 
ATOM     15  O   UNL     1       5.920   3.554  15.933  0.00  0.00    +0.000 OA
ATOM     16  N   UNL     1       4.970   5.542  16.674  0.00  0.00    +0.000 N 
ATOM     17  C   UNL     1       6.020   6.339  16.058  0.00  0.00    +0.000 C 
ATOM     18  H   UNL     1       2.770  10.061  18.608  0.00  0.00    +0.000 HD
ENDROOT
BRANCH  12  19
ATOM     19  C   UNL     1       1.928   3.032  18.479  0.00  0.00    +0.000 C 
ATOM     20  F   UNL     1       0.676   3.473  18.204  0.00  0.00    +0.000 F 
ATOM     21  F   UNL     1       2.011   1.797  17.917  0.00  0.00    +0.000 F 
ATOM     22  F   UNL     1       1.979   2.841  19.825  0.00  0.00    +0.000 F 
ENDBRANCH  12  19
TORSDOF 1
ENDMDL
