MODEL 1
REMARK VINA RESULT:      -7.4      0.000      0.000
REMARK  Name = 
REMARK  7 active torsions:
REMARK  status: ('A' for Active; 'I' for Inactive)
REMARK    1  A    between atoms: C_1  and  C_2
REMARK    2  A    between atoms: C_2  and  O_3
REMARK    3  A    between atoms: O_3  and  C_4
REMARK    4  A    between atoms: C_7  and  S_8
REMARK    5  A    between atoms: S_8  and  N_11
REMARK    6  A    between atoms: N_11  and  C_12
REMARK    7  A    between atoms: C_12  and  C_13
REMARK                            x       y       z     vdW  Elec       q    Type
REMARK                         _______ _______ _______ _____ _____    ______ ____
ROOT
ATOM      1  S   UNL     1       6.812   6.116  17.800  0.00  0.00    +0.000 S 
ATOM      2  O   UNL     1       6.615   7.320  17.022  0.00  0.00    +0.000 OA
ATOM      3  O   UNL     1       7.556   6.121  19.039  0.00  0.00    +0.000 OA
ENDROOT
BRANCH   1   7
ATOM      4  C   UNL     1       2.676   4.464  18.845  0.00  0.00    +0.000 A 
ATOM      5  C   UNL     1       3.830   3.811  19.285  0.00  0.00    +0.000 A 
ATOM      6  C   UNL     1       5.093   4.299  18.946  0.00  0.00    +0.000 A 
ATOM      7  C   UNL     1       5.201   5.446  18.155  0.00  0.00    +0.000 A 
ATOM      8  C   UNL     1       4.049   6.095  17.701  0.00  0.00    +0.000 A 
ATOM      9  C   UNL     1       2.788   5.588  18.025  0.00  0.00    +0.000 A 
BRANCH   4  10
ATOM     10  O   UNL     1       1.500   3.917  19.275  0.00  0.00    +0.000 OA
BRANCH  10  12
ATOM     11  C   UNL     1       1.283   2.830  21.382  0.00  0.00    +0.000 C 
ATOM     12  C   UNL     1       1.162   4.151  20.644  0.00  0.00    +0.000 C 
ENDBRANCH  10  12
ENDBRANCH   4  10
ENDBRANCH   1   7
BRANCH   1  13
ATOM     13  N   UNL     1       7.530   4.943  16.822  0.00  0.00    +0.000 NA
ATOM     14  H   UNL     1       8.164   4.334  17.346  0.00  0.00    +0.000 HD
BRANCH  13  15
ATOM     15  C   UNL     1       6.601   4.162  15.980  0.00  0.00    +0.000 C 
BRANCH  15  16
ATOM     16  C   UNL     1       6.839   4.375  14.503  0.00  0.00    +0.000 A 
ATOM     17  C   UNL     1       6.135   3.626  13.563  0.00  0.00    +0.000 A 
ATOM     18  C   UNL     1       6.416   3.809  12.213  0.00  0.00    +0.000 A 
ATOM     19  C   UNL     1       7.375   4.742  11.838  0.00  0.00    +0.000 A 
ATOM     20  C   UNL     1       8.007   5.468  12.833  0.00  0.00    +0.000 A 
ATOM     21  N   UNL     1       7.757   5.314  14.153  0.00  0.00    +0.000 NA
ENDBRANCH  15  16
ENDBRANCH  13  15
ENDBRANCH   1  13
TORSDOF 6
ENDMDL
MODEL 2
REMARK VINA RESULT:      -7.3      2.365      6.684
REMARK  Name = 
REMARK  7 active torsions:
REMARK  status: ('A' for Active; 'I' for Inactive)
REMARK    1  A    between atoms: C_1  and  C_2
REMARK    2  A    between atoms: C_2  and  O_3
REMARK    3  A    between atoms: O_3  and  C_4
REMARK    4  A    between atoms: C_7  and  S_8
REMARK    5  A    between atoms: S_8  and  N_11
REMARK    6  A    between atoms: N_11  and  C_12
REMARK    7  A    between atoms: C_12  and  C_13
REMARK                            x       y       z     vdW  Elec       q    Type
REMARK                         _______ _______ _______ _____ _____    ______ ____
ROOT
ATOM      1  S   UNL     1       5.815   5.017  19.178  0.00  0.00    +0.000 S 
ATOM      2  O   UNL     1       7.062   5.418  19.793  0.00  0.00    +0.000 OA
ATOM      3  O   UNL     1       4.569   5.690  19.469  0.00  0.00    +0.000 OA
ENDROOT
BRANCH   1   7
ATOM      4  C   UNL     1       6.348   5.054  14.635  0.00  0.00    +0.000 A 
ATOM      5  C   UNL     1       7.281   4.409  15.451  0.00  0.00    +0.000 A 
ATOM      6  C   UNL     1       7.134   4.419  16.839  0.00  0.00    +0.000 A 
ATOM      7  C   UNL     1       6.048   5.084  17.413  0.00  0.00    +0.000 A 
ATOM      8  C   UNL     1       5.119   5.742  16.602  0.00  0.00    +0.000 A 
ATOM      9  C   UNL     1       5.285   5.747  15.215  0.00  0.00    +0.000 A 
BRANCH   4  10
ATOM     10  O   UNL     1       6.576   4.940  13.292  0.00  0.00    +0.000 OA
BRANCH  10  12
ATOM     11  C   UNL     1       5.174   3.430  12.100  0.00  0.00    +0.000 C 
ATOM     12  C   UNL     1       6.529   3.616  12.756  0.00  0.00    +0.000 C 
ENDBRANCH  10  12
ENDBRANCH   4  10
ENDBRANCH   1   7
BRANCH   1  13
ATOM     13  N   UNL     1       5.551   3.380  19.488  0.00  0.00    +0.000 NA
ATOM     14  H   UNL     1       5.506   3.175  20.490  0.00  0.00    +0.000 HD
BRANCH  13  15
ATOM     15  C   UNL     1       4.421   2.769  18.759  0.00  0.00    +0.000 C 
BRANCH  15  16
ATOM     16  C   UNL     1       3.134   2.801  19.552  0.00  0.00    +0.000 A 
ATOM     17  C   UNL     1       1.913   2.962  18.902  0.00  0.00    +0.000 A 
ATOM     18  C   UNL     1       0.753   3.039  19.665  0.00  0.00    +0.000 A 
ATOM     19  C   UNL     1       0.840   2.940  21.049  0.00  0.00    +0.000 A 
ATOM     20  C   UNL     1       2.089   2.751  21.614  0.00  0.00    +0.000 A 
ATOM     21  N   UNL     1       3.235   2.670  20.901  0.00  0.00    +0.000 NA
ENDBRANCH  15  16
ENDBRANCH  13  15
ENDBRANCH   1  13
TORSDOF 6
ENDMDL
MODEL 3
REMARK VINA RESULT:      -7.1      0.670      1.263
REMARK  Name = 
REMARK  7 active torsions:
REMARK  status: ('A' for Active; 'I' for Inactive)
REMARK    1  A    between atoms: C_1  and  C_2
REMARK    2  A    between atoms: C_2  and  O_3
REMARK    3  A    between atoms: O_3  and  C_4
REMARK    4  A    between atoms: C_7  and  S_8
REMARK    5  A    between atoms: S_8  and  N_11
REMARK    6  A    between atoms: N_11  and  C_12
REMARK    7  A    between atoms: C_12  and  C_13
REMARK                            x       y       z     vdW  Elec       q    Type
REMARK                         _______ _______ _______ _____ _____    ______ ____
ROOT
ATOM      1  S   UNL     1       7.289   5.676  18.313  0.00  0.00    +0.000 S 
ATOM      2  O   UNL     1       7.348   7.118  18.205  0.00  0.00    +0.000 OA
ATOM      3  O   UNL     1       8.057   4.953  19.301  0.00  0.00    +0.000 OA
ENDROOT
BRANCH   1   7
ATOM      4  C   UNL     1       2.895   4.485  18.760  0.00  0.00    +0.000 A 
ATOM      5  C   UNL     1       3.239   5.742  18.255  0.00  0.00    +0.000 A 
ATOM      6  C   UNL     1       4.579   6.117  18.141  0.00  0.00    +0.000 A 
ATOM      7  C   UNL     1       5.581   5.230  18.542  0.00  0.00    +0.000 A 
ATOM      8  C   UNL     1       5.241   3.976  19.061  0.00  0.00    +0.000 A 
ATOM      9  C   UNL     1       3.898   3.617  19.193  0.00  0.00    +0.000 A 
BRANCH   4  10
ATOM     10  O   UNL     1       1.555   4.217  18.783  0.00  0.00    +0.000 OA
BRANCH  10  12
ATOM     11  C   UNL     1       1.211   3.408  20.995  0.00  0.00    +0.000 C 
ATOM     12  C   UNL     1       1.159   3.059  19.519  0.00  0.00    +0.000 C 
ENDBRANCH  10  12
ENDBRANCH   4  10
ENDBRANCH   1   7
BRANCH   1  13
ATOM     13  N   UNL     1       7.686   4.998  16.819  0.00  0.00    +0.000 NA
ATOM     14  H   UNL     1       8.448   4.320  16.888  0.00  0.00    +0.000 HD
BRANCH  13  15
ATOM     15  C   UNL     1       6.549   4.459  16.045  0.00  0.00    +0.000 C 
BRANCH  15  16
ATOM     16  C   UNL     1       6.794   4.497  14.553  0.00  0.00    +0.000 A 
ATOM     17  C   UNL     1       6.065   3.671  13.701  0.00  0.00    +0.000 A 
ATOM     18  C   UNL     1       6.351   3.692  12.340  0.00  0.00    +0.000 A 
ATOM     19  C   UNL     1       7.341   4.544  11.866  0.00  0.00    +0.000 A 
ATOM     20  C   UNL     1       7.998   5.355  12.776  0.00  0.00    +0.000 A 
ATOM     21  N   UNL     1       7.743   5.359  14.103  0.00  0.00    +0.000 NA
ENDBRANCH  15  16
ENDBRANCH  13  15
ENDBRANCH   1  13
TORSDOF 6
ENDMDL
MODEL 4
REMARK VINA RESULT:      -7.1      2.279      6.675
REMARK  Name = 
REMARK  7 active torsions:
REMARK  status: ('A' for Active; 'I' for Inactive)
REMARK    1  A    between atoms: C_1  and  C_2
REMARK    2  A    between atoms: C_2  and  O_3
REMARK    3  A    between atoms: O_3  and  C_4
REMARK    4  A    between atoms: C_7  and  S_8
REMARK    5  A    between atoms: S_8  and  N_11
REMARK    6  A    between atoms: N_11  and  C_12
REMARK    7  A    between atoms: C_12  and  C_13
REMARK                            x       y       z     vdW  Elec       q    Type
REMARK                         _______ _______ _______ _____ _____    ______ ____
ROOT
ATOM      1  S   UNL     1       6.974   4.930  17.882  0.00  0.00    +0.000 S 
ATOM      2  O   UNL     1       8.242   4.363  18.287  0.00  0.00    +0.000 OA
ATOM      3  O   UNL     1       6.674   6.333  18.058  0.00  0.00    +0.000 OA
ENDROOT
BRANCH   1   7
ATOM      4  C   UNL     1       6.295   4.073  13.441  0.00  0.00    +0.000 A 
ATOM      5  C   UNL     1       5.524   3.428  14.411  0.00  0.00    +0.000 A 
ATOM      6  C   UNL     1       5.746   3.668  15.768  0.00  0.00    +0.000 A 
ATOM      7  C   UNL     1       6.752   4.557  16.155  0.00  0.00    +0.000 A 
ATOM      8  C   UNL     1       7.536   5.195  15.188  0.00  0.00    +0.000 A 
ATOM      9  C   UNL     1       7.322   4.931  13.833  0.00  0.00    +0.000 A 
BRANCH   4  10
ATOM     10  O   UNL     1       5.956   3.788  12.148  0.00  0.00    +0.000 OA
BRANCH  10  12
ATOM     11  C   UNL     1       3.962   3.456  10.889  0.00  0.00    +0.000 C 
ATOM     12  C   UNL     1       4.864   2.884  11.968  0.00  0.00    +0.000 C 
ENDBRANCH  10  12
ENDBRANCH   4  10
ENDBRANCH   1   7
BRANCH   1  13
ATOM     13  N   UNL     1       5.727   4.082  18.641  0.00  0.00    +0.000 NA
ATOM     14  H   UNL     1       6.073   3.303  19.207  0.00  0.00    +0.000 HD
BRANCH  13  15
ATOM     15  C   UNL     1       4.762   4.911  19.392  0.00  0.00    +0.000 C 
BRANCH  15  16
ATOM     16  C   UNL     1       3.402   4.259  19.503  0.00  0.00    +0.000 A 
ATOM     17  C   UNL     1       2.391   4.867  20.244  0.00  0.00    +0.000 A 
ATOM     18  C   UNL     1       1.168   4.216  20.369  0.00  0.00    +0.000 A 
ATOM     19  C   UNL     1       0.983   2.990  19.742  0.00  0.00    +0.000 A 
ATOM     20  C   UNL     1       2.029   2.469  18.999  0.00  0.00    +0.000 A 
ATOM     21  N   UNL     1       3.228   3.076  18.857  0.00  0.00    +0.000 NA
ENDBRANCH  15  16
ENDBRANCH  13  15
ENDBRANCH   1  13
TORSDOF 6
ENDMDL
MODEL 5
REMARK VINA RESULT:      -7.1      3.347      7.041
REMARK  Name = 
REMARK  7 active torsions:
REMARK  status: ('A' for Active; 'I' for Inactive)
REMARK    1  A    between atoms: C_1  and  C_2
REMARK    2  A    between atoms: C_2  and  O_3
REMARK    3  A    between atoms: O_3  and  C_4
REMARK    4  A    between atoms: C_7  and  S_8
REMARK    5  A    between atoms: S_8  and  N_11
REMARK    6  A    between atoms: N_11  and  C_12
REMARK    7  A    between atoms: C_12  and  C_13
REMARK                            x       y       z     vdW  Elec       q    Type
REMARK                         _______ _______ _______ _____ _____    ______ ____
ROOT
ATOM      1  S   UNL     1       5.151   4.349  16.830  0.00  0.00    +0.000 S 
ATOM      2  O   UNL     1       3.886   5.036  16.681  0.00  0.00    +0.000 OA
ATOM      3  O   UNL     1       5.771   3.644  15.730  0.00  0.00    +0.000 OA
ENDROOT
BRANCH   1   7
ATOM      4  C   UNL     1       8.085   7.462  18.451  0.00  0.00    +0.000 A 
ATOM      5  C   UNL     1       7.231   7.779  17.391  0.00  0.00    +0.000 A 
ATOM      6  C   UNL     1       6.353   6.823  16.878  0.00  0.00    +0.000 A 
ATOM      7  C   UNL     1       6.334   5.538  17.426  0.00  0.00    +0.000 A 
ATOM      8  C   UNL     1       7.196   5.212  18.478  0.00  0.00    +0.000 A 
ATOM      9  C   UNL     1       8.088   6.167  18.971  0.00  0.00    +0.000 A 
BRANCH   4  10
ATOM     10  O   UNL     1       8.867   8.491  18.893  0.00  0.00    +0.000 OA
BRANCH  10  12
ATOM     11  C   UNL     1       9.604  10.755  18.901  0.00  0.00    +0.000 C 
ATOM     12  C   UNL     1       8.606   9.772  18.316  0.00  0.00    +0.000 C 
ENDBRANCH  10  12
ENDBRANCH   4  10
ENDBRANCH   1   7
BRANCH   1  13
ATOM     13  N   UNL     1       5.026   3.236  18.093  0.00  0.00    +0.000 NA
ATOM     14  H   UNL     1       5.142   3.673  19.011  0.00  0.00    +0.000 HD
BRANCH  13  15
ATOM     15  C   UNL     1       3.834   2.365  18.055  0.00  0.00    +0.000 C 
BRANCH  15  16
ATOM     16  C   UNL     1       2.906   2.600  19.224  0.00  0.00    +0.000 A 
ATOM     17  C   UNL     1       1.571   2.933  19.005  0.00  0.00    +0.000 A 
ATOM     18  C   UNL     1       0.757   3.195  20.102  0.00  0.00    +0.000 A 
ATOM     19  C   UNL     1       1.290   3.103  21.383  0.00  0.00    +0.000 A 
ATOM     20  C   UNL     1       2.618   2.736  21.514  0.00  0.00    +0.000 A 
ATOM     21  N   UNL     1       3.435   2.475  20.470  0.00  0.00    +0.000 NA
ENDBRANCH  15  16
ENDBRANCH  13  15
ENDBRANCH   1  13
TORSDOF 6
ENDMDL
MODEL 6
REMARK VINA RESULT:      -7.1      3.826      5.992
REMARK  Name = 
REMARK  7 active torsions:
REMARK  status: ('A' for Active; 'I' for Inactive)
REMARK    1  A    between atoms: C_1  and  C_2
REMARK    2  A    between atoms: C_2  and  O_3
REMARK    3  A    between atoms: O_3  and  C_4
REMARK    4  A    between atoms: C_7  and  S_8
REMARK    5  A    between atoms: S_8  and  N_11
REMARK    6  A    between atoms: N_11  and  C_12
REMARK    7  A    between atoms: C_12  and  C_13
REMARK                            x       y       z     vdW  Elec       q    Type
REMARK                         _______ _______ _______ _____ _____    ______ ____
ROOT
ATOM      1  S   UNL     1       4.319   6.030  17.544  0.00  0.00    +0.000 S 
ATOM      2  O   UNL     1       4.702   6.714  16.328  0.00  0.00    +0.000 OA
ATOM      3  O   UNL     1       5.292   5.644  18.542  0.00  0.00    +0.000 OA
ENDROOT
BRANCH   1   7
ATOM      4  C   UNL     1       1.300   8.696  19.712  0.00  0.00    +0.000 A 
ATOM      5  C   UNL     1       1.782   7.534  20.320  0.00  0.00    +0.000 A 
ATOM      6  C   UNL     1       2.684   6.705  19.650  0.00  0.00    +0.000 A 
ATOM      7  C   UNL     1       3.101   7.040  18.360  0.00  0.00    +0.000 A 
ATOM      8  C   UNL     1       2.612   8.195  17.742  0.00  0.00    +0.000 A 
ATOM      9  C   UNL     1       1.692   9.007  18.409  0.00  0.00    +0.000 A 
BRANCH   4  10
ATOM     10  O   UNL     1       0.456   9.446  20.482  0.00  0.00    +0.000 OA
BRANCH  10  12
ATOM     11  C   UNL     1      -0.266   9.400  22.750  0.00  0.00    +0.000 C 
ATOM     12  C   UNL     1       0.891   9.709  21.818  0.00  0.00    +0.000 C 
ENDBRANCH  10  12
ENDBRANCH   4  10
ENDBRANCH   1   7
BRANCH   1  13
ATOM     13  N   UNL     1       3.475   4.626  17.141  0.00  0.00    +0.000 NA
ATOM     14  H   UNL     1       3.481   4.442  16.135  0.00  0.00    +0.000 HD
BRANCH  13  15
ATOM     15  C   UNL     1       3.839   3.421  17.914  0.00  0.00    +0.000 C 
BRANCH  15  16
ATOM     16  C   UNL     1       2.921   3.188  19.092  0.00  0.00    +0.000 A 
ATOM     17  C   UNL     1       1.542   3.326  18.945  0.00  0.00    +0.000 A 
ATOM     18  C   UNL     1       0.729   3.156  20.061  0.00  0.00    +0.000 A 
ATOM     19  C   UNL     1       1.309   2.840  21.284  0.00  0.00    +0.000 A 
ATOM     20  C   UNL     1       2.684   2.692  21.338  0.00  0.00    +0.000 A 
ATOM     21  N   UNL     1       3.502   2.849  20.273  0.00  0.00    +0.000 NA
ENDBRANCH  15  16
ENDBRANCH  13  15
ENDBRANCH   1  13
TORSDOF 6
ENDMDL
MODEL 7
REMARK VINA RESULT:      -7.0      3.860      6.073
REMARK  Name = 
REMARK  7 active torsions:
REMARK  status: ('A' for Active; 'I' for Inactive)
REMARK    1  A    between atoms: C_1  and  C_2
REMARK    2  A    between atoms: C_2  and  O_3
REMARK    3  A    between atoms: O_3  and  C_4
REMARK    4  A    between atoms: C_7  and  S_8
REMARK    5  A    between atoms: S_8  and  N_11
REMARK    6  A    between atoms: N_11  and  C_12
REMARK    7  A    between atoms: C_12  and  C_13
REMARK                            x       y       z     vdW  Elec       q    Type
REMARK                         _______ _______ _______ _____ _____    ______ ____
ROOT
ATOM      1  S   UNL     1       4.759   4.986  17.322  0.00  0.00    +0.000 S 
ATOM      2  O   UNL     1       5.287   5.514  16.082  0.00  0.00    +0.000 OA
ATOM      3  O   UNL     1       5.623   4.483  18.366  0.00  0.00    +0.000 OA
ENDROOT
BRANCH   1   7
ATOM      4  C   UNL     1       2.023   8.188  19.105  0.00  0.00    +0.000 A 
ATOM      5  C   UNL     1       2.642   8.395  17.870  0.00  0.00    +0.000 A 
ATOM      6  C   UNL     1       3.498   7.430  17.335  0.00  0.00    +0.000 A 
ATOM      7  C   UNL     1       3.739   6.253  18.047  0.00  0.00    +0.000 A 
ATOM      8  C   UNL     1       3.133   6.047  19.290  0.00  0.00    +0.000 A 
ATOM      9  C   UNL     1       2.296   7.027  19.828  0.00  0.00    +0.000 A 
BRANCH   4  10
ATOM     10  O   UNL     1       1.176   9.184  19.503  0.00  0.00    +0.000 OA
BRANCH  10  12
ATOM     11  C   UNL     1      -0.642  10.202  18.352  0.00  0.00    +0.000 C 
ATOM     12  C   UNL     1       0.865  10.176  18.522  0.00  0.00    +0.000 C 
ENDBRANCH  10  12
ENDBRANCH   4  10
ENDBRANCH   1   7
BRANCH   1  13
ATOM     13  N   UNL     1       3.672   3.745  16.970  0.00  0.00    +0.000 NA
ATOM     14  H   UNL     1       3.683   3.485  15.980  0.00  0.00    +0.000 HD
BRANCH  13  15
ATOM     15  C   UNL     1       3.761   2.556  17.842  0.00  0.00    +0.000 C 
BRANCH  15  16
ATOM     16  C   UNL     1       2.856   2.654  19.049  0.00  0.00    +0.000 A 
ATOM     17  C   UNL     1       1.491   2.881  18.887  0.00  0.00    +0.000 A 
ATOM     18  C   UNL     1       0.695   3.019  20.019  0.00  0.00    +0.000 A 
ATOM     19  C   UNL     1       1.277   2.910  21.277  0.00  0.00    +0.000 A 
ATOM     20  C   UNL     1       2.635   2.653  21.351  0.00  0.00    +0.000 A 
ATOM     21  N   UNL     1       3.435   2.514  20.270  0.00  0.00    +0.000 NA
ENDBRANCH  15  16
ENDBRANCH  13  15
ENDBRANCH   1  13
TORSDOF 6
ENDMDL
MODEL 8
REMARK VINA RESULT:      -7.0      1.203      1.385
REMARK  Name = 
REMARK  7 active torsions:
REMARK  status: ('A' for Active; 'I' for Inactive)
REMARK    1  A    between atoms: C_1  and  C_2
REMARK    2  A    between atoms: C_2  and  O_3
REMARK    3  A    between atoms: O_3  and  C_4
REMARK    4  A    between atoms: C_7  and  S_8
REMARK    5  A    between atoms: S_8  and  N_11
REMARK    6  A    between atoms: N_11  and  C_12
REMARK    7  A    between atoms: C_12  and  C_13
REMARK                            x       y       z     vdW  Elec       q    Type
REMARK                         _______ _______ _______ _____ _____    ______ ____
ROOT
ATOM      1  S   UNL     1       6.640   5.482  17.853  0.00  0.00    +0.000 S 
ATOM      2  O   UNL     1       6.663   6.906  17.594  0.00  0.00    +0.000 OA
ATOM      3  O   UNL     1       7.212   4.916  19.053  0.00  0.00    +0.000 OA
ENDROOT
BRANCH   1   7
ATOM      4  C   UNL     1       2.284   4.087  17.811  0.00  0.00    +0.000 A 
ATOM      5  C   UNL     1       3.316   3.191  17.519  0.00  0.00    +0.000 A 
ATOM      6  C   UNL     1       4.645   3.621  17.506  0.00  0.00    +0.000 A 
ATOM      7  C   UNL     1       4.939   4.958  17.782  0.00  0.00    +0.000 A 
ATOM      8  C   UNL     1       3.909   5.861  18.060  0.00  0.00    +0.000 A 
ATOM      9  C   UNL     1       2.581   5.429  18.049  0.00  0.00    +0.000 A 
BRANCH   4  10
ATOM     10  O   UNL     1       1.032   3.540  17.834  0.00  0.00    +0.000 OA
BRANCH  10  12
ATOM     11  C   UNL     1       0.827   3.162  20.175  0.00  0.00    +0.000 C 
ATOM     12  C   UNL     1       0.811   2.514  18.804  0.00  0.00    +0.000 C 
ENDBRANCH  10  12
ENDBRANCH   4  10
ENDBRANCH   1   7
BRANCH   1  13
ATOM     13  N   UNL     1       7.365   4.678  16.559  0.00  0.00    +0.000 NA
ATOM     14  H   UNL     1       6.952   3.757  16.391  0.00  0.00    +0.000 HD
BRANCH  13  15
ATOM     15  C   UNL     1       7.477   5.457  15.309  0.00  0.00    +0.000 C 
BRANCH  15  16
ATOM     16  C   UNL     1       6.864   4.745  14.125  0.00  0.00    +0.000 A 
ATOM     17  C   UNL     1       5.598   4.173  14.228  0.00  0.00    +0.000 A 
ATOM     18  C   UNL     1       5.085   3.480  13.136  0.00  0.00    +0.000 A 
ATOM     19  C   UNL     1       5.839   3.390  11.972  0.00  0.00    +0.000 A 
ATOM     20  C   UNL     1       7.075   4.012  11.942  0.00  0.00    +0.000 A 
ATOM     21  N   UNL     1       7.601   4.694  12.984  0.00  0.00    +0.000 NA
ENDBRANCH  15  16
ENDBRANCH  13  15
ENDBRANCH   1  13
TORSDOF 6
ENDMDL
MODEL 9
REMARK VINA RESULT:      -7.0      3.509      4.918
REMARK  Name = 
REMARK  7 active torsions:
REMARK  status: ('A' for Active; 'I' for Inactive)
REMARK    1  A    between atoms: C_1  and  C_2
REMARK    2  A    between atoms: C_2  and  O_3
REMARK    3  A    between atoms: O_3  and  C_4
REMARK    4  A    between atoms: C_7  and  S_8
REMARK    5  A    between atoms: S_8  and  N_11
REMARK    6  A    between atoms: N_11  and  C_12
REMARK    7  A    between atoms: C_12  and  C_13
REMARK                            x       y       z     vdW  Elec       q    Type
REMARK                         _______ _______ _______ _____ _____    ______ ____
ROOT
ATOM      1  S   UNL     1       2.733   3.225  18.182  0.00  0.00    +0.000 S 
ATOM      2  O   UNL     1       2.210   2.219  19.082  0.00  0.00    +0.000 OA
ATOM      3  O   UNL     1       2.292   3.326  16.809  0.00  0.00    +0.000 OA
ENDROOT
BRANCH   1   7
ATOM      4  C   UNL     1       1.886   7.305  20.069  0.00  0.00    +0.000 A 
ATOM      5  C   UNL     1       2.398   7.219  18.772  0.00  0.00    +0.000 A 
ATOM      6  C   UNL     1       2.682   5.976  18.203  0.00  0.00    +0.000 A 
ATOM      7  C   UNL     1       2.456   4.812  18.942  0.00  0.00    +0.000 A 
ATOM      8  C   UNL     1       1.956   4.893  20.245  0.00  0.00    +0.000 A 
ATOM      9  C   UNL     1       1.697   6.142  20.816  0.00  0.00    +0.000 A 
BRANCH   4  10
ATOM     10  O   UNL     1       1.610   8.572  20.500  0.00  0.00    +0.000 OA
BRANCH  10  12
ATOM     11  C   UNL     1      -0.284   9.961  20.110  0.00  0.00    +0.000 C 
ATOM     12  C   UNL     1       1.025   9.451  19.536  0.00  0.00    +0.000 C 
ENDBRANCH  10  12
ENDBRANCH   4  10
ENDBRANCH   1   7
BRANCH   1  13
ATOM     13  N   UNL     1       4.415   3.092  18.129  0.00  0.00    +0.000 NA
ATOM     14  H   UNL     1       4.730   2.119  18.141  0.00  0.00    +0.000 HD
BRANCH  13  15
ATOM     15  C   UNL     1       5.079   3.863  17.059  0.00  0.00    +0.000 C 
BRANCH  15  16
ATOM     16  C   UNL     1       6.052   4.885  17.599  0.00  0.00    +0.000 A 
ATOM     17  C   UNL     1       6.436   5.972  16.816  0.00  0.00    +0.000 A 
ATOM     18  C   UNL     1       7.373   6.866  17.324  0.00  0.00    +0.000 A 
ATOM     19  C   UNL     1       7.889   6.661  18.598  0.00  0.00    +0.000 A 
ATOM     20  C   UNL     1       7.432   5.574  19.322  0.00  0.00    +0.000 A 
ATOM     21  N   UNL     1       6.522   4.688  18.859  0.00  0.00    +0.000 NA
ENDBRANCH  15  16
ENDBRANCH  13  15
ENDBRANCH   1  13
TORSDOF 6
ENDMDL
