MODEL 1
REMARK VINA RESULT:      -7.8      0.000      0.000
REMARK  Name = 
REMARK  7 active torsions:
REMARK  status: ('A' for Active; 'I' for Inactive)
REMARK    1  A    between atoms: C_2  and  C_3
REMARK    2  A    between atoms: C_2  and  C_4
REMARK    3  A    between atoms: C_4  and  O_5
REMARK    4  A    between atoms: O_5  and  C_6
REMARK    5  A    between atoms: C_10  and  C_11
REMARK    6  A    between atoms: C_12  and  C_13
REMARK    7  A    between atoms: C_13  and  C_14
REMARK                            x       y       z     vdW  Elec       q    Type
REMARK                         _______ _______ _______ _____ _____    ______ ____
ROOT
ATOM      1  C   UNL     1       2.179   7.676  19.059  0.00  0.00    +0.000 A 
ATOM      2  C   UNL     1       1.854   8.531  18.007  0.00  0.00    +0.000 A 
ATOM      3  C   UNL     1       1.086   9.690  18.229  0.00  0.00    +0.000 A 
ATOM      4  C   UNL     1       0.626  10.029  19.510  0.00  0.00    +0.000 A 
ATOM      5  C   UNL     1      -0.200  11.216  19.836  0.00  0.00    +0.000 A 
ATOM      6  C   UNL     1      -0.518  12.233  18.770  0.00  0.00    +0.000 C 
ATOM      7  C   UNL     1      -0.695  11.353  21.089  0.00  0.00    +0.000 A 
ATOM      8  C   UNL     1      -0.447  10.317  22.127  0.00  0.00    +0.000 A 
ATOM      9  O   UNL     1      -1.093  10.286  23.170  0.00  0.00    +0.000 OA
ATOM     10  O   UNL     1       0.523   9.368  21.856  0.00  0.00    +0.000 OA
ATOM     11  C   UNL     1       0.980   9.161  20.542  0.00  0.00    +0.000 A 
ATOM     12  C   UNL     1       1.758   8.009  20.342  0.00  0.00    +0.000 A 
ENDROOT
BRANCH   1  13
ATOM     13  O   UNL     1       2.930   6.577  18.730  0.00  0.00    +0.000 OA
BRANCH  13  14
ATOM     14  C   UNL     1       2.829   5.474  19.638  0.00  0.00    +0.000 C 
BRANCH  14  16
ATOM     15  C   UNL     1       1.627   4.234  17.820  0.00  0.00    +0.000 C 
ATOM     16  C   UNL     1       1.804   4.482  19.131  0.00  0.00    +0.000 C 
ATOM     17  C   UNL     1       0.938   3.831  20.172  0.00  0.00    +0.000 C 
ENDBRANCH  14  16
ENDBRANCH  13  14
ENDBRANCH   1  13
BRANCH   7  18
ATOM     18  C   UNL     1      -1.612  12.472  21.558  0.00  0.00    +0.000 C 
BRANCH  18  19
ATOM     19  C   UNL     1      -0.945  13.512  22.470  0.00  0.00    +0.000 C 
ATOM     20  O   UNL     1       0.119  14.043  22.144  0.00  0.00    +0.000 OA
ATOM     21  N   UNL     1      -1.638  13.895  23.627  0.00  0.00    +0.000 N 
ATOM     22  C   UNL     1      -1.146  15.052  24.382  0.00  0.00    +0.000 C 
ATOM     23  C   UNL     1      -2.195  16.187  24.345  0.00  0.00    +0.000 C 
ATOM     24  C   UNL     1      -3.452  15.687  25.061  0.00  0.00    +0.000 C 
ATOM     25  C   UNL     1      -3.998  14.507  24.258  0.00  0.00    +0.000 C 
ATOM     26  C   UNL     1      -2.940  13.389  24.079  0.00  0.00    +0.000 C 
ATOM     27  C   UNL     1      -4.482  15.042  22.911  0.00  0.00    +0.000 C 
ATOM     28  N   UNL     1      -3.556  15.938  22.225  0.00  0.00    +0.000 N 
ATOM     29  C   UNL     1      -2.504  16.570  22.900  0.00  0.00    +0.000 A 
ATOM     30  C   UNL     1      -1.725  17.452  22.246  0.00  0.00    +0.000 A 
ATOM     31  C   UNL     1      -1.945  17.741  20.855  0.00  0.00    +0.000 A 
ATOM     32  C   UNL     1      -2.940  17.147  20.186  0.00  0.00    +0.000 A 
ATOM     33  C   UNL     1      -3.839  16.191  20.879  0.00  0.00    +0.000 A 
ATOM     34  O   UNL     1      -4.755  15.678  20.246  0.00  0.00    +0.000 OA
ENDBRANCH  18  19
ENDBRANCH   7  18
TORSDOF 5
ENDMDL
MODEL 2
REMARK VINA RESULT:      -7.6      1.532      3.019
REMARK  Name = 
REMARK  7 active torsions:
REMARK  status: ('A' for Active; 'I' for Inactive)
REMARK    1  A    between atoms: C_2  and  C_3
REMARK    2  A    between atoms: C_2  and  C_4
REMARK    3  A    between atoms: C_4  and  O_5
REMARK    4  A    between atoms: O_5  and  C_6
REMARK    5  A    between atoms: C_10  and  C_11
REMARK    6  A    between atoms: C_12  and  C_13
REMARK    7  A    between atoms: C_13  and  C_14
REMARK                            x       y       z     vdW  Elec       q    Type
REMARK                         _______ _______ _______ _____ _____    ______ ____
ROOT
ATOM      1  C   UNL     1       2.266   6.832  18.867  0.00  0.00    +0.000 A 
ATOM      2  C   UNL     1       2.072   7.772  17.856  0.00  0.00    +0.000 A 
ATOM      3  C   UNL     1       1.638   9.077  18.157  0.00  0.00    +0.000 A 
ATOM      4  C   UNL     1       1.390   9.481  19.476  0.00  0.00    +0.000 A 
ATOM      5  C   UNL     1       0.916  10.824  19.886  0.00  0.00    +0.000 A 
ATOM      6  C   UNL     1       0.768  11.919  18.862  0.00  0.00    +0.000 C 
ATOM      7  C   UNL     1       0.582  11.041  21.181  0.00  0.00    +0.000 A 
ATOM      8  C   UNL     1       0.655   9.945  22.184  0.00  0.00    +0.000 A 
ATOM      9  O   UNL     1       0.115  10.044  23.281  0.00  0.00    +0.000 OA
ATOM     10  O   UNL     1       1.332   8.795  21.817  0.00  0.00    +0.000 OA
ATOM     11  C   UNL     1       1.606   8.522  20.465  0.00  0.00    +0.000 A 
ATOM     12  C   UNL     1       2.054   7.221  20.186  0.00  0.00    +0.000 A 
ENDROOT
BRANCH   1  13
ATOM     13  O   UNL     1       2.689   5.592  18.462  0.00  0.00    +0.000 OA
BRANCH  13  14
ATOM     14  C   UNL     1       1.676   4.758  17.888  0.00  0.00    +0.000 C 
BRANCH  14  16
ATOM     15  C   UNL     1       0.907   3.550  19.945  0.00  0.00    +0.000 C 
ATOM     16  C   UNL     1       1.491   3.517  18.734  0.00  0.00    +0.000 C 
ATOM     17  C   UNL     1       2.062   2.243  18.177  0.00  0.00    +0.000 C 
ENDBRANCH  14  16
ENDBRANCH  13  14
ENDBRANCH   1  13
BRANCH   7  18
ATOM     18  C   UNL     1       0.015  12.337  21.740  0.00  0.00    +0.000 C 
BRANCH  18  19
ATOM     19  C   UNL     1      -1.504  12.495  21.586  0.00  0.00    +0.000 C 
ATOM     20  O   UNL     1      -2.278  11.739  22.178  0.00  0.00    +0.000 OA
ATOM     21  N   UNL     1      -1.967  13.579  20.828  0.00  0.00    +0.000 N 
ATOM     22  C   UNL     1      -3.399  13.894  20.864  0.00  0.00    +0.000 C 
ATOM     23  C   UNL     1      -3.615  15.283  21.508  0.00  0.00    +0.000 C 
ATOM     24  C   UNL     1      -2.951  16.326  20.606  0.00  0.00    +0.000 C 
ATOM     25  C   UNL     1      -1.451  16.033  20.594  0.00  0.00    +0.000 C 
ATOM     26  C   UNL     1      -1.147  14.583  20.139  0.00  0.00    +0.000 C 
ATOM     27  C   UNL     1      -0.911  16.305  21.998  0.00  0.00    +0.000 C 
ATOM     28  N   UNL     1      -1.689  15.730  23.090  0.00  0.00    +0.000 N 
ATOM     29  C   UNL     1      -3.014  15.311  22.911  0.00  0.00    +0.000 A 
ATOM     30  C   UNL     1      -3.721  14.863  23.965  0.00  0.00    +0.000 A 
ATOM     31  C   UNL     1      -3.128  14.788  25.273  0.00  0.00    +0.000 A 
ATOM     32  C   UNL     1      -1.863  15.177  25.470  0.00  0.00    +0.000 A 
ATOM     33  C   UNL     1      -1.060  15.705  24.339  0.00  0.00    +0.000 A 
ATOM     34  O   UNL     1       0.089  16.074  24.553  0.00  0.00    +0.000 OA
ENDBRANCH  18  19
ENDBRANCH   7  18
TORSDOF 5
ENDMDL
MODEL 3
REMARK VINA RESULT:      -7.5      3.588     10.776
REMARK  Name = 
REMARK  7 active torsions:
REMARK  status: ('A' for Active; 'I' for Inactive)
REMARK    1  A    between atoms: C_2  and  C_3
REMARK    2  A    between atoms: C_2  and  C_4
REMARK    3  A    between atoms: C_4  and  O_5
REMARK    4  A    between atoms: O_5  and  C_6
REMARK    5  A    between atoms: C_10  and  C_11
REMARK    6  A    between atoms: C_12  and  C_13
REMARK    7  A    between atoms: C_13  and  C_14
REMARK                            x       y       z     vdW  Elec       q    Type
REMARK                         _______ _______ _______ _____ _____    ______ ____
ROOT
ATOM      1  C   UNL     1      -1.425  12.431  20.395  0.00  0.00    +0.000 A 
ATOM      2  C   UNL     1      -0.615  12.738  19.303  0.00  0.00    +0.000 A 
ATOM      3  C   UNL     1       0.326  11.810  18.818  0.00  0.00    +0.000 A 
ATOM      4  C   UNL     1       0.480  10.547  19.408  0.00  0.00    +0.000 A 
ATOM      5  C   UNL     1       1.453   9.515  18.977  0.00  0.00    +0.000 A 
ATOM      6  C   UNL     1       2.300   9.737  17.752  0.00  0.00    +0.000 C 
ATOM      7  C   UNL     1       1.596   8.391  19.720  0.00  0.00    +0.000 A 
ATOM      8  C   UNL     1       0.816   8.197  20.972  0.00  0.00    +0.000 A 
ATOM      9  O   UNL     1       1.117   7.330  21.787  0.00  0.00    +0.000 OA
ATOM     10  O   UNL     1      -0.245   9.056  21.197  0.00  0.00    +0.000 OA
ATOM     11  C   UNL     1      -0.354  10.266  20.490  0.00  0.00    +0.000 A 
ATOM     12  C   UNL     1      -1.308  11.173  20.977  0.00  0.00    +0.000 A 
ENDROOT
BRANCH   1  13
ATOM     13  O   UNL     1      -2.305  13.408  20.784  0.00  0.00    +0.000 OA
BRANCH  13  14
ATOM     14  C   UNL     1      -2.411  13.607  22.199  0.00  0.00    +0.000 C 
BRANCH  14  16
ATOM     15  C   UNL     1      -3.955  12.752  23.980  0.00  0.00    +0.000 C 
ATOM     16  C   UNL     1      -3.742  13.080  22.693  0.00  0.00    +0.000 C 
ATOM     17  C   UNL     1      -4.804  12.876  21.649  0.00  0.00    +0.000 C 
ENDBRANCH  14  16
ENDBRANCH  13  14
ENDBRANCH   1  13
BRANCH   7  18
ATOM     18  C   UNL     1       2.596   7.278  19.452  0.00  0.00    +0.000 C 
BRANCH  18  19
ATOM     19  C   UNL     1       2.186   6.296  18.345  0.00  0.00    +0.000 C 
ATOM     20  O   UNL     1       2.142   6.659  17.167  0.00  0.00    +0.000 OA
ATOM     21  N   UNL     1       1.957   4.964  18.716  0.00  0.00    +0.000 N 
ATOM     22  C   UNL     1       1.804   3.962  17.656  0.00  0.00    +0.000 C 
ATOM     23  C   UNL     1       2.965   2.943  17.724  0.00  0.00    +0.000 C 
ATOM     24  C   UNL     1       2.858   2.201  19.059  0.00  0.00    +0.000 C 
ATOM     25  C   UNL     1       3.059   3.229  20.171  0.00  0.00    +0.000 C 
ATOM     26  C   UNL     1       2.050   4.400  20.068  0.00  0.00    +0.000 C 
ATOM     27  C   UNL     1       4.503   3.725  20.094  0.00  0.00    +0.000 C 
ATOM     28  N   UNL     1       4.967   4.093  18.761  0.00  0.00    +0.000 N 
ATOM     29  C   UNL     1       4.304   3.664  17.604  0.00  0.00    +0.000 A 
ATOM     30  C   UNL     1       4.814   3.959  16.394  0.00  0.00    +0.000 A 
ATOM     31  C   UNL     1       6.023   4.728  16.270  0.00  0.00    +0.000 A 
ATOM     32  C   UNL     1       6.672   5.154  17.358  0.00  0.00    +0.000 A 
ATOM     33  C   UNL     1       6.158   4.825  18.711  0.00  0.00    +0.000 A 
ATOM     34  O   UNL     1       6.786   5.211  19.691  0.00  0.00    +0.000 OA
ENDBRANCH  18  19
ENDBRANCH   7  18
TORSDOF 5
ENDMDL
MODEL 4
REMARK VINA RESULT:      -7.5      2.641      4.066
REMARK  Name = 
REMARK  7 active torsions:
REMARK  status: ('A' for Active; 'I' for Inactive)
REMARK    1  A    between atoms: C_2  and  C_3
REMARK    2  A    between atoms: C_2  and  C_4
REMARK    3  A    between atoms: C_4  and  O_5
REMARK    4  A    between atoms: O_5  and  C_6
REMARK    5  A    between atoms: C_10  and  C_11
REMARK    6  A    between atoms: C_12  and  C_13
REMARK    7  A    between atoms: C_13  and  C_14
REMARK                            x       y       z     vdW  Elec       q    Type
REMARK                         _______ _______ _______ _____ _____    ______ ____
ROOT
ATOM      1  C   UNL     1       3.787   5.789  18.574  0.00  0.00    +0.000 A 
ATOM      2  C   UNL     1       3.835   6.786  17.601  0.00  0.00    +0.000 A 
ATOM      3  C   UNL     1       3.045   7.946  17.716  0.00  0.00    +0.000 A 
ATOM      4  C   UNL     1       2.191   8.145  18.809  0.00  0.00    +0.000 A 
ATOM      5  C   UNL     1       1.313   9.323  19.006  0.00  0.00    +0.000 A 
ATOM      6  C   UNL     1       1.373  10.481  18.045  0.00  0.00    +0.000 C 
ATOM      7  C   UNL     1       0.432   9.326  20.036  0.00  0.00    +0.000 A 
ATOM      8  C   UNL     1       0.315   8.155  20.946  0.00  0.00    +0.000 A 
ATOM      9  O   UNL     1      -0.640   8.028  21.706  0.00  0.00    +0.000 OA
ATOM     10  O   UNL     1       1.313   7.199  20.880  0.00  0.00    +0.000 OA
ATOM     11  C   UNL     1       2.176   7.136  19.772  0.00  0.00    +0.000 A 
ATOM     12  C   UNL     1       2.968   5.980  19.682  0.00  0.00    +0.000 A 
ENDROOT
BRANCH   1  13
ATOM     13  O   UNL     1       4.596   4.703  18.361  0.00  0.00    +0.000 OA
BRANCH  13  14
ATOM     14  C   UNL     1       5.771   4.646  19.179  0.00  0.00    +0.000 C 
BRANCH  14  16
ATOM     15  C   UNL     1       7.168   4.780  17.101  0.00  0.00    +0.000 C 
ATOM     16  C   UNL     1       6.971   5.121  18.388  0.00  0.00    +0.000 C 
ATOM     17  C   UNL     1       7.979   5.945  19.140  0.00  0.00    +0.000 C 
ENDBRANCH  14  16
ENDBRANCH  13  14
ENDBRANCH   1  13
BRANCH   7  18
ATOM     18  C   UNL     1      -0.580  10.423  20.327  0.00  0.00    +0.000 C 
BRANCH  18  19
ATOM     19  C   UNL     1      -0.310  11.224  21.609  0.00  0.00    +0.000 C 
ATOM     20  O   UNL     1       0.610  10.908  22.366  0.00  0.00    +0.000 OA
ATOM     21  N   UNL     1      -1.086  12.371  21.829  0.00  0.00    +0.000 N 
ATOM     22  C   UNL     1      -0.691  13.282  22.908  0.00  0.00    +0.000 C 
ATOM     23  C   UNL     1      -0.279  14.650  22.316  0.00  0.00    +0.000 C 
ATOM     24  C   UNL     1      -1.511  15.260  21.643  0.00  0.00    +0.000 C 
ATOM     25  C   UNL     1      -1.906  14.340  20.489  0.00  0.00    +0.000 C 
ATOM     26  C   UNL     1      -2.156  12.887  20.965  0.00  0.00    +0.000 C 
ATOM     27  C   UNL     1      -0.796  14.402  19.440  0.00  0.00    +0.000 C 
ATOM     28  N   UNL     1       0.562  14.270  19.958  0.00  0.00    +0.000 N 
ATOM     29  C   UNL     1       0.857  14.467  21.313  0.00  0.00    +0.000 A 
ATOM     30  C   UNL     1       2.135  14.416  21.732  0.00  0.00    +0.000 A 
ATOM     31  C   UNL     1       3.204  14.140  20.810  0.00  0.00    +0.000 A 
ATOM     32  C   UNL     1       2.948  13.943  19.512  0.00  0.00    +0.000 A 
ATOM     33  C   UNL     1       1.555  14.021  19.005  0.00  0.00    +0.000 A 
ATOM     34  O   UNL     1       1.353  13.858  17.807  0.00  0.00    +0.000 OA
ENDBRANCH  18  19
ENDBRANCH   7  18
TORSDOF 5
ENDMDL
MODEL 5
REMARK VINA RESULT:      -7.4      1.387      2.029
REMARK  Name = 
REMARK  7 active torsions:
REMARK  status: ('A' for Active; 'I' for Inactive)
REMARK    1  A    between atoms: C_2  and  C_3
REMARK    2  A    between atoms: C_2  and  C_4
REMARK    3  A    between atoms: C_4  and  O_5
REMARK    4  A    between atoms: O_5  and  C_6
REMARK    5  A    between atoms: C_10  and  C_11
REMARK    6  A    between atoms: C_12  and  C_13
REMARK    7  A    between atoms: C_13  and  C_14
REMARK                            x       y       z     vdW  Elec       q    Type
REMARK                         _______ _______ _______ _____ _____    ______ ____
ROOT
ATOM      1  C   UNL     1       2.570   7.642  18.511  0.00  0.00    +0.000 A 
ATOM      2  C   UNL     1       2.351   7.366  19.860  0.00  0.00    +0.000 A 
ATOM      3  C   UNL     1       1.444   8.133  20.617  0.00  0.00    +0.000 A 
ATOM      4  C   UNL     1       0.727   9.193  20.045  0.00  0.00    +0.000 A 
ATOM      5  C   UNL     1      -0.233  10.063  20.764  0.00  0.00    +0.000 A 
ATOM      6  C   UNL     1      -0.589   9.773  22.199  0.00  0.00    +0.000 C 
ATOM      7  C   UNL     1      -0.755  11.140  20.129  0.00  0.00    +0.000 A 
ATOM      8  C   UNL     1      -0.352  11.476  18.736  0.00  0.00    +0.000 A 
ATOM      9  O   UNL     1      -0.600  12.572  18.244  0.00  0.00    +0.000 OA
ATOM     10  O   UNL     1       0.341  10.511  18.027  0.00  0.00    +0.000 OA
ATOM     11  C   UNL     1       0.958   9.435  18.691  0.00  0.00    +0.000 A 
ATOM     12  C   UNL     1       1.846   8.671  17.917  0.00  0.00    +0.000 A 
ENDROOT
BRANCH   1  13
ATOM     13  O   UNL     1       3.474   6.834  17.871  0.00  0.00    +0.000 OA
BRANCH  13  14
ATOM     14  C   UNL     1       3.740   5.584  18.517  0.00  0.00    +0.000 C 
BRANCH  14  16
ATOM     15  C   UNL     1       4.037   3.751  16.833  0.00  0.00    +0.000 C 
ATOM     16  C   UNL     1       3.233   4.444  17.660  0.00  0.00    +0.000 C 
ATOM     17  C   UNL     1       1.757   4.167  17.729  0.00  0.00    +0.000 C 
ENDBRANCH  14  16
ENDBRANCH  13  14
ENDBRANCH   1  13
BRANCH   7  18
ATOM     18  C   UNL     1      -1.692  12.163  20.751  0.00  0.00    +0.000 C 
BRANCH  18  19
ATOM     19  C   UNL     1      -1.022  13.144  21.723  0.00  0.00    +0.000 C 
ATOM     20  O   UNL     1      -0.096  13.868  21.348  0.00  0.00    +0.000 OA
ATOM     21  N   UNL     1      -1.562  13.246  23.013  0.00  0.00    +0.000 N 
ATOM     22  C   UNL     1      -1.103  14.339  23.876  0.00  0.00    +0.000 C 
ATOM     23  C   UNL     1      -2.275  15.301  24.175  0.00  0.00    +0.000 C 
ATOM     24  C   UNL     1      -3.331  14.522  24.963  0.00  0.00    +0.000 C 
ATOM     25  C   UNL     1      -3.848  13.406  24.057  0.00  0.00    +0.000 C 
ATOM     26  C   UNL     1      -2.704  12.494  23.549  0.00  0.00    +0.000 C 
ATOM     27  C   UNL     1      -4.603  14.057  22.898  0.00  0.00    +0.000 C 
ATOM     28  N   UNL     1      -3.916  15.171  22.251  0.00  0.00    +0.000 N 
ATOM     29  C   UNL     1      -2.855  15.843  22.872  0.00  0.00    +0.000 A 
ATOM     30  C   UNL     1      -2.305  16.916  22.274  0.00  0.00    +0.000 A 
ATOM     31  C   UNL     1      -2.777  17.372  20.994  0.00  0.00    +0.000 A 
ATOM     32  C   UNL     1      -3.785  16.744  20.379  0.00  0.00    +0.000 A 
ATOM     33  C   UNL     1      -4.438  15.575  21.019  0.00  0.00    +0.000 A 
ATOM     34  O   UNL     1      -5.374  15.032  20.442  0.00  0.00    +0.000 OA
ENDBRANCH  18  19
ENDBRANCH   7  18
TORSDOF 5
ENDMDL
MODEL 6
REMARK VINA RESULT:      -7.4      2.676      4.138
REMARK  Name = 
REMARK  7 active torsions:
REMARK  status: ('A' for Active; 'I' for Inactive)
REMARK    1  A    between atoms: C_2  and  C_3
REMARK    2  A    between atoms: C_2  and  C_4
REMARK    3  A    between atoms: C_4  and  O_5
REMARK    4  A    between atoms: O_5  and  C_6
REMARK    5  A    between atoms: C_10  and  C_11
REMARK    6  A    between atoms: C_12  and  C_13
REMARK    7  A    between atoms: C_13  and  C_14
REMARK                            x       y       z     vdW  Elec       q    Type
REMARK                         _______ _______ _______ _____ _____    ______ ____
ROOT
ATOM      1  C   UNL     1       3.922   5.657  18.573  0.00  0.00    +0.000 A 
ATOM      2  C   UNL     1       3.968   6.642  17.588  0.00  0.00    +0.000 A 
ATOM      3  C   UNL     1       3.175   7.801  17.688  0.00  0.00    +0.000 A 
ATOM      4  C   UNL     1       2.317   8.010  18.777  0.00  0.00    +0.000 A 
ATOM      5  C   UNL     1       1.435   9.188  18.958  0.00  0.00    +0.000 A 
ATOM      6  C   UNL     1       1.494  10.334  17.983  0.00  0.00    +0.000 C 
ATOM      7  C   UNL     1       0.552   9.201  19.986  0.00  0.00    +0.000 A 
ATOM      8  C   UNL     1       0.437   8.041  20.910  0.00  0.00    +0.000 A 
ATOM      9  O   UNL     1      -0.519   7.919  21.669  0.00  0.00    +0.000 OA
ATOM     10  O   UNL     1       1.438   7.086  20.857  0.00  0.00    +0.000 OA
ATOM     11  C   UNL     1       2.304   7.013  19.752  0.00  0.00    +0.000 A 
ATOM     12  C   UNL     1       3.099   5.858  19.677  0.00  0.00    +0.000 A 
ENDROOT
BRANCH   1  13
ATOM     13  O   UNL     1       4.734   4.570  18.375  0.00  0.00    +0.000 OA
BRANCH  13  14
ATOM     14  C   UNL     1       4.677   3.995  17.065  0.00  0.00    +0.000 C 
BRANCH  14  16
ATOM     15  C   UNL     1       7.114   4.578  16.989  0.00  0.00    +0.000 C 
ATOM     16  C   UNL     1       5.986   4.230  16.343  0.00  0.00    +0.000 C 
ATOM     17  C   UNL     1       5.947   4.119  14.844  0.00  0.00    +0.000 C 
ENDBRANCH  14  16
ENDBRANCH  13  14
ENDBRANCH   1  13
BRANCH   7  18
ATOM     18  C   UNL     1      -0.464  10.298  20.262  0.00  0.00    +0.000 C 
BRANCH  18  19
ATOM     19  C   UNL     1      -0.214  11.098  21.549  0.00  0.00    +0.000 C 
ATOM     20  O   UNL     1       0.716  10.802  22.302  0.00  0.00    +0.000 OA
ATOM     21  N   UNL     1      -1.021  12.221  21.777  0.00  0.00    +0.000 N 
ATOM     22  C   UNL     1      -0.650  13.136  22.861  0.00  0.00    +0.000 C 
ATOM     23  C   UNL     1      -0.276  14.518  22.278  0.00  0.00    +0.000 C 
ATOM     24  C   UNL     1      -1.526  15.098  21.611  0.00  0.00    +0.000 C 
ATOM     25  C   UNL     1      -1.897  14.175  20.452  0.00  0.00    +0.000 C 
ATOM     26  C   UNL     1      -2.106  12.713  20.919  0.00  0.00    +0.000 C 
ATOM     27  C   UNL     1      -0.791  14.276  19.402  0.00  0.00    +0.000 C 
ATOM     28  N   UNL     1       0.571  14.177  19.917  0.00  0.00    +0.000 N 
ATOM     29  C   UNL     1       0.863  14.374  21.273  0.00  0.00    +0.000 A 
ATOM     30  C   UNL     1       2.142  14.355  21.690  0.00  0.00    +0.000 A 
ATOM     31  C   UNL     1       3.217  14.115  20.764  0.00  0.00    +0.000 A 
ATOM     32  C   UNL     1       2.964  13.920  19.465  0.00  0.00    +0.000 A 
ATOM     33  C   UNL     1       1.569  13.962  18.961  0.00  0.00    +0.000 A 
ATOM     34  O   UNL     1       1.369  13.802  17.762  0.00  0.00    +0.000 OA
ENDBRANCH  18  19
ENDBRANCH   7  18
TORSDOF 5
ENDMDL
MODEL 7
REMARK VINA RESULT:      -7.4      1.979      3.821
REMARK  Name = 
REMARK  7 active torsions:
REMARK  status: ('A' for Active; 'I' for Inactive)
REMARK    1  A    between atoms: C_2  and  C_3
REMARK    2  A    between atoms: C_2  and  C_4
REMARK    3  A    between atoms: C_4  and  O_5
REMARK    4  A    between atoms: O_5  and  C_6
REMARK    5  A    between atoms: C_10  and  C_11
REMARK    6  A    between atoms: C_12  and  C_13
REMARK    7  A    between atoms: C_13  and  C_14
REMARK                            x       y       z     vdW  Elec       q    Type
REMARK                         _______ _______ _______ _____ _____    ______ ____
ROOT
ATOM      1  C   UNL     1       1.622   8.138  20.053  0.00  0.00    +0.000 A 
ATOM      2  C   UNL     1       1.245   8.244  21.391  0.00  0.00    +0.000 A 
ATOM      3  C   UNL     1       0.430   9.305  21.830  0.00  0.00    +0.000 A 
ATOM      4  C   UNL     1      -0.037  10.285  20.943  0.00  0.00    +0.000 A 
ATOM      5  C   UNL     1      -0.883  11.444  21.315  0.00  0.00    +0.000 A 
ATOM      6  C   UNL     1      -1.403  11.579  22.723  0.00  0.00    +0.000 C 
ATOM      7  C   UNL     1      -1.149  12.394  20.387  0.00  0.00    +0.000 A 
ATOM      8  C   UNL     1      -0.579  12.305  19.016  0.00  0.00    +0.000 A 
ATOM      9  O   UNL     1      -0.585  13.268  18.256  0.00  0.00    +0.000 OA
ATOM     10  O   UNL     1      -0.012  11.100  18.642  0.00  0.00    +0.000 OA
ATOM     11  C   UNL     1       0.346  10.143  19.609  0.00  0.00    +0.000 A 
ATOM     12  C   UNL     1       1.146   9.084  19.151  0.00  0.00    +0.000 A 
ENDROOT
BRANCH   1  13
ATOM     13  O   UNL     1       2.418   7.067  19.736  0.00  0.00    +0.000 OA
BRANCH  13  14
ATOM     14  C   UNL     1       2.633   6.860  18.335  0.00  0.00    +0.000 C 
BRANCH  14  16
ATOM     15  C   UNL     1       4.066   4.932  17.618  0.00  0.00    +0.000 C 
ATOM     16  C   UNL     1       2.884   5.392  18.066  0.00  0.00    +0.000 C 
ATOM     17  C   UNL     1       1.711   4.471  18.260  0.00  0.00    +0.000 C 
ENDBRANCH  14  16
ENDBRANCH  13  14
ENDBRANCH   1  13
BRANCH   7  18
ATOM     18  C   UNL     1      -1.938  13.671  20.633  0.00  0.00    +0.000 C 
BRANCH  18  19
ATOM     19  C   UNL     1      -3.458  13.531  20.465  0.00  0.00    +0.000 C 
ATOM     20  O   UNL     1      -3.975  12.421  20.322  0.00  0.00    +0.000 OA
ATOM     21  N   UNL     1      -4.229  14.696  20.573  0.00  0.00    +0.000 N 
ATOM     22  C   UNL     1      -5.687  14.561  20.661  0.00  0.00    +0.000 C 
ATOM     23  C   UNL     1      -6.180  15.066  22.036  0.00  0.00    +0.000 C 
ATOM     24  C   UNL     1      -5.863  16.560  22.128  0.00  0.00    +0.000 C 
ATOM     25  C   UNL     1      -4.344  16.710  22.081  0.00  0.00    +0.000 C 
ATOM     26  C   UNL     1      -3.735  16.058  20.815  0.00  0.00    +0.000 C 
ATOM     27  C   UNL     1      -3.773  16.094  23.358  0.00  0.00    +0.000 C 
ATOM     28  N   UNL     1      -4.299  14.777  23.706  0.00  0.00    +0.000 N 
ATOM     29  C   UNL     1      -5.493  14.291  23.157  0.00  0.00    +0.000 A 
ATOM     30  C   UNL     1      -5.982  13.107  23.568  0.00  0.00    +0.000 A 
ATOM     31  C   UNL     1      -5.285  12.320  24.550  0.00  0.00    +0.000 A 
ATOM     32  C   UNL     1      -4.141  12.760  25.085  0.00  0.00    +0.000 A 
ATOM     33  C   UNL     1      -3.583  14.074  24.680  0.00  0.00    +0.000 A 
ATOM     34  O   UNL     1      -2.544  14.461  25.203  0.00  0.00    +0.000 OA
ENDBRANCH  18  19
ENDBRANCH   7  18
TORSDOF 5
ENDMDL
MODEL 8
REMARK VINA RESULT:      -7.3      1.701      3.431
REMARK  Name = 
REMARK  7 active torsions:
REMARK  status: ('A' for Active; 'I' for Inactive)
REMARK    1  A    between atoms: C_2  and  C_3
REMARK    2  A    between atoms: C_2  and  C_4
REMARK    3  A    between atoms: C_4  and  O_5
REMARK    4  A    between atoms: O_5  and  C_6
REMARK    5  A    between atoms: C_10  and  C_11
REMARK    6  A    between atoms: C_12  and  C_13
REMARK    7  A    between atoms: C_13  and  C_14
REMARK                            x       y       z     vdW  Elec       q    Type
REMARK                         _______ _______ _______ _____ _____    ______ ____
ROOT
ATOM      1  C   UNL     1       2.251   6.726  19.096  0.00  0.00    +0.000 A 
ATOM      2  C   UNL     1       1.879   6.459  20.413  0.00  0.00    +0.000 A 
ATOM      3  C   UNL     1       1.305   7.461  21.219  0.00  0.00    +0.000 A 
ATOM      4  C   UNL     1       1.082   8.756  20.730  0.00  0.00    +0.000 A 
ATOM      5  C   UNL     1       0.501   9.876  21.507  0.00  0.00    +0.000 A 
ATOM      6  C   UNL     1      -0.007   9.643  22.906  0.00  0.00    +0.000 C 
ATOM      7  C   UNL     1       0.468  11.114  20.959  0.00  0.00    +0.000 A 
ATOM      8  C   UNL     1       1.035  11.367  19.607  0.00  0.00    +0.000 A 
ATOM      9  O   UNL     1       1.254  12.507  19.207  0.00  0.00    +0.000 OA
ATOM     10  O   UNL     1       1.333  10.264  18.827  0.00  0.00    +0.000 OA
ATOM     11  C   UNL     1       1.453   8.987  19.405  0.00  0.00    +0.000 A 
ATOM     12  C   UNL     1       2.012   7.996  18.582  0.00  0.00    +0.000 A 
ENDROOT
BRANCH   1  13
ATOM     13  O   UNL     1       2.802   5.679  18.403  0.00  0.00    +0.000 OA
BRANCH  13  14
ATOM     14  C   UNL     1       1.862   4.822  17.744  0.00  0.00    +0.000 C 
BRANCH  14  16
ATOM     15  C   UNL     1       2.871   2.527  17.784  0.00  0.00    +0.000 C 
ATOM     16  C   UNL     1       1.988   3.412  18.280  0.00  0.00    +0.000 C 
ATOM     17  C   UNL     1       1.018   3.024  19.362  0.00  0.00    +0.000 C 
ENDBRANCH  14  16
ENDBRANCH  13  14
ENDBRANCH   1  13
BRANCH   7  18
ATOM     18  C   UNL     1      -0.028  12.373  21.652  0.00  0.00    +0.000 C 
BRANCH  18  19
ATOM     19  C   UNL     1      -1.542  12.609  21.553  0.00  0.00    +0.000 C 
ATOM     20  O   UNL     1      -2.332  11.897  22.178  0.00  0.00    +0.000 OA
ATOM     21  N   UNL     1      -1.976  13.712  20.804  0.00  0.00    +0.000 N 
ATOM     22  C   UNL     1      -3.387  14.101  20.891  0.00  0.00    +0.000 C 
ATOM     23  C   UNL     1      -3.507  15.502  21.532  0.00  0.00    +0.000 C 
ATOM     24  C   UNL     1      -2.824  16.504  20.599  0.00  0.00    +0.000 C 
ATOM     25  C   UNL     1      -1.343  16.134  20.534  0.00  0.00    +0.000 C 
ATOM     26  C   UNL     1      -1.131  14.668  20.079  0.00  0.00    +0.000 C 
ATOM     27  C   UNL     1      -0.738  16.385  21.915  0.00  0.00    +0.000 C 
ATOM     28  N   UNL     1      -1.504  15.857  23.039  0.00  0.00    +0.000 N 
ATOM     29  C   UNL     1      -2.854  15.507  22.911  0.00  0.00    +0.000 A 
ATOM     30  C   UNL     1      -3.544  15.101  23.994  0.00  0.00    +0.000 A 
ATOM     31  C   UNL     1      -2.908  15.003  25.280  0.00  0.00    +0.000 A 
ATOM     32  C   UNL     1      -1.619  15.326  25.428  0.00  0.00    +0.000 A 
ATOM     33  C   UNL     1      -0.831  15.806  24.264  0.00  0.00    +0.000 A 
ATOM     34  O   UNL     1       0.342  16.116  24.433  0.00  0.00    +0.000 OA
ENDBRANCH  18  19
ENDBRANCH   7  18
TORSDOF 5
ENDMDL
MODEL 9
REMARK VINA RESULT:      -7.3      1.741      3.175
REMARK  Name = 
REMARK  7 active torsions:
REMARK  status: ('A' for Active; 'I' for Inactive)
REMARK    1  A    between atoms: C_2  and  C_3
REMARK    2  A    between atoms: C_2  and  C_4
REMARK    3  A    between atoms: C_4  and  O_5
REMARK    4  A    between atoms: O_5  and  C_6
REMARK    5  A    between atoms: C_10  and  C_11
REMARK    6  A    between atoms: C_12  and  C_13
REMARK    7  A    between atoms: C_13  and  C_14
REMARK                            x       y       z     vdW  Elec       q    Type
REMARK                         _______ _______ _______ _____ _____    ______ ____
ROOT
ATOM      1  C   UNL     1       2.209   6.916  18.753  0.00  0.00    +0.000 A 
ATOM      2  C   UNL     1       2.007   7.885  17.772  0.00  0.00    +0.000 A 
ATOM      3  C   UNL     1       1.575   9.181  18.114  0.00  0.00    +0.000 A 
ATOM      4  C   UNL     1       1.338   9.545  19.447  0.00  0.00    +0.000 A 
ATOM      5  C   UNL     1       0.868  10.876  19.899  0.00  0.00    +0.000 A 
ATOM      6  C   UNL     1       0.711  12.000  18.909  0.00  0.00    +0.000 C 
ATOM      7  C   UNL     1       0.545  11.055  21.203  0.00  0.00    +0.000 A 
ATOM      8  C   UNL     1       0.627   9.930  22.173  0.00  0.00    +0.000 A 
ATOM      9  O   UNL     1       0.097   9.996  23.277  0.00  0.00    +0.000 OA
ATOM     10  O   UNL     1       1.301   8.791  21.767  0.00  0.00    +0.000 OA
ATOM     11  C   UNL     1       1.564   8.558  20.406  0.00  0.00    +0.000 A 
ATOM     12  C   UNL     1       2.009   7.266  20.084  0.00  0.00    +0.000 A 
ENDROOT
BRANCH   1  13
ATOM     13  O   UNL     1       2.629   5.689  18.308  0.00  0.00    +0.000 OA
BRANCH  13  14
ATOM     14  C   UNL     1       3.902   5.679  17.652  0.00  0.00    +0.000 C 
BRANCH  14  16
ATOM     15  C   UNL     1       3.540   3.204  17.491  0.00  0.00    +0.000 C 
ATOM     16  C   UNL     1       4.162   4.314  17.053  0.00  0.00    +0.000 C 
ATOM     17  C   UNL     1       5.211   4.248  15.978  0.00  0.00    +0.000 C 
ENDBRANCH  14  16
ENDBRANCH  13  14
ENDBRANCH   1  13
BRANCH   7  18
ATOM     18  C   UNL     1      -0.017  12.334  21.805  0.00  0.00    +0.000 C 
BRANCH  18  19
ATOM     19  C   UNL     1      -1.541  12.482  21.694  0.00  0.00    +0.000 C 
ATOM     20  O   UNL     1      -2.293  11.735  22.325  0.00  0.00    +0.000 OA
ATOM     21  N   UNL     1      -2.032  13.548  20.927  0.00  0.00    +0.000 N 
ATOM     22  C   UNL     1      -3.463  13.858  21.001  0.00  0.00    +0.000 C 
ATOM     23  C   UNL     1      -3.667  15.259  21.622  0.00  0.00    +0.000 C 
ATOM     24  C   UNL     1      -3.035  16.285  20.679  0.00  0.00    +0.000 C 
ATOM     25  C   UNL     1      -1.535  15.999  20.627  0.00  0.00    +0.000 C 
ATOM     26  C   UNL     1      -1.238  14.541  20.194  0.00  0.00    +0.000 C 
ATOM     27  C   UNL     1      -0.953  16.302  22.008  0.00  0.00    +0.000 C 
ATOM     28  N   UNL     1      -1.696  15.747  23.135  0.00  0.00    +0.000 N 
ATOM     29  C   UNL     1      -3.023  15.319  23.005  0.00  0.00    +0.000 A 
ATOM     30  C   UNL     1      -3.696  14.890  24.089  0.00  0.00    +0.000 A 
ATOM     31  C   UNL     1      -3.063  14.845  25.380  0.00  0.00    +0.000 A 
ATOM     32  C   UNL     1      -1.795  15.243  25.530  0.00  0.00    +0.000 A 
ATOM     33  C   UNL     1      -1.029  15.750  24.364  0.00  0.00    +0.000 A 
ATOM     34  O   UNL     1       0.125  16.129  24.535  0.00  0.00    +0.000 OA
ENDBRANCH  18  19
ENDBRANCH   7  18
TORSDOF 5
ENDMDL
