MODEL 1
REMARK VINA RESULT:      -7.8      0.000      0.000
REMARK  Name = 
REMARK  10 active torsions:
REMARK  status: ('A' for Active; 'I' for Inactive)
REMARK    1  A    between atoms: C_1  and  O_2
REMARK    2  A    between atoms: O_2  and  C_3
REMARK    3  A    between atoms: C_5  and  C_6
REMARK    4  A    between atoms: C_13  and  C_14
REMARK    5  A    between atoms: C_17  and  C_18
REMARK    6  A    between atoms: C_18  and  N_19
REMARK    7  A    between atoms: C_31  and  O_32
REMARK    8  A    between atoms: O_32  and  C_33
REMARK    9  A    between atoms: C_34  and  O_35
REMARK   10  A    between atoms: O_35  and  C_36
REMARK                            x       y       z     vdW  Elec       q    Type
REMARK                         _______ _______ _______ _____ _____    ______ ____
ROOT
ATOM      1  C   UNL     1       1.940  13.690  19.564  0.00  0.00    +0.000 A 
ATOM      2  C   UNL     1       1.037  14.495  18.893  0.00  0.00    +0.000 A 
ATOM      3  N   UNL     1      -0.165  14.073  18.471  0.00  0.00    +0.000 NA
ATOM      4  C   UNL     1      -0.450  12.781  18.665  0.00  0.00    +0.000 A 
ATOM      5  C   UNL     1      -1.704  12.407  18.226  0.00  0.00    +0.000 A 
ATOM      6  C   UNL     1      -2.146  11.106  18.330  0.00  0.00    +0.000 A 
ATOM      7  C   UNL     1      -1.272  10.155  18.830  0.00  0.00    +0.000 A 
ATOM      8  C   UNL     1       0.058  10.475  19.220  0.00  0.00    +0.000 A 
ATOM      9  C   UNL     1       0.469  11.848  19.237  0.00  0.00    +0.000 A 
ATOM     10  N   UNL     1       1.667  12.346  19.712  0.00  0.00    +0.000 NA
ENDROOT
BRANCH   8  11
ATOM     11  C   UNL     1       0.950   9.291  19.431  0.00  0.00    +0.000 A 
ATOM     12  C   UNL     1       1.021   8.529  20.604  0.00  0.00    +0.000 A 
ATOM     13  C   UNL     1       1.812   7.351  20.665  0.00  0.00    +0.000 A 
ATOM     14  C   UNL     1       2.555   6.898  19.557  0.00  0.00    +0.000 A 
ATOM     15  C   UNL     1       2.504   7.669  18.397  0.00  0.00    +0.000 A 
ATOM     16  C   UNL     1       1.733   8.830  18.347  0.00  0.00    +0.000 A 
ATOM     17  F   UNL     1       1.745   9.508  17.187  0.00  0.00    +0.000 F 
BRANCH  14  18
ATOM     18  C   UNL     1       3.472   5.696  19.607  0.00  0.00    +0.000 C 
BRANCH  18  19
ATOM     19  N   UNL     1       3.058   4.408  19.066  0.00  0.00    +0.000 NA
ATOM     20  C   UNL     1       1.623   4.144  18.912  0.00  0.00    +0.000 C 
ATOM     21  C   UNL     1       0.969   3.468  20.130  0.00  0.00    +0.000 C 
ATOM     22  O   UNL     1       1.687   2.297  20.541  0.00  0.00    +0.000 OA
ATOM     23  C   UNL     1       3.060   2.601  20.810  0.00  0.00    +0.000 C 
ATOM     24  C   UNL     1       3.746   3.224  19.589  0.00  0.00    +0.000 C 
ENDBRANCH  18  19
ENDBRANCH  14  18
ENDBRANCH   8  11
BRANCH   1  27
ATOM     25  C   UNL     1       5.473  15.277  19.648  0.00  0.00    +0.000 A 
ATOM     26  C   UNL     1       4.176  14.910  19.216  0.00  0.00    +0.000 A 
ATOM     27  C   UNL     1       3.244  14.229  20.045  0.00  0.00    +0.000 A 
ATOM     28  C   UNL     1       3.645  14.016  21.359  0.00  0.00    +0.000 A 
ATOM     29  C   UNL     1       4.924  14.374  21.820  0.00  0.00    +0.000 A 
ATOM     30  C   UNL     1       5.868  14.987  20.968  0.00  0.00    +0.000 A 
BRANCH  25  32
ATOM     31  C   UNL     1       7.133  15.060  17.908  0.00  0.00    +0.000 C 
ATOM     32  O   UNL     1       6.391  15.866  18.816  0.00  0.00    +0.000 OA
ENDBRANCH  25  32
BRANCH  29  33
ATOM     33  O   UNL     1       5.092  13.972  23.120  0.00  0.00    +0.000 OA
ATOM     34  C   UNL     1       5.905  12.841  23.382  0.00  0.00    +0.000 C 
ENDBRANCH  29  33
BRANCH  30  35
ATOM     35  O   UNL     1       7.060  15.321  21.551  0.00  0.00    +0.000 OA
ATOM     36  C   UNL     1       7.326  16.613  22.073  0.00  0.00    +0.000 C 
ENDBRANCH  30  35
ENDBRANCH   1  27
TORSDOF 7
ENDMDL
MODEL 2
REMARK VINA RESULT:      -7.8      0.681      1.170
REMARK  Name = 
REMARK  10 active torsions:
REMARK  status: ('A' for Active; 'I' for Inactive)
REMARK    1  A    between atoms: C_1  and  O_2
REMARK    2  A    between atoms: O_2  and  C_3
REMARK    3  A    between atoms: C_5  and  C_6
REMARK    4  A    between atoms: C_13  and  C_14
REMARK    5  A    between atoms: C_17  and  C_18
REMARK    6  A    between atoms: C_18  and  N_19
REMARK    7  A    between atoms: C_31  and  O_32
REMARK    8  A    between atoms: O_32  and  C_33
REMARK    9  A    between atoms: C_34  and  O_35
REMARK   10  A    between atoms: O_35  and  C_36
REMARK                            x       y       z     vdW  Elec       q    Type
REMARK                         _______ _______ _______ _____ _____    ______ ____
ROOT
ATOM      1  C   UNL     1       2.011  13.694  19.665  0.00  0.00    +0.000 A 
ATOM      2  C   UNL     1       1.119  14.511  18.994  0.00  0.00    +0.000 A 
ATOM      3  N   UNL     1      -0.080  14.100  18.555  0.00  0.00    +0.000 NA
ATOM      4  C   UNL     1      -0.374  12.808  18.730  0.00  0.00    +0.000 A 
ATOM      5  C   UNL     1      -1.625  12.445  18.274  0.00  0.00    +0.000 A 
ATOM      6  C   UNL     1      -2.074  11.144  18.358  0.00  0.00    +0.000 A 
ATOM      7  C   UNL     1      -1.209  10.183  18.856  0.00  0.00    +0.000 A 
ATOM      8  C   UNL     1       0.118  10.492  19.263  0.00  0.00    +0.000 A 
ATOM      9  C   UNL     1       0.536  11.864  19.301  0.00  0.00    +0.000 A 
ATOM     10  N   UNL     1       1.730  12.350  19.793  0.00  0.00    +0.000 NA
ENDROOT
BRANCH   8  11
ATOM     11  C   UNL     1       1.003   9.302  19.469  0.00  0.00    +0.000 A 
ATOM     12  C   UNL     1       1.066   8.532  20.637  0.00  0.00    +0.000 A 
ATOM     13  C   UNL     1       1.850   7.349  20.693  0.00  0.00    +0.000 A 
ATOM     14  C   UNL     1       2.593   6.899  19.584  0.00  0.00    +0.000 A 
ATOM     15  C   UNL     1       2.549   7.677  18.428  0.00  0.00    +0.000 A 
ATOM     16  C   UNL     1       1.785   8.843  18.384  0.00  0.00    +0.000 A 
ATOM     17  F   UNL     1       1.804   9.529  17.228  0.00  0.00    +0.000 F 
BRANCH  14  18
ATOM     18  C   UNL     1       3.503   5.691  19.629  0.00  0.00    +0.000 C 
BRANCH  18  19
ATOM     19  N   UNL     1       2.960   4.340  19.689  0.00  0.00    +0.000 NA
ATOM     20  C   UNL     1       3.798   3.229  19.225  0.00  0.00    +0.000 C 
ATOM     21  C   UNL     1       3.619   2.878  17.737  0.00  0.00    +0.000 C 
ATOM     22  O   UNL     1       2.239   2.686  17.397  0.00  0.00    +0.000 OA
ATOM     23  C   UNL     1       1.456   3.835  17.742  0.00  0.00    +0.000 C 
ATOM     24  C   UNL     1       1.578   4.167  19.234  0.00  0.00    +0.000 C 
ENDBRANCH  18  19
ENDBRANCH  14  18
ENDBRANCH   8  11
BRANCH   1  27
ATOM     25  C   UNL     1       5.537  15.295  19.806  0.00  0.00    +0.000 A 
ATOM     26  C   UNL     1       4.241  14.938  19.361  0.00  0.00    +0.000 A 
ATOM     27  C   UNL     1       3.313  14.221  20.164  0.00  0.00    +0.000 A 
ATOM     28  C   UNL     1       3.715  13.962  21.469  0.00  0.00    +0.000 A 
ATOM     29  C   UNL     1       4.993  14.309  21.944  0.00  0.00    +0.000 A 
ATOM     30  C   UNL     1       5.933  14.958  21.115  0.00  0.00    +0.000 A 
BRANCH  25  32
ATOM     31  C   UNL     1       7.259  15.141  18.122  0.00  0.00    +0.000 C 
ATOM     32  O   UNL     1       6.451  15.919  18.997  0.00  0.00    +0.000 OA
ENDBRANCH  25  32
BRANCH  29  33
ATOM     33  O   UNL     1       5.164  13.859  23.227  0.00  0.00    +0.000 OA
ATOM     34  C   UNL     1       5.980  12.720  23.446  0.00  0.00    +0.000 C 
ENDBRANCH  29  33
BRANCH  30  35
ATOM     35  O   UNL     1       7.124  15.276  21.709  0.00  0.00    +0.000 OA
ATOM     36  C   UNL     1       7.335  16.492  22.407  0.00  0.00    +0.000 C 
ENDBRANCH  30  35
ENDBRANCH   1  27
TORSDOF 7
ENDMDL
MODEL 3
REMARK VINA RESULT:      -7.6      0.703      2.310
REMARK  Name = 
REMARK  10 active torsions:
REMARK  status: ('A' for Active; 'I' for Inactive)
REMARK    1  A    between atoms: C_1  and  O_2
REMARK    2  A    between atoms: O_2  and  C_3
REMARK    3  A    between atoms: C_5  and  C_6
REMARK    4  A    between atoms: C_13  and  C_14
REMARK    5  A    between atoms: C_17  and  C_18
REMARK    6  A    between atoms: C_18  and  N_19
REMARK    7  A    between atoms: C_31  and  O_32
REMARK    8  A    between atoms: O_32  and  C_33
REMARK    9  A    between atoms: C_34  and  O_35
REMARK   10  A    between atoms: O_35  and  C_36
REMARK                            x       y       z     vdW  Elec       q    Type
REMARK                         _______ _______ _______ _____ _____    ______ ____
ROOT
ATOM      1  C   UNL     1       2.075  13.692  19.634  0.00  0.00    +0.000 A 
ATOM      2  C   UNL     1       1.188  14.524  18.976  0.00  0.00    +0.000 A 
ATOM      3  N   UNL     1      -0.030  14.137  18.566  0.00  0.00    +0.000 NA
ATOM      4  C   UNL     1      -0.349  12.853  18.758  0.00  0.00    +0.000 A 
ATOM      5  C   UNL     1      -1.617  12.515  18.332  0.00  0.00    +0.000 A 
ATOM      6  C   UNL     1      -2.094  11.226  18.437  0.00  0.00    +0.000 A 
ATOM      7  C   UNL     1      -1.240  10.250  18.924  0.00  0.00    +0.000 A 
ATOM      8  C   UNL     1       0.102  10.532  19.300  0.00  0.00    +0.000 A 
ATOM      9  C   UNL     1       0.551  11.893  19.317  0.00  0.00    +0.000 A 
ATOM     10  N   UNL     1       1.767  12.356  19.780  0.00  0.00    +0.000 NA
ENDROOT
BRANCH   8  11
ATOM     11  C   UNL     1       0.964   9.323  19.497  0.00  0.00    +0.000 A 
ATOM     12  C   UNL     1       1.018   8.548  20.662  0.00  0.00    +0.000 A 
ATOM     13  C   UNL     1       1.778   7.349  20.710  0.00  0.00    +0.000 A 
ATOM     14  C   UNL     1       2.506   6.888  19.595  0.00  0.00    +0.000 A 
ATOM     15  C   UNL     1       2.471   7.670  18.442  0.00  0.00    +0.000 A 
ATOM     16  C   UNL     1       1.730   8.852  18.406  0.00  0.00    +0.000 A 
ATOM     17  F   UNL     1       1.757   9.541  17.252  0.00  0.00    +0.000 F 
BRANCH  14  18
ATOM     18  C   UNL     1       3.391   5.661  19.631  0.00  0.00    +0.000 C 
BRANCH  18  19
ATOM     19  N   UNL     1       2.850   4.350  19.965  0.00  0.00    +0.000 NA
ATOM     20  C   UNL     1       3.710   3.174  19.791  0.00  0.00    +0.000 C 
ATOM     21  C   UNL     1       3.594   2.504  18.411  0.00  0.00    +0.000 C 
ATOM     22  O   UNL     1       2.231   2.224  18.066  0.00  0.00    +0.000 OA
ATOM     23  C   UNL     1       1.431   3.411  18.118  0.00  0.00    +0.000 C 
ATOM     24  C   UNL     1       1.488   4.065  19.503  0.00  0.00    +0.000 C 
ENDBRANCH  18  19
ENDBRANCH  14  18
ENDBRANCH   8  11
BRANCH   1  27
ATOM     25  C   UNL     1       4.990  14.857  21.906  0.00  0.00    +0.000 A 
ATOM     26  C   UNL     1       3.796  14.237  21.466  0.00  0.00    +0.000 A 
ATOM     27  C   UNL     1       3.399  14.193  20.101  0.00  0.00    +0.000 A 
ATOM     28  C   UNL     1       4.307  14.720  19.190  0.00  0.00    +0.000 A 
ATOM     29  C   UNL     1       5.504  15.338  19.594  0.00  0.00    +0.000 A 
ATOM     30  C   UNL     1       5.854  15.439  20.958  0.00  0.00    +0.000 A 
BRANCH  25  32
ATOM     31  C   UNL     1       5.747  13.803  23.942  0.00  0.00    +0.000 C 
ATOM     32  O   UNL     1       5.325  14.961  23.231  0.00  0.00    +0.000 OA
ENDBRANCH  25  32
BRANCH  29  33
ATOM     33  O   UNL     1       6.166  15.851  18.509  0.00  0.00    +0.000 OA
ATOM     34  C   UNL     1       7.081  15.018  17.815  0.00  0.00    +0.000 C 
ENDBRANCH  29  33
BRANCH  30  35
ATOM     35  O   UNL     1       7.063  16.026  21.214  0.00  0.00    +0.000 OA
ATOM     36  C   UNL     1       8.242  15.280  21.469  0.00  0.00    +0.000 C 
ENDBRANCH  30  35
ENDBRANCH   1  27
TORSDOF 7
ENDMDL
MODEL 4
REMARK VINA RESULT:      -7.5      1.069      1.355
REMARK  Name = 
REMARK  10 active torsions:
REMARK  status: ('A' for Active; 'I' for Inactive)
REMARK    1  A    between atoms: C_1  and  O_2
REMARK    2  A    between atoms: O_2  and  C_3
REMARK    3  A    between atoms: C_5  and  C_6
REMARK    4  A    between atoms: C_13  and  C_14
REMARK    5  A    between atoms: C_17  and  C_18
REMARK    6  A    between atoms: C_18  and  N_19
REMARK    7  A    between atoms: C_31  and  O_32
REMARK    8  A    between atoms: O_32  and  C_33
REMARK    9  A    between atoms: C_34  and  O_35
REMARK   10  A    between atoms: O_35  and  C_36
REMARK                            x       y       z     vdW  Elec       q    Type
REMARK                         _______ _______ _______ _____ _____    ______ ____
ROOT
ATOM      1  C   UNL     1       2.007  13.757  19.287  0.00  0.00    +0.000 A 
ATOM      2  C   UNL     1       0.992  14.610  18.892  0.00  0.00    +0.000 A 
ATOM      3  N   UNL     1      -0.268  14.209  18.659  0.00  0.00    +0.000 NA
ATOM      4  C   UNL     1      -0.509  12.897  18.757  0.00  0.00    +0.000 A 
ATOM      5  C   UNL     1      -1.822  12.545  18.523  0.00  0.00    +0.000 A 
ATOM      6  C   UNL     1      -2.234  11.230  18.561  0.00  0.00    +0.000 A 
ATOM      7  C   UNL     1      -1.278  10.251  18.779  0.00  0.00    +0.000 A 
ATOM      8  C   UNL     1       0.101  10.557  18.945  0.00  0.00    +0.000 A 
ATOM      9  C   UNL     1       0.505  11.929  19.039  0.00  0.00    +0.000 A 
ATOM     10  N   UNL     1       1.769  12.400  19.332  0.00  0.00    +0.000 NA
ENDROOT
BRANCH   8  11
ATOM     11  C   UNL     1       1.019   9.378  18.851  0.00  0.00    +0.000 A 
ATOM     12  C   UNL     1       1.831   9.069  17.752  0.00  0.00    +0.000 A 
ATOM     13  C   UNL     1       2.758   7.995  17.805  0.00  0.00    +0.000 A 
ATOM     14  C   UNL     1       2.904   7.198  18.958  0.00  0.00    +0.000 A 
ATOM     15  C   UNL     1       2.081   7.490  20.044  0.00  0.00    +0.000 A 
ATOM     16  C   UNL     1       1.165   8.540  19.980  0.00  0.00    +0.000 A 
ATOM     17  F   UNL     1       0.413   8.747  21.076  0.00  0.00    +0.000 F 
BRANCH  14  18
ATOM     18  C   UNL     1       3.820   5.995  19.026  0.00  0.00    +0.000 C 
BRANCH  18  19
ATOM     19  N   UNL     1       3.574   4.812  18.211  0.00  0.00    +0.000 NA
ATOM     20  C   UNL     1       2.188   4.370  18.024  0.00  0.00    +0.000 C 
ATOM     21  C   UNL     1       1.704   3.346  19.066  0.00  0.00    +0.000 C 
ATOM     22  O   UNL     1       2.607   2.239  19.186  0.00  0.00    +0.000 OA
ATOM     23  C   UNL     1       3.933   2.685  19.496  0.00  0.00    +0.000 C 
ATOM     24  C   UNL     1       4.455   3.663  18.439  0.00  0.00    +0.000 C 
ENDBRANCH  18  19
ENDBRANCH  14  18
ENDBRANCH   8  11
BRANCH   1  27
ATOM     25  C   UNL     1       5.691  14.879  18.861  0.00  0.00    +0.000 A 
ATOM     26  C   UNL     1       4.347  14.542  18.568  0.00  0.00    +0.000 A 
ATOM     27  C   UNL     1       3.377  14.270  19.571  0.00  0.00    +0.000 A 
ATOM     28  C   UNL     1       3.798  14.445  20.884  0.00  0.00    +0.000 A 
ATOM     29  C   UNL     1       5.124  14.785  21.208  0.00  0.00    +0.000 A 
ATOM     30  C   UNL     1       6.098  14.983  20.206  0.00  0.00    +0.000 A 
BRANCH  25  32
ATOM     31  C   UNL     1       7.493  13.986  17.526  0.00  0.00    +0.000 C 
ATOM     32  O   UNL     1       6.637  15.064  17.886  0.00  0.00    +0.000 OA
ENDBRANCH  25  32
BRANCH  29  33
ATOM     33  O   UNL     1       5.293  14.803  22.568  0.00  0.00    +0.000 OA
ATOM     34  C   UNL     1       5.624  13.592  23.229  0.00  0.00    +0.000 C 
ENDBRANCH  29  33
BRANCH  30  35
ATOM     35  O   UNL     1       7.338  15.349  20.652  0.00  0.00    +0.000 OA
ATOM     36  C   UNL     1       7.732  16.702  20.808  0.00  0.00    +0.000 C 
ENDBRANCH  30  35
ENDBRANCH   1  27
TORSDOF 7
ENDMDL
MODEL 5
REMARK VINA RESULT:      -7.5      1.276      1.772
REMARK  Name = 
REMARK  10 active torsions:
REMARK  status: ('A' for Active; 'I' for Inactive)
REMARK    1  A    between atoms: C_1  and  O_2
REMARK    2  A    between atoms: O_2  and  C_3
REMARK    3  A    between atoms: C_5  and  C_6
REMARK    4  A    between atoms: C_13  and  C_14
REMARK    5  A    between atoms: C_17  and  C_18
REMARK    6  A    between atoms: C_18  and  N_19
REMARK    7  A    between atoms: C_31  and  O_32
REMARK    8  A    between atoms: O_32  and  C_33
REMARK    9  A    between atoms: C_34  and  O_35
REMARK   10  A    between atoms: O_35  and  C_36
REMARK                            x       y       z     vdW  Elec       q    Type
REMARK                         _______ _______ _______ _____ _____    ______ ____
ROOT
ATOM      1  C   UNL     1       2.000  13.787  19.294  0.00  0.00    +0.000 A 
ATOM      2  C   UNL     1       0.997  14.642  18.878  0.00  0.00    +0.000 A 
ATOM      3  N   UNL     1      -0.266  14.251  18.647  0.00  0.00    +0.000 NA
ATOM      4  C   UNL     1      -0.522  12.944  18.769  0.00  0.00    +0.000 A 
ATOM      5  C   UNL     1      -1.838  12.601  18.536  0.00  0.00    +0.000 A 
ATOM      6  C   UNL     1      -2.264  11.292  18.597  0.00  0.00    +0.000 A 
ATOM      7  C   UNL     1      -1.320  10.307  18.837  0.00  0.00    +0.000 A 
ATOM      8  C   UNL     1       0.061  10.601  19.003  0.00  0.00    +0.000 A 
ATOM      9  C   UNL     1       0.480  11.970  19.073  0.00  0.00    +0.000 A 
ATOM     10  N   UNL     1       1.748  12.433  19.363  0.00  0.00    +0.000 NA
ENDROOT
BRANCH   8  11
ATOM     11  C   UNL     1       0.967   9.411  18.935  0.00  0.00    +0.000 A 
ATOM     12  C   UNL     1       1.729   9.035  17.822  0.00  0.00    +0.000 A 
ATOM     13  C   UNL     1       2.651   7.958  17.895  0.00  0.00    +0.000 A 
ATOM     14  C   UNL     1       2.840   7.223  19.082  0.00  0.00    +0.000 A 
ATOM     15  C   UNL     1       2.066   7.581  20.184  0.00  0.00    +0.000 A 
ATOM     16  C   UNL     1       1.155   8.634  20.102  0.00  0.00    +0.000 A 
ATOM     17  F   UNL     1       0.452   8.907  21.215  0.00  0.00    +0.000 F 
BRANCH  14  18
ATOM     18  C   UNL     1       3.751   6.018  19.177  0.00  0.00    +0.000 C 
BRANCH  18  19
ATOM     19  N   UNL     1       3.213   4.681  19.388  0.00  0.00    +0.000 NA
ATOM     20  C   UNL     1       3.993   3.531  18.919  0.00  0.00    +0.000 C 
ATOM     21  C   UNL     1       3.657   3.080  17.486  0.00  0.00    +0.000 C 
ATOM     22  O   UNL     1       2.248   2.879  17.307  0.00  0.00    +0.000 OA
ATOM     23  C   UNL     1       1.510   4.058  17.651  0.00  0.00    +0.000 C 
ATOM     24  C   UNL     1       1.789   4.492  19.094  0.00  0.00    +0.000 C 
ENDBRANCH  18  19
ENDBRANCH  14  18
ENDBRANCH   8  11
BRANCH   1  27
ATOM     25  C   UNL     1       5.702  14.849  18.866  0.00  0.00    +0.000 A 
ATOM     26  C   UNL     1       4.356  14.520  18.571  0.00  0.00    +0.000 A 
ATOM     27  C   UNL     1       3.375  14.290  19.574  0.00  0.00    +0.000 A 
ATOM     28  C   UNL     1       3.788  14.497  20.885  0.00  0.00    +0.000 A 
ATOM     29  C   UNL     1       5.116  14.829  21.210  0.00  0.00    +0.000 A 
ATOM     30  C   UNL     1       6.100  14.986  20.210  0.00  0.00    +0.000 A 
BRANCH  25  32
ATOM     31  C   UNL     1       7.347  13.846  17.412  0.00  0.00    +0.000 C 
ATOM     32  O   UNL     1       6.658  14.993  17.893  0.00  0.00    +0.000 OA
ENDBRANCH  25  32
BRANCH  29  33
ATOM     33  O   UNL     1       5.275  14.883  22.570  0.00  0.00    +0.000 OA
ATOM     34  C   UNL     1       5.595  13.690  23.266  0.00  0.00    +0.000 C 
ENDBRANCH  29  33
BRANCH  30  35
ATOM     35  O   UNL     1       7.342  15.348  20.655  0.00  0.00    +0.000 OA
ATOM     36  C   UNL     1       8.375  14.409  20.902  0.00  0.00    +0.000 C 
ENDBRANCH  30  35
ENDBRANCH   1  27
TORSDOF 7
ENDMDL
MODEL 6
REMARK VINA RESULT:      -7.4      0.841      2.167
REMARK  Name = 
REMARK  10 active torsions:
REMARK  status: ('A' for Active; 'I' for Inactive)
REMARK    1  A    between atoms: C_1  and  O_2
REMARK    2  A    between atoms: O_2  and  C_3
REMARK    3  A    between atoms: C_5  and  C_6
REMARK    4  A    between atoms: C_13  and  C_14
REMARK    5  A    between atoms: C_17  and  C_18
REMARK    6  A    between atoms: C_18  and  N_19
REMARK    7  A    between atoms: C_31  and  O_32
REMARK    8  A    between atoms: O_32  and  C_33
REMARK    9  A    between atoms: C_34  and  O_35
REMARK   10  A    between atoms: O_35  and  C_36
REMARK                            x       y       z     vdW  Elec       q    Type
REMARK                         _______ _______ _______ _____ _____    ______ ____
ROOT
ATOM      1  C   UNL     1       2.187  13.697  19.814  0.00  0.00    +0.000 A 
ATOM      2  C   UNL     1       1.324  14.572  19.181  0.00  0.00    +0.000 A 
ATOM      3  N   UNL     1       0.110  14.222  18.729  0.00  0.00    +0.000 NA
ATOM      4  C   UNL     1      -0.229  12.934  18.851  0.00  0.00    +0.000 A 
ATOM      5  C   UNL     1      -1.493  12.635  18.385  0.00  0.00    +0.000 A 
ATOM      6  C   UNL     1      -1.988  11.349  18.416  0.00  0.00    +0.000 A 
ATOM      7  C   UNL     1      -1.156  10.338  18.870  0.00  0.00    +0.000 A 
ATOM      8  C   UNL     1       0.182  10.583  19.286  0.00  0.00    +0.000 A 
ATOM      9  C   UNL     1       0.647  11.936  19.379  0.00  0.00    +0.000 A 
ATOM     10  N   UNL     1       1.859  12.359  19.887  0.00  0.00    +0.000 NA
ENDROOT
BRANCH   8  11
ATOM     11  C   UNL     1       1.024   9.355  19.439  0.00  0.00    +0.000 A 
ATOM     12  C   UNL     1       1.050   8.526  20.568  0.00  0.00    +0.000 A 
ATOM     13  C   UNL     1       1.792   7.316  20.571  0.00  0.00    +0.000 A 
ATOM     14  C   UNL     1       2.532   6.896  19.447  0.00  0.00    +0.000 A 
ATOM     15  C   UNL     1       2.525   7.732  18.331  0.00  0.00    +0.000 A 
ATOM     16  C   UNL     1       1.801   8.924  18.339  0.00  0.00    +0.000 A 
ATOM     17  F   UNL     1       1.855   9.665  17.219  0.00  0.00    +0.000 F 
BRANCH  14  18
ATOM     18  C   UNL     1       3.400   5.657  19.439  0.00  0.00    +0.000 C 
BRANCH  18  19
ATOM     19  N   UNL     1       3.293   4.668  18.374  0.00  0.00    +0.000 NA
ATOM     20  C   UNL     1       1.956   4.248  17.943  0.00  0.00    +0.000 C 
ATOM     21  C   UNL     1       1.408   3.017  18.688  0.00  0.00    +0.000 C 
ATOM     22  O   UNL     1       2.340   1.928  18.677  0.00  0.00    +0.000 OA
ATOM     23  C   UNL     1       3.605   2.325  19.221  0.00  0.00    +0.000 C 
ATOM     24  C   UNL     1       4.194   3.515  18.456  0.00  0.00    +0.000 C 
ENDBRANCH  18  19
ENDBRANCH  14  18
ENDBRANCH   8  11
BRANCH   1  27
ATOM     25  C   UNL     1       5.050  14.770  22.194  0.00  0.00    +0.000 A 
ATOM     26  C   UNL     1       3.854  14.188  21.709  0.00  0.00    +0.000 A 
ATOM     27  C   UNL     1       3.508  14.156  20.331  0.00  0.00    +0.000 A 
ATOM     28  C   UNL     1       4.465  14.654  19.454  0.00  0.00    +0.000 A 
ATOM     29  C   UNL     1       5.665  15.234  19.904  0.00  0.00    +0.000 A 
ATOM     30  C   UNL     1       5.967  15.324  21.279  0.00  0.00    +0.000 A 
BRANCH  25  32
ATOM     31  C   UNL     1       4.801  15.941  24.290  0.00  0.00    +0.000 C 
ATOM     32  O   UNL     1       5.338  14.864  23.531  0.00  0.00    +0.000 OA
ENDBRANCH  25  32
BRANCH  29  33
ATOM     33  O   UNL     1       6.383  15.725  18.845  0.00  0.00    +0.000 OA
ATOM     34  C   UNL     1       7.225  14.840  18.124  0.00  0.00    +0.000 C 
ENDBRANCH  29  33
BRANCH  30  35
ATOM     35  O   UNL     1       7.183  15.873  21.582  0.00  0.00    +0.000 OA
ATOM     36  C   UNL     1       8.366  15.101  21.705  0.00  0.00    +0.000 C 
ENDBRANCH  30  35
ENDBRANCH   1  27
TORSDOF 7
ENDMDL
MODEL 7
REMARK VINA RESULT:      -7.2      1.265      2.669
REMARK  Name = 
REMARK  10 active torsions:
REMARK  status: ('A' for Active; 'I' for Inactive)
REMARK    1  A    between atoms: C_1  and  O_2
REMARK    2  A    between atoms: O_2  and  C_3
REMARK    3  A    between atoms: C_5  and  C_6
REMARK    4  A    between atoms: C_13  and  C_14
REMARK    5  A    between atoms: C_17  and  C_18
REMARK    6  A    between atoms: C_18  and  N_19
REMARK    7  A    between atoms: C_31  and  O_32
REMARK    8  A    between atoms: O_32  and  C_33
REMARK    9  A    between atoms: C_34  and  O_35
REMARK   10  A    between atoms: O_35  and  C_36
REMARK                            x       y       z     vdW  Elec       q    Type
REMARK                         _______ _______ _______ _____ _____    ______ ____
ROOT
ATOM      1  C   UNL     1       2.156  13.883  19.945  0.00  0.00    +0.000 A 
ATOM      2  C   UNL     1       1.238  14.855  19.588  0.00  0.00    +0.000 A 
ATOM      3  N   UNL     1      -0.051  14.596  19.317  0.00  0.00    +0.000 NA
ATOM      4  C   UNL     1      -0.423  13.313  19.335  0.00  0.00    +0.000 A 
ATOM      5  C   UNL     1      -1.761  13.108  19.065  0.00  0.00    +0.000 A 
ATOM      6  C   UNL     1      -2.303  11.841  19.023  0.00  0.00    +0.000 A 
ATOM      7  C   UNL     1      -1.454  10.760  19.194  0.00  0.00    +0.000 A 
ATOM      8  C   UNL     1      -0.054  10.915  19.394  0.00  0.00    +0.000 A 
ATOM      9  C   UNL     1       0.483  12.233  19.572  0.00  0.00    +0.000 A 
ATOM     10  N   UNL     1       1.783  12.556  19.907  0.00  0.00    +0.000 NA
ENDROOT
BRANCH   8  11
ATOM     11  C   UNL     1       0.743   9.658  19.242  0.00  0.00    +0.000 A 
ATOM     12  C   UNL     1       1.380   9.238  18.067  0.00  0.00    +0.000 A 
ATOM     13  C   UNL     1       2.214   8.089  18.056  0.00  0.00    +0.000 A 
ATOM     14  C   UNL     1       2.438   7.324  19.218  0.00  0.00    +0.000 A 
ATOM     15  C   UNL     1       1.787   7.727  20.382  0.00  0.00    +0.000 A 
ATOM     16  C   UNL     1       0.961   8.851  20.383  0.00  0.00    +0.000 A 
ATOM     17  F   UNL     1       0.375   9.163  21.552  0.00  0.00    +0.000 F 
BRANCH  14  18
ATOM     18  C   UNL     1       3.252   6.049  19.228  0.00  0.00    +0.000 C 
BRANCH  18  19
ATOM     19  N   UNL     1       2.608   4.743  19.278  0.00  0.00    +0.000 NA
ATOM     20  C   UNL     1       3.293   3.651  19.978  0.00  0.00    +0.000 C 
ATOM     21  C   UNL     1       4.205   2.797  19.080  0.00  0.00    +0.000 C 
ATOM     22  O   UNL     1       3.519   2.334  17.909  0.00  0.00    +0.000 OA
ATOM     23  C   UNL     1       2.963   3.427  17.169  0.00  0.00    +0.000 C 
ATOM     24  C   UNL     1       2.007   4.258  18.032  0.00  0.00    +0.000 C 
ENDBRANCH  18  19
ENDBRANCH  14  18
ENDBRANCH   8  11
BRANCH   1  27
ATOM     25  C   UNL     1       5.396  14.698  21.906  0.00  0.00    +0.000 A 
ATOM     26  C   UNL     1       4.106  14.210  21.588  0.00  0.00    +0.000 A 
ATOM     27  C   UNL     1       3.566  14.239  20.274  0.00  0.00    +0.000 A 
ATOM     28  C   UNL     1       4.420  14.695  19.277  0.00  0.00    +0.000 A 
ATOM     29  C   UNL     1       5.710  15.180  19.559  0.00  0.00    +0.000 A 
ATOM     30  C   UNL     1       6.211  15.213  20.878  0.00  0.00    +0.000 A 
BRANCH  25  32
ATOM     31  C   UNL     1       5.654  13.631  24.056  0.00  0.00    +0.000 C 
ATOM     32  O   UNL     1       5.878  14.736  23.189  0.00  0.00    +0.000 OA
ENDBRANCH  25  32
BRANCH  29  33
ATOM     33  O   UNL     1       6.303  15.651  18.416  0.00  0.00    +0.000 OA
ATOM     34  C   UNL     1       7.085  14.759  17.639  0.00  0.00    +0.000 C 
ENDBRANCH  29  33
BRANCH  30  35
ATOM     35  O   UNL     1       7.493  15.671  21.012  0.00  0.00    +0.000 OA
ATOM     36  C   UNL     1       8.618  14.808  21.043  0.00  0.00    +0.000 C 
ENDBRANCH  30  35
ENDBRANCH   1  27
TORSDOF 7
ENDMDL
MODEL 8
REMARK VINA RESULT:      -7.2      1.604      2.102
REMARK  Name = 
REMARK  10 active torsions:
REMARK  status: ('A' for Active; 'I' for Inactive)
REMARK    1  A    between atoms: C_1  and  O_2
REMARK    2  A    between atoms: O_2  and  C_3
REMARK    3  A    between atoms: C_5  and  C_6
REMARK    4  A    between atoms: C_13  and  C_14
REMARK    5  A    between atoms: C_17  and  C_18
REMARK    6  A    between atoms: C_18  and  N_19
REMARK    7  A    between atoms: C_31  and  O_32
REMARK    8  A    between atoms: O_32  and  C_33
REMARK    9  A    between atoms: C_34  and  O_35
REMARK   10  A    between atoms: O_35  and  C_36
REMARK                            x       y       z     vdW  Elec       q    Type
REMARK                         _______ _______ _______ _____ _____    ______ ____
ROOT
ATOM      1  C   UNL     1       2.466  14.308  19.698  0.00  0.00    +0.000 A 
ATOM      2  C   UNL     1       1.501  15.297  19.636  0.00  0.00    +0.000 A 
ATOM      3  N   UNL     1       0.183  15.057  19.720  0.00  0.00    +0.000 NA
ATOM      4  C   UNL     1      -0.190  13.776  19.799  0.00  0.00    +0.000 A 
ATOM      5  C   UNL     1      -1.554  13.589  19.899  0.00  0.00    +0.000 A 
ATOM      6  C   UNL     1      -2.107  12.328  19.966  0.00  0.00    +0.000 A 
ATOM      7  C   UNL     1      -1.261  11.236  19.864  0.00  0.00    +0.000 A 
ATOM      8  C   UNL     1       0.142  11.376  19.679  0.00  0.00    +0.000 A 
ATOM      9  C   UNL     1       0.729  12.682  19.745  0.00  0.00    +0.000 A 
ATOM     10  N   UNL     1       2.076  12.985  19.722  0.00  0.00    +0.000 NA
ENDROOT
BRANCH   8  11
ATOM     11  C   UNL     1       0.848  10.119  19.276  0.00  0.00    +0.000 A 
ATOM     12  C   UNL     1       1.400   9.868  18.013  0.00  0.00    +0.000 A 
ATOM     13  C   UNL     1       2.156   8.693  17.763  0.00  0.00    +0.000 A 
ATOM     14  C   UNL     1       2.384   7.731  18.768  0.00  0.00    +0.000 A 
ATOM     15  C   UNL     1       1.817   7.968  20.018  0.00  0.00    +0.000 A 
ATOM     16  C   UNL     1       1.067   9.120  20.253  0.00  0.00    +0.000 A 
ATOM     17  F   UNL     1       0.559   9.263  21.489  0.00  0.00    +0.000 F 
BRANCH  14  18
ATOM     18  C   UNL     1       3.114   6.429  18.520  0.00  0.00    +0.000 C 
BRANCH  18  19
ATOM     19  N   UNL     1       2.564   5.158  18.975  0.00  0.00    +0.000 NA
ATOM     20  C   UNL     1       3.393   4.305  19.833  0.00  0.00    +0.000 C 
ATOM     21  C   UNL     1       4.250   3.280  19.068  0.00  0.00    +0.000 C 
ATOM     22  O   UNL     1       3.466   2.511  18.146  0.00  0.00    +0.000 OA
ATOM     23  C   UNL     1       2.761   3.360  17.233  0.00  0.00    +0.000 C 
ATOM     24  C   UNL     1       1.858   4.352  17.975  0.00  0.00    +0.000 C 
ENDBRANCH  18  19
ENDBRANCH  14  18
ENDBRANCH   8  11
BRANCH   1  27
ATOM     25  C   UNL     1       6.132  14.645  18.490  0.00  0.00    +0.000 A 
ATOM     26  C   UNL     1       4.727  14.471  18.484  0.00  0.00    +0.000 A 
ATOM     27  C   UNL     1       3.917  14.642  19.640  0.00  0.00    +0.000 A 
ATOM     28  C   UNL     1       4.575  15.089  20.780  0.00  0.00    +0.000 A 
ATOM     29  C   UNL     1       5.969  15.277  20.817  0.00  0.00    +0.000 A 
ATOM     30  C   UNL     1       6.773  15.035  19.682  0.00  0.00    +0.000 A 
BRANCH  25  32
ATOM     31  C   UNL     1       7.550  13.138  17.247  0.00  0.00    +0.000 C 
ATOM     32  O   UNL     1       6.912  14.402  17.389  0.00  0.00    +0.000 OA
ENDBRANCH  25  32
BRANCH  29  33
ATOM     33  O   UNL     1       6.370  15.630  22.079  0.00  0.00    +0.000 OA
ATOM     34  C   UNL     1       6.530  14.610  23.051  0.00  0.00    +0.000 C 
ENDBRANCH  29  33
BRANCH  30  35
ATOM     35  O   UNL     1       8.107  15.295  19.838  0.00  0.00    +0.000 OA
ATOM     36  C   UNL     1       8.686  16.554  19.537  0.00  0.00    +0.000 C 
ENDBRANCH  30  35
ENDBRANCH   1  27
TORSDOF 7
ENDMDL
MODEL 9
REMARK VINA RESULT:      -7.2      1.379      1.838
REMARK  Name = 
REMARK  10 active torsions:
REMARK  status: ('A' for Active; 'I' for Inactive)
REMARK    1  A    between atoms: C_1  and  O_2
REMARK    2  A    between atoms: O_2  and  C_3
REMARK    3  A    between atoms: C_5  and  C_6
REMARK    4  A    between atoms: C_13  and  C_14
REMARK    5  A    between atoms: C_17  and  C_18
REMARK    6  A    between atoms: C_18  and  N_19
REMARK    7  A    between atoms: C_31  and  O_32
REMARK    8  A    between atoms: O_32  and  C_33
REMARK    9  A    between atoms: C_34  and  O_35
REMARK   10  A    between atoms: O_35  and  C_36
REMARK                            x       y       z     vdW  Elec       q    Type
REMARK                         _______ _______ _______ _____ _____    ______ ____
ROOT
ATOM      1  C   UNL     1       2.106  13.980  19.989  0.00  0.00    +0.000 A 
ATOM      2  C   UNL     1       1.175  14.947  19.656  0.00  0.00    +0.000 A 
ATOM      3  N   UNL     1      -0.111  14.677  19.384  0.00  0.00    +0.000 NA
ATOM      4  C   UNL     1      -0.467  13.389  19.377  0.00  0.00    +0.000 A 
ATOM      5  C   UNL     1      -1.803  13.172  19.107  0.00  0.00    +0.000 A 
ATOM      6  C   UNL     1      -2.328  11.899  19.039  0.00  0.00    +0.000 A 
ATOM      7  C   UNL     1      -1.464  10.826  19.184  0.00  0.00    +0.000 A 
ATOM      8  C   UNL     1      -0.066  10.996  19.383  0.00  0.00    +0.000 A 
ATOM      9  C   UNL     1       0.454  12.316  19.587  0.00  0.00    +0.000 A 
ATOM     10  N   UNL     1       1.751  12.649  19.925  0.00  0.00    +0.000 NA
ENDROOT
BRANCH   8  11
ATOM     11  C   UNL     1       0.747   9.752  19.202  0.00  0.00    +0.000 A 
ATOM     12  C   UNL     1       1.409   9.381  18.025  0.00  0.00    +0.000 A 
ATOM     13  C   UNL     1       2.255   8.241  17.988  0.00  0.00    +0.000 A 
ATOM     14  C   UNL     1       2.467   7.438  19.127  0.00  0.00    +0.000 A 
ATOM     15  C   UNL     1       1.791   7.793  20.293  0.00  0.00    +0.000 A 
ATOM     16  C   UNL     1       0.954   8.908  20.318  0.00  0.00    +0.000 A 
ATOM     17  F   UNL     1       0.343   9.173  21.486  0.00  0.00    +0.000 F 
BRANCH  14  18
ATOM     18  C   UNL     1       3.295   6.171  19.107  0.00  0.00    +0.000 C 
BRANCH  18  19
ATOM     19  N   UNL     1       2.670   4.860  19.225  0.00  0.00    +0.000 NA
ATOM     20  C   UNL     1       3.383   3.809  19.958  0.00  0.00    +0.000 C 
ATOM     21  C   UNL     1       4.291   2.930  19.079  0.00  0.00    +0.000 C 
ATOM     22  O   UNL     1       3.589   2.407  17.943  0.00  0.00    +0.000 OA
ATOM     23  C   UNL     1       3.005   3.461  17.167  0.00  0.00    +0.000 C 
ATOM     24  C   UNL     1       2.053   4.315  18.012  0.00  0.00    +0.000 C 
ENDBRANCH  18  19
ENDBRANCH  14  18
ENDBRANCH   8  11
BRANCH   1  27
ATOM     25  C   UNL     1       5.790  15.143  19.682  0.00  0.00    +0.000 A 
ATOM     26  C   UNL     1       4.417  14.943  19.401  0.00  0.00    +0.000 A 
ATOM     27  C   UNL     1       3.513  14.347  20.321  0.00  0.00    +0.000 A 
ATOM     28  C   UNL     1       4.034  14.046  21.574  0.00  0.00    +0.000 A 
ATOM     29  C   UNL     1       5.392  14.237  21.887  0.00  0.00    +0.000 A 
ATOM     30  C   UNL     1       6.297  14.765  20.941  0.00  0.00    +0.000 A 
BRANCH  25  32
ATOM     31  C   UNL     1       6.931  17.045  18.731  0.00  0.00    +0.000 C 
ATOM     32  O   UNL     1       6.669  15.648  18.759  0.00  0.00    +0.000 OA
ENDBRANCH  25  32
BRANCH  29  33
ATOM     33  O   UNL     1       5.660  13.775  23.149  0.00  0.00    +0.000 OA
ATOM     34  C   UNL     1       5.503  14.661  24.245  0.00  0.00    +0.000 C 
ENDBRANCH  29  33
BRANCH  30  35
ATOM     35  O   UNL     1       7.580  14.938  21.384  0.00  0.00    +0.000 OA
ATOM     36  C   UNL     1       8.605  13.982  21.165  0.00  0.00    +0.000 C 
ENDBRANCH  30  35
ENDBRANCH   1  27
TORSDOF 7
ENDMDL
