MODEL 1
REMARK VINA RESULT:      -8.6      0.000      0.000
REMARK  Name = 
REMARK  8 active torsions:
REMARK  status: ('A' for Active; 'I' for Inactive)
REMARK    1  A    between atoms: C_1  and  O_2
REMARK    2  A    between atoms: O_2  and  C_3
REMARK    3  A    between atoms: C_5  and  C_6
REMARK    4  A    between atoms: C_6  and  N_7
REMARK    5  A    between atoms: N_7  and  C_8
REMARK    6  A    between atoms: C_21  and  O_22
REMARK    7  A    between atoms: O_22  and  C_23
REMARK    8  A    between atoms: C_23  and  C_24
REMARK                            x       y       z     vdW  Elec       q    Type
REMARK                         _______ _______ _______ _____ _____    ______ ____
ROOT
ATOM      1  C   UNL     1       6.059   4.673  16.424  0.00  0.00    +0.000 A 
ATOM      2  C   UNL     1       7.077   5.563  16.770  0.00  0.00    +0.000 A 
ATOM      3  C   UNL     1       6.838   6.623  17.649  0.00  0.00    +0.000 A 
ATOM      4  C   UNL     1       5.564   6.771  18.209  0.00  0.00    +0.000 A 
ATOM      5  C   UNL     1       4.544   5.872  17.885  0.00  0.00    +0.000 A 
ATOM      6 CL   UNL     1       2.994   6.123  18.614  0.00  0.00    +0.000 Cl
ATOM      7  C   UNL     1       4.784   4.796  17.010  0.00  0.00    +0.000 A 
ENDROOT
BRANCH   1   9
ATOM      8  C   UNL     1       6.088   3.835  14.202  0.00  0.00    +0.000 C 
ATOM      9  O   UNL     1       6.322   3.621  15.587  0.00  0.00    +0.000 OA
ENDBRANCH   1   9
BRANCH   3  10
ATOM     10  C   UNL     1       7.953   7.576  17.978  0.00  0.00    +0.000 C 
BRANCH  10  11
ATOM     11  N   UNL     1       7.687   8.884  17.395  0.00  0.00    +0.000 N 
ATOM     12  H   UNL     1       6.688   9.078  17.320  0.00  0.00    +0.000 HD
BRANCH  11  13
ATOM     13  C   UNL     1       8.386   9.972  17.958  0.00  0.00    +0.000 A 
ATOM     14  C   UNL     1       9.123   9.768  19.154  0.00  0.00    +0.000 A 
ATOM     15  C   UNL     1       9.808  10.812  19.800  0.00  0.00    +0.000 A 
ATOM     16  C   UNL     1       9.700  12.056  19.236  0.00  0.00    +0.000 A 
ATOM     17  N   UNL     1      10.237  13.271  19.637  0.00  0.00    +0.000 N 
ATOM     18  C   UNL     1       9.814  14.269  18.742  0.00  0.00    +0.000 A 
ATOM     19  O   UNL     1      10.091  15.454  18.791  0.00  0.00    +0.000 OA
ATOM     20  N   UNL     1       9.012  13.635  17.785  0.00  0.00    +0.000 N 
ATOM     21  C   UNL     1       8.945  12.279  18.089  0.00  0.00    +0.000 A 
ATOM     22  C   UNL     1       8.272  11.274  17.445  0.00  0.00    +0.000 A 
ATOM     23  H   UNL     1      10.818  13.451  20.437  0.00  0.00    +0.000 HD
ATOM     24  H   UNL     1       8.564  14.113  17.021  0.00  0.00    +0.000 HD
ENDBRANCH  11  13
ENDBRANCH  10  11
ENDBRANCH   3  10
BRANCH   7  25
ATOM     25  O   UNL     1       3.720   3.948  16.788  0.00  0.00    +0.000 OA
BRANCH  25  26
ATOM     26  C   UNL     1       3.752   2.714  17.508  0.00  0.00    +0.000 C 
BRANCH  26  27
ATOM     27  C   UNL     1       2.852   2.728  18.707  0.00  0.00    +0.000 A 
ATOM     28  C   UNL     1       1.459   2.805  18.599  0.00  0.00    +0.000 A 
ATOM     29  C   UNL     1       0.672   2.882  19.749  0.00  0.00    +0.000 A 
ATOM     30  C   UNL     1       1.270   2.897  21.010  0.00  0.00    +0.000 A 
ATOM     31  C   UNL     1       2.655   2.844  21.128  0.00  0.00    +0.000 A 
ATOM     32  C   UNL     1       3.433   2.767  19.980  0.00  0.00    +0.000 A 
ATOM     33  F   UNL     1       4.770   2.746  20.103  0.00  0.00    +0.000 F 
ENDBRANCH  26  27
ENDBRANCH  25  26
ENDBRANCH   7  25
TORSDOF 7
ENDMDL
MODEL 2
REMARK VINA RESULT:      -8.5      1.342      1.420
REMARK  Name = 
REMARK  8 active torsions:
REMARK  status: ('A' for Active; 'I' for Inactive)
REMARK    1  A    between atoms: C_1  and  O_2
REMARK    2  A    between atoms: O_2  and  C_3
REMARK    3  A    between atoms: C_5  and  C_6
REMARK    4  A    between atoms: C_6  and  N_7
REMARK    5  A    between atoms: N_7  and  C_8
REMARK    6  A    between atoms: C_21  and  O_22
REMARK    7  A    between atoms: O_22  and  C_23
REMARK    8  A    between atoms: C_23  and  C_24
REMARK                            x       y       z     vdW  Elec       q    Type
REMARK                         _______ _______ _______ _____ _____    ______ ____
ROOT
ATOM      1  C   UNL     1       6.059   5.526  16.302  0.00  0.00    +0.000 A 
ATOM      2  C   UNL     1       6.971   6.504  16.702  0.00  0.00    +0.000 A 
ATOM      3  C   UNL     1       7.341   6.640  18.043  0.00  0.00    +0.000 A 
ATOM      4  C   UNL     1       6.807   5.758  18.989  0.00  0.00    +0.000 A 
ATOM      5  C   UNL     1       5.910   4.761  18.596  0.00  0.00    +0.000 A 
ATOM      6 CL   UNL     1       5.289   3.711  19.825  0.00  0.00    +0.000 Cl
ATOM      7  C   UNL     1       5.544   4.614  17.244  0.00  0.00    +0.000 A 
ENDROOT
BRANCH   1   9
ATOM      8  C   UNL     1       6.526   4.485  14.220  0.00  0.00    +0.000 C 
ATOM      9  O   UNL     1       5.735   5.389  14.979  0.00  0.00    +0.000 OA
ENDBRANCH   1   9
BRANCH   3  10
ATOM     10  C   UNL     1       8.305   7.722  18.438  0.00  0.00    +0.000 C 
BRANCH  10  11
ATOM     11  N   UNL     1       7.973   8.967  17.760  0.00  0.00    +0.000 N 
ATOM     12  H   UNL     1       6.964   9.107  17.680  0.00  0.00    +0.000 HD
BRANCH  11  13
ATOM     13  C   UNL     1       8.622  10.128  18.230  0.00  0.00    +0.000 A 
ATOM     14  C   UNL     1       9.302  10.075  19.474  0.00  0.00    +0.000 A 
ATOM     15  C   UNL     1       9.934  11.200  20.032  0.00  0.00    +0.000 A 
ATOM     16  C   UNL     1       9.831  12.372  19.327  0.00  0.00    +0.000 A 
ATOM     17  N   UNL     1      10.324  13.636  19.615  0.00  0.00    +0.000 N 
ATOM     18  C   UNL     1       9.927  14.518  18.595  0.00  0.00    +0.000 A 
ATOM     19  O   UNL     1      10.178  15.708  18.525  0.00  0.00    +0.000 OA
ATOM     20  N   UNL     1       9.185  13.763  17.679  0.00  0.00    +0.000 N 
ATOM     21  C   UNL     1       9.129  12.448  18.129  0.00  0.00    +0.000 A 
ATOM     22  C   UNL     1       8.509  11.362  17.569  0.00  0.00    +0.000 A 
ATOM     23  H   UNL     1      10.861  13.918  20.417  0.00  0.00    +0.000 HD
ATOM     24  H   UNL     1       8.767  14.142  16.846  0.00  0.00    +0.000 HD
ENDBRANCH  11  13
ENDBRANCH  10  11
ENDBRANCH   3  10
BRANCH   7  25
ATOM     25  O   UNL     1       4.684   3.576  16.960  0.00  0.00    +0.000 OA
BRANCH  25  26
ATOM     26  C   UNL     1       3.314   3.941  16.771  0.00  0.00    +0.000 C 
BRANCH  26  27
ATOM     27  C   UNL     1       2.490   3.730  18.006  0.00  0.00    +0.000 A 
ATOM     28  C   UNL     1       2.016   4.793  18.782  0.00  0.00    +0.000 A 
ATOM     29  C   UNL     1       1.310   4.538  19.959  0.00  0.00    +0.000 A 
ATOM     30  C   UNL     1       1.087   3.224  20.374  0.00  0.00    +0.000 A 
ATOM     31  C   UNL     1       1.575   2.160  19.622  0.00  0.00    +0.000 A 
ATOM     32  C   UNL     1       2.276   2.420  18.451  0.00  0.00    +0.000 A 
ATOM     33  F   UNL     1       2.768   1.388  17.747  0.00  0.00    +0.000 F 
ENDBRANCH  26  27
ENDBRANCH  25  26
ENDBRANCH   7  25
TORSDOF 7
ENDMDL
MODEL 3
REMARK VINA RESULT:      -8.2      1.035      1.351
REMARK  Name = 
REMARK  8 active torsions:
REMARK  status: ('A' for Active; 'I' for Inactive)
REMARK    1  A    between atoms: C_1  and  O_2
REMARK    2  A    between atoms: O_2  and  C_3
REMARK    3  A    between atoms: C_5  and  C_6
REMARK    4  A    between atoms: C_6  and  N_7
REMARK    5  A    between atoms: N_7  and  C_8
REMARK    6  A    between atoms: C_21  and  O_22
REMARK    7  A    between atoms: O_22  and  C_23
REMARK    8  A    between atoms: C_23  and  C_24
REMARK                            x       y       z     vdW  Elec       q    Type
REMARK                         _______ _______ _______ _____ _____    ______ ____
ROOT
ATOM      1  C   UNL     1       6.003   4.895  16.318  0.00  0.00    +0.000 A 
ATOM      2  C   UNL     1       7.044   5.820  16.412  0.00  0.00    +0.000 A 
ATOM      3  C   UNL     1       6.881   7.021  17.108  0.00  0.00    +0.000 A 
ATOM      4  C   UNL     1       5.661   7.281  17.742  0.00  0.00    +0.000 A 
ATOM      5  C   UNL     1       4.619   6.352  17.671  0.00  0.00    +0.000 A 
ATOM      6 CL   UNL     1       3.138   6.747  18.477  0.00  0.00    +0.000 Cl
ATOM      7  C   UNL     1       4.784   5.136  16.982  0.00  0.00    +0.000 A 
ENDROOT
BRANCH   1   9
ATOM      8  C   UNL     1       6.197   3.763  14.241  0.00  0.00    +0.000 C 
ATOM      9  O   UNL     1       6.195   3.710  15.660  0.00  0.00    +0.000 OA
ENDBRANCH   1   9
BRANCH   3  10
ATOM     10  C   UNL     1       8.017   8.003  17.164  0.00  0.00    +0.000 C 
BRANCH  10  11
ATOM     11  N   UNL     1       8.278   8.394  18.542  0.00  0.00    +0.000 N 
ATOM     12  H   UNL     1       8.852   7.709  19.037  0.00  0.00    +0.000 HD
BRANCH  11  13
ATOM     13  C   UNL     1       8.753   9.708  18.740  0.00  0.00    +0.000 A 
ATOM     14  C   UNL     1       9.263  10.067  20.015  0.00  0.00    +0.000 A 
ATOM     15  C   UNL     1       9.710  11.367  20.305  0.00  0.00    +0.000 A 
ATOM     16  C   UNL     1       9.597  12.292  19.299  0.00  0.00    +0.000 A 
ATOM     17  N   UNL     1       9.932  13.638  19.279  0.00  0.00    +0.000 N 
ATOM     18  C   UNL     1       9.596  14.167  18.020  0.00  0.00    +0.000 A 
ATOM     19  O   UNL     1       9.747  15.318  17.652  0.00  0.00    +0.000 OA
ATOM     20  N   UNL     1       9.055  13.113  17.274  0.00  0.00    +0.000 N 
ATOM     21  C   UNL     1       9.058  11.965  18.060  0.00  0.00    +0.000 A 
ATOM     22  C   UNL     1       8.618  10.702  17.758  0.00  0.00    +0.000 A 
ATOM     23  H   UNL     1      10.329  14.183  20.023  0.00  0.00    +0.000 HD
ATOM     24  H   UNL     1       8.719  13.206  16.330  0.00  0.00    +0.000 HD
ENDBRANCH  11  13
ENDBRANCH  10  11
ENDBRANCH   3  10
BRANCH   7  25
ATOM     25  O   UNL     1       3.708   4.276  17.008  0.00  0.00    +0.000 OA
BRANCH  25  26
ATOM     26  C   UNL     1       3.867   3.108  17.817  0.00  0.00    +0.000 C 
BRANCH  26  27
ATOM     27  C   UNL     1       3.011   3.144  19.048  0.00  0.00    +0.000 A 
ATOM     28  C   UNL     1       3.481   2.735  20.301  0.00  0.00    +0.000 A 
ATOM     29  C   UNL     1       2.621   2.726  21.400  0.00  0.00    +0.000 A 
ATOM     30  C   UNL     1       1.287   3.110  21.252  0.00  0.00    +0.000 A 
ATOM     31  C   UNL     1       0.804   3.496  20.006  0.00  0.00    +0.000 A 
ATOM     32  C   UNL     1       1.665   3.504  18.916  0.00  0.00    +0.000 A 
ATOM     33  F   UNL     1       1.182   3.849  17.712  0.00  0.00    +0.000 F 
ENDBRANCH  26  27
ENDBRANCH  25  26
ENDBRANCH   7  25
TORSDOF 7
ENDMDL
MODEL 4
REMARK VINA RESULT:      -8.1      5.556      7.339
REMARK  Name = 
REMARK  8 active torsions:
REMARK  status: ('A' for Active; 'I' for Inactive)
REMARK    1  A    between atoms: C_1  and  O_2
REMARK    2  A    between atoms: O_2  and  C_3
REMARK    3  A    between atoms: C_5  and  C_6
REMARK    4  A    between atoms: C_6  and  N_7
REMARK    5  A    between atoms: N_7  and  C_8
REMARK    6  A    between atoms: C_21  and  O_22
REMARK    7  A    between atoms: O_22  and  C_23
REMARK    8  A    between atoms: C_23  and  C_24
REMARK                            x       y       z     vdW  Elec       q    Type
REMARK                         _______ _______ _______ _____ _____    ______ ____
ROOT
ATOM      1  C   UNL     1       1.727   5.090  20.007  0.00  0.00    +0.000 A 
ATOM      2  C   UNL     1       1.321   6.125  20.852  0.00  0.00    +0.000 A 
ATOM      3  C   UNL     1       1.620   7.457  20.554  0.00  0.00    +0.000 A 
ATOM      4  C   UNL     1       2.310   7.754  19.373  0.00  0.00    +0.000 A 
ATOM      5  C   UNL     1       2.703   6.726  18.510  0.00  0.00    +0.000 A 
ATOM      6 CL   UNL     1       3.557   7.171  17.072  0.00  0.00    +0.000 Cl
ATOM      7  C   UNL     1       2.393   5.384  18.801  0.00  0.00    +0.000 A 
ENDROOT
BRANCH   1   9
ATOM      8  C   UNL     1       1.932   3.257  21.502  0.00  0.00    +0.000 C 
ATOM      9  O   UNL     1       1.396   3.795  20.301  0.00  0.00    +0.000 OA
ENDBRANCH   1   9
BRANCH   3  10
ATOM     10  C   UNL     1       1.188   8.541  21.501  0.00  0.00    +0.000 C 
BRANCH  10  11
ATOM     11  N   UNL     1      -0.195   8.915  21.244  0.00  0.00    +0.000 N 
ATOM     12  H   UNL     1      -0.741   8.995  22.103  0.00  0.00    +0.000 HD
BRANCH  11  13
ATOM     13  C   UNL     1      -0.395  10.026  20.397  0.00  0.00    +0.000 A 
ATOM     14  C   UNL     1      -0.900   9.807  19.089  0.00  0.00    +0.000 A 
ATOM     15  C   UNL     1      -1.083  10.855  18.171  0.00  0.00    +0.000 A 
ATOM     16  C   UNL     1      -0.713  12.107  18.589  0.00  0.00    +0.000 A 
ATOM     17  N   UNL     1      -0.755  13.323  17.922  0.00  0.00    +0.000 N 
ATOM     18  C   UNL     1      -0.235  14.319  18.767  0.00  0.00    +0.000 A 
ATOM     19  O   UNL     1      -0.116  15.503  18.507  0.00  0.00    +0.000 OA
ATOM     20  N   UNL     1       0.121  13.684  19.963  0.00  0.00    +0.000 N 
ATOM     21  C   UNL     1      -0.174  12.329  19.852  0.00  0.00    +0.000 A 
ATOM     22  C   UNL     1       0.010  11.320  20.761  0.00  0.00    +0.000 A 
ATOM     23  H   UNL     1      -1.077  13.499  16.987  0.00  0.00    +0.000 HD
ATOM     24  H   UNL     1       0.530  14.157  20.751  0.00  0.00    +0.000 HD
ENDBRANCH  11  13
ENDBRANCH  10  11
ENDBRANCH   3  10
BRANCH   7  25
ATOM     25  O   UNL     1       2.792   4.455  17.865  0.00  0.00    +0.000 OA
BRANCH  25  26
ATOM     26  C   UNL     1       3.871   3.604  18.259  0.00  0.00    +0.000 C 
BRANCH  26  27
ATOM     27  C   UNL     1       5.203   4.287  18.166  0.00  0.00    +0.000 A 
ATOM     28  C   UNL     1       5.789   4.938  19.257  0.00  0.00    +0.000 A 
ATOM     29  C   UNL     1       6.999   5.616  19.098  0.00  0.00    +0.000 A 
ATOM     30  C   UNL     1       7.621   5.660  17.850  0.00  0.00    +0.000 A 
ATOM     31  C   UNL     1       7.034   5.036  16.753  0.00  0.00    +0.000 A 
ATOM     32  C   UNL     1       5.831   4.362  16.918  0.00  0.00    +0.000 A 
ATOM     33  F   UNL     1       5.258   3.789  15.848  0.00  0.00    +0.000 F 
ENDBRANCH  26  27
ENDBRANCH  25  26
ENDBRANCH   7  25
TORSDOF 7
ENDMDL
MODEL 5
REMARK VINA RESULT:      -8.1      1.211      2.033
REMARK  Name = 
REMARK  8 active torsions:
REMARK  status: ('A' for Active; 'I' for Inactive)
REMARK    1  A    between atoms: C_1  and  O_2
REMARK    2  A    between atoms: O_2  and  C_3
REMARK    3  A    between atoms: C_5  and  C_6
REMARK    4  A    between atoms: C_6  and  N_7
REMARK    5  A    between atoms: N_7  and  C_8
REMARK    6  A    between atoms: C_21  and  O_22
REMARK    7  A    between atoms: O_22  and  C_23
REMARK    8  A    between atoms: C_23  and  C_24
REMARK                            x       y       z     vdW  Elec       q    Type
REMARK                         _______ _______ _______ _____ _____    ______ ____
ROOT
ATOM      1  C   UNL     1       4.373   5.965  17.858  0.00  0.00    +0.000 A 
ATOM      2  C   UNL     1       5.429   6.841  18.113  0.00  0.00    +0.000 A 
ATOM      3  C   UNL     1       6.696   6.619  17.567  0.00  0.00    +0.000 A 
ATOM      4  C   UNL     1       6.895   5.516  16.729  0.00  0.00    +0.000 A 
ATOM      5  C   UNL     1       5.838   4.644  16.452  0.00  0.00    +0.000 A 
ATOM      6 CL   UNL     1       6.162   3.298  15.411  0.00  0.00    +0.000 Cl
ATOM      7  C   UNL     1       4.557   4.871  16.990  0.00  0.00    +0.000 A 
ENDROOT
BRANCH   1   9
ATOM      8  C   UNL     1       3.023   6.238  19.792  0.00  0.00    +0.000 C 
ATOM      9  O   UNL     1       3.131   6.218  18.376  0.00  0.00    +0.000 OA
ENDBRANCH   1   9
BRANCH   3  10
ATOM     10  C   UNL     1       7.815   7.571  17.885  0.00  0.00    +0.000 C 
BRANCH  10  11
ATOM     11  N   UNL     1       7.489   8.909  17.411  0.00  0.00    +0.000 N 
ATOM     12  H   UNL     1       6.492   9.115  17.488  0.00  0.00    +0.000 HD
BRANCH  11  13
ATOM     13  C   UNL     1       8.277   9.962  17.922  0.00  0.00    +0.000 A 
ATOM     14  C   UNL     1       9.065   9.728  19.079  0.00  0.00    +0.000 A 
ATOM     15  C   UNL     1       9.840  10.737  19.675  0.00  0.00    +0.000 A 
ATOM     16  C   UNL     1       9.772  11.981  19.102  0.00  0.00    +0.000 A 
ATOM     17  N   UNL     1      10.396  13.168  19.458  0.00  0.00    +0.000 N 
ATOM     18  C   UNL     1       9.982  14.179  18.574  0.00  0.00    +0.000 A 
ATOM     19  O   UNL     1      10.326  15.347  18.594  0.00  0.00    +0.000 OA
ATOM     20  N   UNL     1       9.095  13.582  17.670  0.00  0.00    +0.000 N 
ATOM     21  C   UNL     1       8.969  12.235  17.994  0.00  0.00    +0.000 A 
ATOM     22  C   UNL     1       8.208  11.263  17.399  0.00  0.00    +0.000 A 
ATOM     23  H   UNL     1      11.029  13.322  20.224  0.00  0.00    +0.000 HD
ATOM     24  H   UNL     1       8.634  14.076  16.925  0.00  0.00    +0.000 HD
ENDBRANCH  11  13
ENDBRANCH  10  11
ENDBRANCH   3  10
BRANCH   7  25
ATOM     25  O   UNL     1       3.579   3.973  16.622  0.00  0.00    +0.000 OA
BRANCH  25  26
ATOM     26  C   UNL     1       3.586   2.727  17.323  0.00  0.00    +0.000 C 
BRANCH  26  27
ATOM     27  C   UNL     1       2.766   2.771  18.577  0.00  0.00    +0.000 A 
ATOM     28  C   UNL     1       1.397   3.059  18.569  0.00  0.00    +0.000 A 
ATOM     29  C   UNL     1       0.696   3.153  19.772  0.00  0.00    +0.000 A 
ATOM     30  C   UNL     1       1.359   2.976  20.988  0.00  0.00    +0.000 A 
ATOM     31  C   UNL     1       2.725   2.712  21.008  0.00  0.00    +0.000 A 
ATOM     32  C   UNL     1       3.417   2.619  19.807  0.00  0.00    +0.000 A 
ATOM     33  F   UNL     1       4.740   2.394  19.838  0.00  0.00    +0.000 F 
ENDBRANCH  26  27
ENDBRANCH  25  26
ENDBRANCH   7  25
TORSDOF 7
ENDMDL
MODEL 6
REMARK VINA RESULT:      -8.0      2.027      2.581
REMARK  Name = 
REMARK  8 active torsions:
REMARK  status: ('A' for Active; 'I' for Inactive)
REMARK    1  A    between atoms: C_1  and  O_2
REMARK    2  A    between atoms: O_2  and  C_3
REMARK    3  A    between atoms: C_5  and  C_6
REMARK    4  A    between atoms: C_6  and  N_7
REMARK    5  A    between atoms: N_7  and  C_8
REMARK    6  A    between atoms: C_21  and  O_22
REMARK    7  A    between atoms: O_22  and  C_23
REMARK    8  A    between atoms: C_23  and  C_24
REMARK                            x       y       z     vdW  Elec       q    Type
REMARK                         _______ _______ _______ _____ _____    ______ ____
ROOT
ATOM      1  C   UNL     1       6.210   6.637  17.245  0.00  0.00    +0.000 A 
ATOM      2  C   UNL     1       6.792   7.899  17.115  0.00  0.00    +0.000 A 
ATOM      3  C   UNL     1       7.851   8.292  17.938  0.00  0.00    +0.000 A 
ATOM      4  C   UNL     1       8.351   7.389  18.884  0.00  0.00    +0.000 A 
ATOM      5  C   UNL     1       7.789   6.116  19.007  0.00  0.00    +0.000 A 
ATOM      6 CL   UNL     1       8.457   5.057  20.203  0.00  0.00    +0.000 Cl
ATOM      7  C   UNL     1       6.730   5.712  18.172  0.00  0.00    +0.000 A 
ENDROOT
BRANCH   1   9
ATOM      8  C   UNL     1       5.567   5.546  15.236  0.00  0.00    +0.000 C 
ATOM      9  O   UNL     1       5.195   6.260  16.407  0.00  0.00    +0.000 OA
ENDBRANCH   1   9
BRANCH   3  10
ATOM     10  C   UNL     1       8.434   9.669  17.786  0.00  0.00    +0.000 C 
BRANCH  10  11
ATOM     11  N   UNL     1       9.296   9.980  18.917  0.00  0.00    +0.000 N 
ATOM     12  H   UNL     1       9.974   9.239  19.103  0.00  0.00    +0.000 HD
BRANCH  11  13
ATOM     13  C   UNL     1       9.907  11.251  18.907  0.00  0.00    +0.000 A 
ATOM     14  C   UNL     1      10.308  11.828  20.140  0.00  0.00    +0.000 A 
ATOM     15  C   UNL     1      10.881  13.109  20.217  0.00  0.00    +0.000 A 
ATOM     16  C   UNL     1      11.002  13.798  19.038  0.00  0.00    +0.000 A 
ATOM     17  N   UNL     1      11.504  15.067  18.789  0.00  0.00    +0.000 N 
ATOM     18  C   UNL     1      11.386  15.338  17.415  0.00  0.00    +0.000 A 
ATOM     19  O   UNL     1      11.723  16.360  16.844  0.00  0.00    +0.000 OA
ATOM     20  N   UNL     1      10.805  14.206  16.832  0.00  0.00    +0.000 N 
ATOM     21  C   UNL     1      10.572  13.263  17.828  0.00  0.00    +0.000 A 
ATOM     22  C   UNL     1      10.013  12.015  17.733  0.00  0.00    +0.000 A 
ATOM     23  H   UNL     1      11.880  15.720  19.455  0.00  0.00    +0.000 HD
ATOM     24  H   UNL     1      10.594  14.122  15.851  0.00  0.00    +0.000 HD
ENDBRANCH  11  13
ENDBRANCH  10  11
ENDBRANCH   3  10
BRANCH   7  25
ATOM     25  O   UNL     1       6.276   4.423  18.351  0.00  0.00    +0.000 OA
BRANCH  25  26
ATOM     26  C   UNL     1       5.348   4.237  19.422  0.00  0.00    +0.000 C 
BRANCH  26  27
ATOM     27  C   UNL     1       3.998   3.797  18.941  0.00  0.00    +0.000 A 
ATOM     28  C   UNL     1       3.068   4.689  18.396  0.00  0.00    +0.000 A 
ATOM     29  C   UNL     1       1.801   4.237  18.026  0.00  0.00    +0.000 A 
ATOM     30  C   UNL     1       1.450   2.898  18.210  0.00  0.00    +0.000 A 
ATOM     31  C   UNL     1       2.360   2.008  18.772  0.00  0.00    +0.000 A 
ATOM     32  C   UNL     1       3.620   2.463  19.138  0.00  0.00    +0.000 A 
ATOM     33  F   UNL     1       4.480   1.604  19.707  0.00  0.00    +0.000 F 
ENDBRANCH  26  27
ENDBRANCH  25  26
ENDBRANCH   7  25
TORSDOF 7
ENDMDL
MODEL 7
REMARK VINA RESULT:      -8.0      5.719      7.884
REMARK  Name = 
REMARK  8 active torsions:
REMARK  status: ('A' for Active; 'I' for Inactive)
REMARK    1  A    between atoms: C_1  and  O_2
REMARK    2  A    between atoms: O_2  and  C_3
REMARK    3  A    between atoms: C_5  and  C_6
REMARK    4  A    between atoms: C_6  and  N_7
REMARK    5  A    between atoms: N_7  and  C_8
REMARK    6  A    between atoms: C_21  and  O_22
REMARK    7  A    between atoms: O_22  and  C_23
REMARK    8  A    between atoms: C_23  and  C_24
REMARK                            x       y       z     vdW  Elec       q    Type
REMARK                         _______ _______ _______ _____ _____    ______ ____
ROOT
ATOM      1  C   UNL     1       2.726   3.678  18.127  0.00  0.00    +0.000 A 
ATOM      2  C   UNL     1       2.118   4.293  19.223  0.00  0.00    +0.000 A 
ATOM      3  C   UNL     1       2.272   5.662  19.458  0.00  0.00    +0.000 A 
ATOM      4  C   UNL     1       3.024   6.428  18.560  0.00  0.00    +0.000 A 
ATOM      5  C   UNL     1       3.619   5.826  17.448  0.00  0.00    +0.000 A 
ATOM      6 CL   UNL     1       4.539   6.837  16.386  0.00  0.00    +0.000 Cl
ATOM      7  C   UNL     1       3.457   4.449  17.202  0.00  0.00    +0.000 A 
ENDROOT
BRANCH   1   9
ATOM      8  C   UNL     1       3.459   1.453  18.508  0.00  0.00    +0.000 C 
ATOM      9  O   UNL     1       2.536   2.342  17.896  0.00  0.00    +0.000 OA
ENDBRANCH   1   9
BRANCH   3  10
ATOM     10  C   UNL     1       1.623   6.282  20.664  0.00  0.00    +0.000 C 
BRANCH  10  11
ATOM     11  N   UNL     1       2.132   7.630  20.873  0.00  0.00    +0.000 N 
ATOM     12  H   UNL     1       2.866   7.875  20.207  0.00  0.00    +0.000 HD
BRANCH  11  13
ATOM     13  C   UNL     1       1.166   8.653  20.979  0.00  0.00    +0.000 A 
ATOM     14  C   UNL     1       0.890   9.455  19.840  0.00  0.00    +0.000 A 
ATOM     15  C   UNL     1      -0.024  10.522  19.878  0.00  0.00    +0.000 A 
ATOM     16  C   UNL     1      -0.616  10.778  21.088  0.00  0.00    +0.000 A 
ATOM     17  N   UNL     1      -1.534  11.755  21.447  0.00  0.00    +0.000 N 
ATOM     18  C   UNL     1      -1.817  11.625  22.818  0.00  0.00    +0.000 A 
ATOM     19  O   UNL     1      -2.577  12.318  23.471  0.00  0.00    +0.000 OA
ATOM     20  N   UNL     1      -1.055  10.548  23.285  0.00  0.00    +0.000 N 
ATOM     21  C   UNL     1      -0.321  10.029  22.222  0.00  0.00    +0.000 A 
ATOM     22  C   UNL     1       0.566   8.984  22.204  0.00  0.00    +0.000 A 
ATOM     23  H   UNL     1      -1.937  12.464  20.860  0.00  0.00    +0.000 HD
ATOM     24  H   UNL     1      -1.054  10.231  24.240  0.00  0.00    +0.000 HD
ENDBRANCH  11  13
ENDBRANCH  10  11
ENDBRANCH   3  10
BRANCH   7  25
ATOM     25  O   UNL     1       4.053   3.965  16.057  0.00  0.00    +0.000 OA
BRANCH  25  26
ATOM     26  C   UNL     1       5.481   3.910  16.080  0.00  0.00    +0.000 C 
BRANCH  26  27
ATOM     27  C   UNL     1       6.084   4.125  14.724  0.00  0.00    +0.000 A 
ATOM     28  C   UNL     1       5.700   3.379  13.605  0.00  0.00    +0.000 A 
ATOM     29  C   UNL     1       6.342   3.576  12.381  0.00  0.00    +0.000 A 
ATOM     30  C   UNL     1       7.378   4.505  12.271  0.00  0.00    +0.000 A 
ATOM     31  C   UNL     1       7.783   5.235  13.384  0.00  0.00    +0.000 A 
ATOM     32  C   UNL     1       7.140   5.036  14.599  0.00  0.00    +0.000 A 
ATOM     33  F   UNL     1       7.558   5.724  15.674  0.00  0.00    +0.000 F 
ENDBRANCH  26  27
ENDBRANCH  25  26
ENDBRANCH   7  25
TORSDOF 7
ENDMDL
MODEL 8
REMARK VINA RESULT:      -8.0      5.652      8.011
REMARK  Name = 
REMARK  8 active torsions:
REMARK  status: ('A' for Active; 'I' for Inactive)
REMARK    1  A    between atoms: C_1  and  O_2
REMARK    2  A    between atoms: O_2  and  C_3
REMARK    3  A    between atoms: C_5  and  C_6
REMARK    4  A    between atoms: C_6  and  N_7
REMARK    5  A    between atoms: N_7  and  C_8
REMARK    6  A    between atoms: C_21  and  O_22
REMARK    7  A    between atoms: O_22  and  C_23
REMARK    8  A    between atoms: C_23  and  C_24
REMARK                            x       y       z     vdW  Elec       q    Type
REMARK                         _______ _______ _______ _____ _____    ______ ____
ROOT
ATOM      1  C   UNL     1       1.764   5.368  20.073  0.00  0.00    +0.000 A 
ATOM      2  C   UNL     1       1.403   6.462  20.861  0.00  0.00    +0.000 A 
ATOM      3  C   UNL     1       1.712   7.767  20.466  0.00  0.00    +0.000 A 
ATOM      4  C   UNL     1       2.367   7.974  19.247  0.00  0.00    +0.000 A 
ATOM      5  C   UNL     1       2.713   6.886  18.441  0.00  0.00    +0.000 A 
ATOM      6 CL   UNL     1       3.526   7.222  16.949  0.00  0.00    +0.000 Cl
ATOM      7  C   UNL     1       2.393   5.572  18.829  0.00  0.00    +0.000 A 
ENDROOT
BRANCH   1   9
ATOM      8  C   UNL     1       2.056   3.600  21.630  0.00  0.00    +0.000 C 
ATOM      9  O   UNL     1       1.423   4.100  20.461  0.00  0.00    +0.000 OA
ENDBRANCH   1   9
BRANCH   3  10
ATOM     10  C   UNL     1       1.330   8.918  21.355  0.00  0.00    +0.000 C 
BRANCH  10  11
ATOM     11  N   UNL     1      -0.096   9.189  21.244  0.00  0.00    +0.000 N 
ATOM     12  H   UNL     1      -0.488   9.559  22.111  0.00  0.00    +0.000 HD
BRANCH  11  13
ATOM     13  C   UNL     1      -0.503   9.946  20.125  0.00  0.00    +0.000 A 
ATOM     14  C   UNL     1      -0.255  11.343  20.117  0.00  0.00    +0.000 A 
ATOM     15  C   UNL     1      -0.670  12.172  19.061  0.00  0.00    +0.000 A 
ATOM     16  C   UNL     1      -1.365  11.568  18.045  0.00  0.00    +0.000 A 
ATOM     17  N   UNL     1      -1.913  12.107  16.890  0.00  0.00    +0.000 N 
ATOM     18  C   UNL     1      -2.557  11.082  16.175  0.00  0.00    +0.000 A 
ATOM     19  O   UNL     1      -3.150  11.196  15.117  0.00  0.00    +0.000 OA
ATOM     20  N   UNL     1      -2.387   9.908  16.917  0.00  0.00    +0.000 N 
ATOM     21  C   UNL     1      -1.655  10.208  18.062  0.00  0.00    +0.000 A 
ATOM     22  C   UNL     1      -1.256   9.383  19.082  0.00  0.00    +0.000 A 
ATOM     23  H   UNL     1      -1.891  13.066  16.590  0.00  0.00    +0.000 HD
ATOM     24  H   UNL     1      -2.754   9.011  16.645  0.00  0.00    +0.000 HD
ENDBRANCH  11  13
ENDBRANCH  10  11
ENDBRANCH   3  10
BRANCH   7  25
ATOM     25  O   UNL     1       2.746   4.577  17.942  0.00  0.00    +0.000 OA
BRANCH  25  26
ATOM     26  C   UNL     1       3.805   3.716  18.367  0.00  0.00    +0.000 C 
BRANCH  26  27
ATOM     27  C   UNL     1       5.155   4.352  18.219  0.00  0.00    +0.000 A 
ATOM     28  C   UNL     1       5.795   5.009  19.275  0.00  0.00    +0.000 A 
ATOM     29  C   UNL     1       7.020   5.642  19.063  0.00  0.00    +0.000 A 
ATOM     30  C   UNL     1       7.605   5.636  17.796  0.00  0.00    +0.000 A 
ATOM     31  C   UNL     1       6.966   5.006  16.733  0.00  0.00    +0.000 A 
ATOM     32  C   UNL     1       5.746   4.376  16.950  0.00  0.00    +0.000 A 
ATOM     33  F   UNL     1       5.122   3.797  15.912  0.00  0.00    +0.000 F 
ENDBRANCH  26  27
ENDBRANCH  25  26
ENDBRANCH   7  25
TORSDOF 7
ENDMDL
MODEL 9
REMARK VINA RESULT:      -7.9      7.422      9.469
REMARK  Name = 
REMARK  8 active torsions:
REMARK  status: ('A' for Active; 'I' for Inactive)
REMARK    1  A    between atoms: C_1  and  O_2
REMARK    2  A    between atoms: O_2  and  C_3
REMARK    3  A    between atoms: C_5  and  C_6
REMARK    4  A    between atoms: C_6  and  N_7
REMARK    5  A    between atoms: N_7  and  C_8
REMARK    6  A    between atoms: C_21  and  O_22
REMARK    7  A    between atoms: O_22  and  C_23
REMARK    8  A    between atoms: C_23  and  C_24
REMARK                            x       y       z     vdW  Elec       q    Type
REMARK                         _______ _______ _______ _____ _____    ______ ____
ROOT
ATOM      1  C   UNL     1       1.376   8.420  20.572  0.00  0.00    +0.000 A 
ATOM      2  C   UNL     1       0.839   9.588  20.027  0.00  0.00    +0.000 A 
ATOM      3  C   UNL     1       1.098   9.951  18.703  0.00  0.00    +0.000 A 
ATOM      4  C   UNL     1       1.887   9.112  17.908  0.00  0.00    +0.000 A 
ATOM      5  C   UNL     1       2.412   7.930  18.438  0.00  0.00    +0.000 A 
ATOM      6 CL   UNL     1       3.382   6.946  17.394  0.00  0.00    +0.000 Cl
ATOM      7  C   UNL     1       2.143   7.555  19.767  0.00  0.00    +0.000 A 
ENDROOT
BRANCH   1   9
ATOM      8  C   UNL     1       0.507   9.072  22.683  0.00  0.00    +0.000 C 
ATOM      9  O   UNL     1       1.083   8.066  21.861  0.00  0.00    +0.000 OA
ENDBRANCH   1   9
BRANCH   3  10
ATOM     10  C   UNL     1       0.523  11.229  18.161  0.00  0.00    +0.000 C 
BRANCH  10  11
ATOM     11  N   UNL     1      -0.544  11.710  19.027  0.00  0.00    +0.000 N 
ATOM     12  H   UNL     1      -0.357  12.645  19.390  0.00  0.00    +0.000 HD
BRANCH  11  13
ATOM     13  C   UNL     1      -1.856  11.603  18.520  0.00  0.00    +0.000 A 
ATOM     14  C   UNL     1      -2.041  11.144  17.190  0.00  0.00    +0.000 A 
ATOM     15  C   UNL     1      -3.313  11.054  16.598  0.00  0.00    +0.000 A 
ATOM     16  C   UNL     1      -4.374  11.468  17.361  0.00  0.00    +0.000 A 
ATOM     17  N   UNL     1      -5.728  11.516  17.061  0.00  0.00    +0.000 N 
ATOM     18  C   UNL     1      -6.416  12.048  18.165  0.00  0.00    +0.000 A 
ATOM     19  O   UNL     1      -7.616  12.237  18.251  0.00  0.00    +0.000 OA
ATOM     20  N   UNL     1      -5.453  12.320  19.145  0.00  0.00    +0.000 N 
ATOM     21  C   UNL     1      -4.203  11.962  18.649  0.00  0.00    +0.000 A 
ATOM     22  C   UNL     1      -2.971  12.056  19.244  0.00  0.00    +0.000 A 
ATOM     23  H   UNL     1      -6.177  11.244  16.204  0.00  0.00    +0.000 HD
ATOM     24  H   UNL     1      -5.662  12.717  20.045  0.00  0.00    +0.000 HD
ENDBRANCH  11  13
ENDBRANCH  10  11
ENDBRANCH   3  10
BRANCH   7  25
ATOM     25  O   UNL     1       2.678   6.352  20.176  0.00  0.00    +0.000 OA
BRANCH  25  26
ATOM     26  C   UNL     1       1.774   5.244  20.188  0.00  0.00    +0.000 C 
BRANCH  26  27
ATOM     27  C   UNL     1       2.336   4.041  19.491  0.00  0.00    +0.000 A 
ATOM     28  C   UNL     1       3.279   3.199  20.091  0.00  0.00    +0.000 A 
ATOM     29  C   UNL     1       3.819   2.131  19.372  0.00  0.00    +0.000 A 
ATOM     30  C   UNL     1       3.432   1.906  18.050  0.00  0.00    +0.000 A 
ATOM     31  C   UNL     1       2.512   2.751  17.437  0.00  0.00    +0.000 A 
ATOM     32  C   UNL     1       1.978   3.812  18.158  0.00  0.00    +0.000 A 
ATOM     33  F   UNL     1       1.114   4.639  17.548  0.00  0.00    +0.000 F 
ENDBRANCH  26  27
ENDBRANCH  25  26
ENDBRANCH   7  25
TORSDOF 7
ENDMDL
