MODEL 1
REMARK VINA RESULT:      -7.7      0.000      0.000
REMARK  Name = 
REMARK  7 active torsions:
REMARK  status: ('A' for Active; 'I' for Inactive)
REMARK    1  A    between atoms: C_1  and  C_2
REMARK    2  A    between atoms: C_2  and  C_3
REMARK    3  A    between atoms: C_2  and  C_4
REMARK    4  A    between atoms: C_2  and  C_5
REMARK    5  A    between atoms: C_5  and  N_6
REMARK    6  A    between atoms: N_6  and  C_7
REMARK    7  A    between atoms: C_15  and  C_16
REMARK                            x       y       z     vdW  Elec       q    Type
REMARK                         _______ _______ _______ _____ _____    ______ ____
ROOT
ATOM      1  C   UNL     1       2.369   7.069  19.636  0.00  0.00    +0.000 A 
ATOM      2  C   UNL     1       2.626   7.534  18.349  0.00  0.00    +0.000 A 
ATOM      3  C   UNL     1       2.065   8.731  17.899  0.00  0.00    +0.000 A 
ATOM      4  C   UNL     1       1.267   9.490  18.754  0.00  0.00    +0.000 A 
ATOM      5  N   UNL     1       0.723  10.684  18.275  0.00  0.00    +0.000 N 
ATOM      6  C   UNL     1      -0.069  11.506  19.025  0.00  0.00    +0.000 A 
ATOM      7  O   UNL     1      -0.550  12.547  18.588  0.00  0.00    +0.000 OA
ATOM      8  C   UNL     1      -0.313  11.085  20.421  0.00  0.00    +0.000 A 
ATOM      9  C   UNL     1       0.189   9.949  20.946  0.00  0.00    +0.000 A 
ATOM     10  C   UNL     1       1.009   9.079  20.072  0.00  0.00    +0.000 A 
ATOM     11  C   UNL     1       1.569   7.863  20.477  0.00  0.00    +0.000 A 
ATOM     12  H   UNL     1       0.897  10.988  17.326  0.00  0.00    +0.000 HD
ENDROOT
BRANCH   9  13
ATOM     13  C   UNL     1      -0.096   9.642  22.392  0.00  0.00    +0.000 C 
ATOM     14  F   UNL     1       0.976   9.380  23.174  0.00  0.00    +0.000 F 
ATOM     15  F   UNL     1      -0.745  10.676  22.991  0.00  0.00    +0.000 F 
ATOM     16  F   UNL     1      -0.915   8.561  22.510  0.00  0.00    +0.000 F 
ENDBRANCH   9  13
BRANCH   1  17
ATOM     17  N   UNL     1       2.958   5.947  20.190  0.00  0.00    +0.000 N 
ATOM     18  H   UNL     1       2.723   5.788  21.166  0.00  0.00    +0.000 HD
BRANCH  17  19
ATOM     19  C   UNL     1       3.337   4.777  19.417  0.00  0.00    +0.000 C 
BRANCH  19  21
ATOM     20  C   UNL     1       1.445   4.041  17.891  0.00  0.00    +0.000 C 
ATOM     21  C   UNL     1       2.142   3.804  19.243  0.00  0.00    +0.000 C 
ATOM     22  C   UNL     1       1.128   3.980  20.388  0.00  0.00    +0.000 C 
ATOM     23  C   UNL     1       2.672   2.359  19.266  0.00  0.00    +0.000 C 
ENDBRANCH  19  21
ENDBRANCH  17  19
ENDBRANCH   1  17
TORSDOF 4
ENDMDL
MODEL 2
REMARK VINA RESULT:      -7.7      0.710      1.248
REMARK  Name = 
REMARK  7 active torsions:
REMARK  status: ('A' for Active; 'I' for Inactive)
REMARK    1  A    between atoms: C_1  and  C_2
REMARK    2  A    between atoms: C_2  and  C_3
REMARK    3  A    between atoms: C_2  and  C_4
REMARK    4  A    between atoms: C_2  and  C_5
REMARK    5  A    between atoms: C_5  and  N_6
REMARK    6  A    between atoms: N_6  and  C_7
REMARK    7  A    between atoms: C_15  and  C_16
REMARK                            x       y       z     vdW  Elec       q    Type
REMARK                         _______ _______ _______ _____ _____    ______ ____
ROOT
ATOM      1  C   UNL     1       2.363   6.974  19.574  0.00  0.00    +0.000 A 
ATOM      2  C   UNL     1       2.628   7.430  18.286  0.00  0.00    +0.000 A 
ATOM      3  C   UNL     1       2.108   8.647  17.840  0.00  0.00    +0.000 A 
ATOM      4  C   UNL     1       1.343   9.434  18.700  0.00  0.00    +0.000 A 
ATOM      5  N   UNL     1       0.839  10.646  18.225  0.00  0.00    +0.000 N 
ATOM      6  C   UNL     1       0.082  11.496  18.981  0.00  0.00    +0.000 A 
ATOM      7  O   UNL     1      -0.364  12.554  18.547  0.00  0.00    +0.000 OA
ATOM      8  C   UNL     1      -0.169  11.082  20.378  0.00  0.00    +0.000 A 
ATOM      9  C   UNL     1       0.295   9.928  20.899  0.00  0.00    +0.000 A 
ATOM     10  C   UNL     1       1.078   9.031  20.019  0.00  0.00    +0.000 A 
ATOM     11  C   UNL     1       1.597   7.795  20.420  0.00  0.00    +0.000 A 
ATOM     12  H   UNL     1       1.019  10.945  17.275  0.00  0.00    +0.000 HD
ENDROOT
BRANCH   9  13
ATOM     13  C   UNL     1       0.007   9.631  22.346  0.00  0.00    +0.000 C 
ATOM     14  F   UNL     1       1.075   9.332  23.123  0.00  0.00    +0.000 F 
ATOM     15  F   UNL     1      -0.603  10.686  22.949  0.00  0.00    +0.000 F 
ATOM     16  F   UNL     1      -0.846   8.577  22.469  0.00  0.00    +0.000 F 
ENDBRANCH   9  13
BRANCH   1  17
ATOM     17  N   UNL     1       2.914   5.830  20.123  0.00  0.00    +0.000 N 
ATOM     18  H   UNL     1       3.929   5.845  20.191  0.00  0.00    +0.000 HD
BRANCH  17  19
ATOM     19  C   UNL     1       2.215   4.977  21.067  0.00  0.00    +0.000 C 
BRANCH  19  21
ATOM     20  C   UNL     1       1.620   2.577  21.648  0.00  0.00    +0.000 C 
ATOM     21  C   UNL     1       2.089   3.528  20.531  0.00  0.00    +0.000 C 
ATOM     22  C   UNL     1       3.435   3.039  19.966  0.00  0.00    +0.000 C 
ATOM     23  C   UNL     1       1.039   3.504  19.405  0.00  0.00    +0.000 C 
ENDBRANCH  19  21
ENDBRANCH  17  19
ENDBRANCH   1  17
TORSDOF 4
ENDMDL
MODEL 3
REMARK VINA RESULT:      -7.7      0.712      1.150
REMARK  Name = 
REMARK  7 active torsions:
REMARK  status: ('A' for Active; 'I' for Inactive)
REMARK    1  A    between atoms: C_1  and  C_2
REMARK    2  A    between atoms: C_2  and  C_3
REMARK    3  A    between atoms: C_2  and  C_4
REMARK    4  A    between atoms: C_2  and  C_5
REMARK    5  A    between atoms: C_5  and  N_6
REMARK    6  A    between atoms: N_6  and  C_7
REMARK    7  A    between atoms: C_15  and  C_16
REMARK                            x       y       z     vdW  Elec       q    Type
REMARK                         _______ _______ _______ _____ _____    ______ ____
ROOT
ATOM      1  C   UNL     1       2.365   6.979  19.575  0.00  0.00    +0.000 A 
ATOM      2  C   UNL     1       2.639   7.437  18.290  0.00  0.00    +0.000 A 
ATOM      3  C   UNL     1       2.123   8.655  17.843  0.00  0.00    +0.000 A 
ATOM      4  C   UNL     1       1.351   9.441  18.698  0.00  0.00    +0.000 A 
ATOM      5  N   UNL     1       0.852  10.654  18.222  0.00  0.00    +0.000 N 
ATOM      6  C   UNL     1       0.089  11.503  18.973  0.00  0.00    +0.000 A 
ATOM      7  O   UNL     1      -0.353  12.561  18.538  0.00  0.00    +0.000 OA
ATOM      8  C   UNL     1      -0.172  11.087  20.367  0.00  0.00    +0.000 A 
ATOM      9  C   UNL     1       0.288   9.932  20.890  0.00  0.00    +0.000 A 
ATOM     10  C   UNL     1       1.077   9.036  20.015  0.00  0.00    +0.000 A 
ATOM     11  C   UNL     1       1.593   7.799  20.417  0.00  0.00    +0.000 A 
ATOM     12  H   UNL     1       1.038  10.954  17.273  0.00  0.00    +0.000 HD
ENDROOT
BRANCH   9  13
ATOM     13  C   UNL     1      -0.010   9.632  22.335  0.00  0.00    +0.000 C 
ATOM     14  F   UNL     1      -0.607  10.619  23.043  0.00  0.00    +0.000 F 
ATOM     15  F   UNL     1      -0.827   8.551  22.450  0.00  0.00    +0.000 F 
ATOM     16  F   UNL     1       1.127   9.324  23.015  0.00  0.00    +0.000 F 
ENDBRANCH   9  13
BRANCH   1  17
ATOM     17  N   UNL     1       2.912   5.834  20.127  0.00  0.00    +0.000 N 
ATOM     18  H   UNL     1       3.926   5.849  20.202  0.00  0.00    +0.000 HD
BRANCH  17  19
ATOM     19  C   UNL     1       2.205   4.980  21.064  0.00  0.00    +0.000 C 
BRANCH  19  21
ATOM     20  C   UNL     1       1.049   3.498  19.355  0.00  0.00    +0.000 C 
ATOM     21  C   UNL     1       2.062   3.537  20.515  0.00  0.00    +0.000 C 
ATOM     22  C   UNL     1       1.613   2.574  21.629  0.00  0.00    +0.000 C 
ATOM     23  C   UNL     1       3.428   3.073  19.977  0.00  0.00    +0.000 C 
ENDBRANCH  19  21
ENDBRANCH  17  19
ENDBRANCH   1  17
TORSDOF 4
ENDMDL
MODEL 4
REMARK VINA RESULT:      -7.7      0.199      1.280
REMARK  Name = 
REMARK  7 active torsions:
REMARK  status: ('A' for Active; 'I' for Inactive)
REMARK    1  A    between atoms: C_1  and  C_2
REMARK    2  A    between atoms: C_2  and  C_3
REMARK    3  A    between atoms: C_2  and  C_4
REMARK    4  A    between atoms: C_2  and  C_5
REMARK    5  A    between atoms: C_5  and  N_6
REMARK    6  A    between atoms: N_6  and  C_7
REMARK    7  A    between atoms: C_15  and  C_16
REMARK                            x       y       z     vdW  Elec       q    Type
REMARK                         _______ _______ _______ _____ _____    ______ ____
ROOT
ATOM      1  C   UNL     1       2.282   7.217  19.659  0.00  0.00    +0.000 A 
ATOM      2  C   UNL     1       2.535   7.725  18.388  0.00  0.00    +0.000 A 
ATOM      3  C   UNL     1       1.959   8.927  17.973  0.00  0.00    +0.000 A 
ATOM      4  C   UNL     1       1.149   9.649  18.849  0.00  0.00    +0.000 A 
ATOM      5  N   UNL     1       0.590  10.850  18.405  0.00  0.00    +0.000 N 
ATOM      6  C   UNL     1      -0.215  11.638  19.178  0.00  0.00    +0.000 A 
ATOM      7  O   UNL     1      -0.708  12.685  18.772  0.00  0.00    +0.000 OA
ATOM      8  C   UNL     1      -0.457  11.171  20.559  0.00  0.00    +0.000 A 
ATOM      9  C   UNL     1       0.059  10.025  21.051  0.00  0.00    +0.000 A 
ATOM     10  C   UNL     1       0.894   9.195  20.153  0.00  0.00    +0.000 A 
ATOM     11  C   UNL     1       1.469   7.974  20.521  0.00  0.00    +0.000 A 
ATOM     12  H   UNL     1       0.762  11.185  17.466  0.00  0.00    +0.000 HD
ENDROOT
BRANCH   9  13
ATOM     13  C   UNL     1      -0.225   9.671  22.485  0.00  0.00    +0.000 C 
ATOM     14  F   UNL     1      -0.934  10.576  23.200  0.00  0.00    +0.000 F 
ATOM     15  F   UNL     1      -0.923   8.507  22.571  0.00  0.00    +0.000 F 
ATOM     16  F   UNL     1       0.929   9.473  23.179  0.00  0.00    +0.000 F 
ENDBRANCH   9  13
BRANCH   1  17
ATOM     17  N   UNL     1       2.884   6.086  20.179  0.00  0.00    +0.000 N 
ATOM     18  H   UNL     1       2.605   5.863  21.132  0.00  0.00    +0.000 HD
BRANCH  17  19
ATOM     19  C   UNL     1       3.348   4.978  19.364  0.00  0.00    +0.000 C 
BRANCH  19  21
ATOM     20  C   UNL     1       1.199   4.016  20.315  0.00  0.00    +0.000 C 
ATOM     21  C   UNL     1       2.244   3.905  19.189  0.00  0.00    +0.000 C 
ATOM     22  C   UNL     1       2.855   2.492  19.187  0.00  0.00    +0.000 C 
ATOM     23  C   UNL     1       1.531   4.141  17.844  0.00  0.00    +0.000 C 
ENDBRANCH  19  21
ENDBRANCH  17  19
ENDBRANCH   1  17
TORSDOF 4
ENDMDL
MODEL 5
REMARK VINA RESULT:      -7.6      0.087      1.250
REMARK  Name = 
REMARK  7 active torsions:
REMARK  status: ('A' for Active; 'I' for Inactive)
REMARK    1  A    between atoms: C_1  and  C_2
REMARK    2  A    between atoms: C_2  and  C_3
REMARK    3  A    between atoms: C_2  and  C_4
REMARK    4  A    between atoms: C_2  and  C_5
REMARK    5  A    between atoms: C_5  and  N_6
REMARK    6  A    between atoms: N_6  and  C_7
REMARK    7  A    between atoms: C_15  and  C_16
REMARK                            x       y       z     vdW  Elec       q    Type
REMARK                         _______ _______ _______ _____ _____    ______ ____
ROOT
ATOM      1  C   UNL     1       2.302   7.096  19.661  0.00  0.00    +0.000 A 
ATOM      2  C   UNL     1       2.587   7.564  18.382  0.00  0.00    +0.000 A 
ATOM      3  C   UNL     1       2.061   8.778  17.934  0.00  0.00    +0.000 A 
ATOM      4  C   UNL     1       1.269   9.549  18.784  0.00  0.00    +0.000 A 
ATOM      5  N   UNL     1       0.760  10.759  18.307  0.00  0.00    +0.000 N 
ATOM      6  C   UNL     1      -0.023  11.594  19.053  0.00  0.00    +0.000 A 
ATOM      7  O   UNL     1      -0.473  12.649  18.618  0.00  0.00    +0.000 OA
ATOM      8  C   UNL     1      -0.296  11.167  20.442  0.00  0.00    +0.000 A 
ATOM      9  C   UNL     1       0.172  10.015  20.965  0.00  0.00    +0.000 A 
ATOM     10  C   UNL     1       0.984   9.134  20.095  0.00  0.00    +0.000 A 
ATOM     11  C   UNL     1       1.509   7.902  20.497  0.00  0.00    +0.000 A 
ATOM     12  H   UNL     1       0.954  11.066  17.363  0.00  0.00    +0.000 HD
ENDROOT
BRANCH   9  13
ATOM     13  C   UNL     1      -0.140   9.705  22.404  0.00  0.00    +0.000 C 
ATOM     14  F   UNL     1      -0.915   8.619  22.630  0.00  0.00    +0.000 F 
ATOM     15  F   UNL     1       0.999   9.498  23.117  0.00  0.00    +0.000 F 
ATOM     16  F   UNL     1      -0.779  10.747  23.002  0.00  0.00    +0.000 F 
ENDBRANCH   9  13
BRANCH   1  17
ATOM     17  N   UNL     1       2.856   5.955  20.213  0.00  0.00    +0.000 N 
ATOM     18  H   UNL     1       2.541   5.751  21.158  0.00  0.00    +0.000 HD
BRANCH  17  19
ATOM     19  C   UNL     1       3.316   4.825  19.425  0.00  0.00    +0.000 C 
BRANCH  19  21
ATOM     20  C   UNL     1       2.724   2.364  19.209  0.00  0.00    +0.000 C 
ATOM     21  C   UNL     1       2.175   3.803  19.186  0.00  0.00    +0.000 C 
ATOM     22  C   UNL     1       1.480   4.071  17.839  0.00  0.00    +0.000 C 
ATOM     23  C   UNL     1       1.139   3.942  20.317  0.00  0.00    +0.000 C 
ENDBRANCH  19  21
ENDBRANCH  17  19
ENDBRANCH   1  17
TORSDOF 4
ENDMDL
MODEL 6
REMARK VINA RESULT:      -7.5      3.829      6.816
REMARK  Name = 
REMARK  7 active torsions:
REMARK  status: ('A' for Active; 'I' for Inactive)
REMARK    1  A    between atoms: C_1  and  C_2
REMARK    2  A    between atoms: C_2  and  C_3
REMARK    3  A    between atoms: C_2  and  C_4
REMARK    4  A    between atoms: C_2  and  C_5
REMARK    5  A    between atoms: C_5  and  N_6
REMARK    6  A    between atoms: N_6  and  C_7
REMARK    7  A    between atoms: C_15  and  C_16
REMARK                            x       y       z     vdW  Elec       q    Type
REMARK                         _______ _______ _______ _____ _____    ______ ____
ROOT
ATOM      1  C   UNL     1       2.927   6.806  18.088  0.00  0.00    +0.000 A 
ATOM      2  C   UNL     1       4.260   6.662  17.716  0.00  0.00    +0.000 A 
ATOM      3  C   UNL     1       5.000   5.554  18.132  0.00  0.00    +0.000 A 
ATOM      4  C   UNL     1       4.394   4.561  18.900  0.00  0.00    +0.000 A 
ATOM      5  N   UNL     1       5.160   3.463  19.298  0.00  0.00    +0.000 N 
ATOM      6  C   UNL     1       4.669   2.433  20.048  0.00  0.00    +0.000 A 
ATOM      7  O   UNL     1       5.356   1.480  20.401  0.00  0.00    +0.000 OA
ATOM      8  C   UNL     1       3.238   2.512  20.411  0.00  0.00    +0.000 A 
ATOM      9  C   UNL     1       2.442   3.540  20.051  0.00  0.00    +0.000 A 
ATOM     10  C   UNL     1       3.042   4.646  19.270  0.00  0.00    +0.000 A 
ATOM     11  C   UNL     1       2.342   5.783  18.854  0.00  0.00    +0.000 A 
ATOM     12  H   UNL     1       6.137   3.393  19.042  0.00  0.00    +0.000 HD
ENDROOT
BRANCH   9  13
ATOM     13  C   UNL     1       0.991   3.492  20.446  0.00  0.00    +0.000 C 
ATOM     14  F   UNL     1       0.137   2.964  19.538  0.00  0.00    +0.000 F 
ATOM     15  F   UNL     1       0.817   2.764  21.581  0.00  0.00    +0.000 F 
ATOM     16  F   UNL     1       0.517   4.739  20.719  0.00  0.00    +0.000 F 
ENDBRANCH   9  13
BRANCH   1  17
ATOM     17  N   UNL     1       2.100   7.822  17.642  0.00  0.00    +0.000 N 
ATOM     18  H   UNL     1       1.132   7.542  17.501  0.00  0.00    +0.000 HD
BRANCH  17  19
ATOM     19  C   UNL     1       2.334   9.227  17.923  0.00  0.00    +0.000 C 
BRANCH  19  21
ATOM     20  C   UNL     1       0.989   9.232  20.078  0.00  0.00    +0.000 C 
ATOM     21  C   UNL     1       1.137   9.858  18.678  0.00  0.00    +0.000 C 
ATOM     22  C   UNL     1      -0.168   9.667  17.884  0.00  0.00    +0.000 C 
ATOM     23  C   UNL     1       1.398  11.366  18.850  0.00  0.00    +0.000 C 
ENDBRANCH  19  21
ENDBRANCH  17  19
ENDBRANCH   1  17
TORSDOF 4
ENDMDL
MODEL 7
REMARK VINA RESULT:      -7.5      3.836      6.742
REMARK  Name = 
REMARK  7 active torsions:
REMARK  status: ('A' for Active; 'I' for Inactive)
REMARK    1  A    between atoms: C_1  and  C_2
REMARK    2  A    between atoms: C_2  and  C_3
REMARK    3  A    between atoms: C_2  and  C_4
REMARK    4  A    between atoms: C_2  and  C_5
REMARK    5  A    between atoms: C_5  and  N_6
REMARK    6  A    between atoms: N_6  and  C_7
REMARK    7  A    between atoms: C_15  and  C_16
REMARK                            x       y       z     vdW  Elec       q    Type
REMARK                         _______ _______ _______ _____ _____    ______ ____
ROOT
ATOM      1  C   UNL     1       2.891   6.782  18.117  0.00  0.00    +0.000 A 
ATOM      2  C   UNL     1       4.216   6.639  17.718  0.00  0.00    +0.000 A 
ATOM      3  C   UNL     1       4.965   5.530  18.117  0.00  0.00    +0.000 A 
ATOM      4  C   UNL     1       4.375   4.536  18.897  0.00  0.00    +0.000 A 
ATOM      5  N   UNL     1       5.150   3.439  19.278  0.00  0.00    +0.000 N 
ATOM      6  C   UNL     1       4.674   2.407  20.037  0.00  0.00    +0.000 A 
ATOM      7  O   UNL     1       5.369   1.454  20.374  0.00  0.00    +0.000 OA
ATOM      8  C   UNL     1       3.250   2.485  20.428  0.00  0.00    +0.000 A 
ATOM      9  C   UNL     1       2.447   3.513  20.086  0.00  0.00    +0.000 A 
ATOM     10  C   UNL     1       3.031   4.620  19.294  0.00  0.00    +0.000 A 
ATOM     11  C   UNL     1       2.322   5.757  18.894  0.00  0.00    +0.000 A 
ATOM     12  H   UNL     1       6.121   3.369  19.002  0.00  0.00    +0.000 HD
ENDROOT
BRANCH   9  13
ATOM     13  C   UNL     1       1.004   3.464  20.510  0.00  0.00    +0.000 C 
ATOM     14  F   UNL     1       0.733   2.775  21.643  0.00  0.00    +0.000 F 
ATOM     15  F   UNL     1       0.513   4.715  20.714  0.00  0.00    +0.000 F 
ATOM     16  F   UNL     1       0.228   2.905  19.541  0.00  0.00    +0.000 F 
ENDBRANCH   9  13
BRANCH   1  17
ATOM     17  N   UNL     1       2.055   7.798  17.690  0.00  0.00    +0.000 N 
ATOM     18  H   UNL     1       1.076   7.530  17.612  0.00  0.00    +0.000 HD
BRANCH  17  19
ATOM     19  C   UNL     1       2.325   9.206  17.914  0.00  0.00    +0.000 C 
BRANCH  19  21
ATOM     20  C   UNL     1      -0.169   9.684  17.888  0.00  0.00    +0.000 C 
ATOM     21  C   UNL     1       1.151   9.896  18.653  0.00  0.00    +0.000 C 
ATOM     22  C   UNL     1       1.420  11.403  18.814  0.00  0.00    +0.000 C 
ATOM     23  C   UNL     1       1.004   9.265  20.050  0.00  0.00    +0.000 C 
ENDBRANCH  19  21
ENDBRANCH  17  19
ENDBRANCH   1  17
TORSDOF 4
ENDMDL
MODEL 8
REMARK VINA RESULT:      -7.5      3.806      6.681
REMARK  Name = 
REMARK  7 active torsions:
REMARK  status: ('A' for Active; 'I' for Inactive)
REMARK    1  A    between atoms: C_1  and  C_2
REMARK    2  A    between atoms: C_2  and  C_3
REMARK    3  A    between atoms: C_2  and  C_4
REMARK    4  A    between atoms: C_2  and  C_5
REMARK    5  A    between atoms: C_5  and  N_6
REMARK    6  A    between atoms: N_6  and  C_7
REMARK    7  A    between atoms: C_15  and  C_16
REMARK                            x       y       z     vdW  Elec       q    Type
REMARK                         _______ _______ _______ _____ _____    ______ ____
ROOT
ATOM      1  C   UNL     1       3.503   6.937  18.015  0.00  0.00    +0.000 A 
ATOM      2  C   UNL     1       4.797   6.610  17.618  0.00  0.00    +0.000 A 
ATOM      3  C   UNL     1       5.392   5.420  18.040  0.00  0.00    +0.000 A 
ATOM      4  C   UNL     1       4.676   4.529  18.840  0.00  0.00    +0.000 A 
ATOM      5  N   UNL     1       5.298   3.346  19.243  0.00  0.00    +0.000 N 
ATOM      6  C   UNL     1       4.691   2.402  20.022  0.00  0.00    +0.000 A 
ATOM      7  O   UNL     1       5.254   1.372  20.378  0.00  0.00    +0.000 OA
ATOM      8  C   UNL     1       3.292   2.677  20.412  0.00  0.00    +0.000 A 
ATOM      9  C   UNL     1       2.632   3.796  20.049  0.00  0.00    +0.000 A 
ATOM     10  C   UNL     1       3.356   4.800  19.235  0.00  0.00    +0.000 A 
ATOM     11  C   UNL     1       2.805   6.013  18.812  0.00  0.00    +0.000 A 
ATOM     12  H   UNL     1       6.251   3.142  18.968  0.00  0.00    +0.000 HD
ENDROOT
BRANCH   9  13
ATOM     13  C   UNL     1       1.197   3.949  20.474  0.00  0.00    +0.000 C 
ATOM     14  F   UNL     1       0.807   5.193  20.838  0.00  0.00    +0.000 F 
ATOM     15  F   UNL     1       0.351   3.574  19.479  0.00  0.00    +0.000 F 
ATOM     16  F   UNL     1       0.913   3.146  21.537  0.00  0.00    +0.000 F 
ENDBRANCH   9  13
BRANCH   1  17
ATOM     17  N   UNL     1       2.809   8.046  17.567  0.00  0.00    +0.000 N 
ATOM     18  H   UNL     1       3.219   8.498  16.753  0.00  0.00    +0.000 HD
BRANCH  17  19
ATOM     19  C   UNL     1       1.381   8.229  17.758  0.00  0.00    +0.000 C 
BRANCH  19  21
ATOM     20  C   UNL     1       2.115  10.624  18.176  0.00  0.00    +0.000 C 
ATOM     21  C   UNL     1       1.077   9.541  18.524  0.00  0.00    +0.000 C 
ATOM     22  C   UNL     1       1.074   9.294  20.044  0.00  0.00    +0.000 C 
ATOM     23  C   UNL     1      -0.313  10.052  18.101  0.00  0.00    +0.000 C 
ENDBRANCH  19  21
ENDBRANCH  17  19
ENDBRANCH   1  17
TORSDOF 4
ENDMDL
MODEL 9
REMARK VINA RESULT:      -7.4      0.860      1.343
REMARK  Name = 
REMARK  7 active torsions:
REMARK  status: ('A' for Active; 'I' for Inactive)
REMARK    1  A    between atoms: C_1  and  C_2
REMARK    2  A    between atoms: C_2  and  C_3
REMARK    3  A    between atoms: C_2  and  C_4
REMARK    4  A    between atoms: C_2  and  C_5
REMARK    5  A    between atoms: C_5  and  N_6
REMARK    6  A    between atoms: N_6  and  C_7
REMARK    7  A    between atoms: C_15  and  C_16
REMARK                            x       y       z     vdW  Elec       q    Type
REMARK                         _______ _______ _______ _____ _____    ______ ____
ROOT
ATOM      1  C   UNL     1       2.363   7.270  19.557  0.00  0.00    +0.000 A 
ATOM      2  C   UNL     1       2.534   7.760  18.266  0.00  0.00    +0.000 A 
ATOM      3  C   UNL     1       1.879   8.922  17.853  0.00  0.00    +0.000 A 
ATOM      4  C   UNL     1       1.070   9.621  18.749  0.00  0.00    +0.000 A 
ATOM      5  N   UNL     1       0.431  10.781  18.306  0.00  0.00    +0.000 N 
ATOM      6  C   UNL     1      -0.379  11.545  19.097  0.00  0.00    +0.000 A 
ATOM      7  O   UNL     1      -0.944  12.555  18.692  0.00  0.00    +0.000 OA
ATOM      8  C   UNL     1      -0.536  11.097  20.498  0.00  0.00    +0.000 A 
ATOM      9  C   UNL     1       0.060   9.991  20.989  0.00  0.00    +0.000 A 
ATOM     10  C   UNL     1       0.896   9.184  20.071  0.00  0.00    +0.000 A 
ATOM     11  C   UNL     1       1.550   8.003  20.439  0.00  0.00    +0.000 A 
ATOM     12  H   UNL     1       0.544  11.104  17.353  0.00  0.00    +0.000 HD
ENDROOT
BRANCH   9  13
ATOM     13  C   UNL     1      -0.143   9.655  22.442  0.00  0.00    +0.000 C 
ATOM     14  F   UNL     1       0.976   9.423  23.167  0.00  0.00    +0.000 F 
ATOM     15  F   UNL     1      -0.799  10.657  23.087  0.00  0.00    +0.000 F 
ATOM     16  F   UNL     1      -0.914   8.543  22.583  0.00  0.00    +0.000 F 
ENDBRANCH   9  13
BRANCH   1  17
ATOM     17  N   UNL     1       3.046   6.183  20.073  0.00  0.00    +0.000 N 
ATOM     18  H   UNL     1       3.388   6.315  21.022  0.00  0.00    +0.000 HD
BRANCH  17  19
ATOM     19  C   UNL     1       2.804   4.813  19.657  0.00  0.00    +0.000 C 
BRANCH  19  21
ATOM     20  C   UNL     1       3.823   4.113  17.438  0.00  0.00    +0.000 C 
ATOM     21  C   UNL     1       4.048   4.207  18.958  0.00  0.00    +0.000 C 
ATOM     22  C   UNL     1       4.362   2.810  19.524  0.00  0.00    +0.000 C 
ATOM     23  C   UNL     1       5.256   5.129  19.210  0.00  0.00    +0.000 C 
ENDBRANCH  19  21
ENDBRANCH  17  19
ENDBRANCH   1  17
TORSDOF 4
ENDMDL
