MODEL 1
REMARK VINA RESULT:      -8.5      0.000      0.000
REMARK  Name = 
REMARK  4 active torsions:
REMARK  status: ('A' for Active; 'I' for Inactive)
REMARK    1  A    between atoms: C_3  and  O_4
REMARK    2  A    between atoms: C_5  and  C_6
REMARK    3  A    between atoms: N_23  and  C_24
REMARK    4  A    between atoms: C_24  and  C_25
REMARK                            x       y       z     vdW  Elec       q    Type
REMARK                         _______ _______ _______ _____ _____    ______ ____
ROOT
ATOM      1  O   UNL     1       2.472   3.223  19.723  0.00  0.00    +0.000 OA
ATOM      2  C   UNL     1       2.854   4.235  19.134  0.00  0.00    +0.000 A 
ATOM      3  C   UNL     1       3.903   4.140  18.130  0.00  0.00    +0.000 A 
ATOM      4  C   UNL     1       4.133   5.227  17.364  0.00  0.00    +0.000 A 
ATOM      5  O   UNL     1       3.413   6.469  17.458  0.00  0.00    +0.000 OA
ATOM      6  C   UNL     1       2.604   6.698  18.591  0.00  0.00    +0.000 A 
ATOM      7  C   UNL     1       2.039   7.961  19.000  0.00  0.00    +0.000 A 
ATOM      8  C   UNL     1       1.622   8.020  20.353  0.00  0.00    +0.000 A 
ATOM      9  C   UNL     1       1.498   6.931  21.196  0.00  0.00    +0.000 A 
ATOM     10  C   UNL     1       1.784   5.692  20.706  0.00  0.00    +0.000 A 
ATOM     11  C   UNL     1       2.379   5.585  19.449  0.00  0.00    +0.000 A 
ATOM     12  O   UNL     1       1.155   9.186  20.901  0.00  0.00    +0.000 OA
ATOM     13  C   UNL     1       0.066   9.560  20.081  0.00  0.00    +0.000 C 
ATOM     14  N   UNL     1       0.548  10.069  18.819  0.00  0.00    +0.000 NA
ATOM     15  C   UNL     1       1.724   9.302  18.249  0.00  0.00    +0.000 C 
ENDROOT
BRANCH   4  16
ATOM     16  C   UNL     1       5.193   5.059  16.324  0.00  0.00    +0.000 A 
ATOM     17  C   UNL     1       6.406   5.776  16.405  0.00  0.00    +0.000 A 
ATOM     18  C   UNL     1       7.352   5.754  15.366  0.00  0.00    +0.000 A 
ATOM     19  C   UNL     1       7.101   5.020  14.207  0.00  0.00    +0.000 A 
ATOM     20 CL   UNL     1       8.325   4.990  12.986  0.00  0.00    +0.000 Cl
ATOM     21  C   UNL     1       5.879   4.351  14.078  0.00  0.00    +0.000 A 
ATOM     22 CL   UNL     1       5.464   3.494  12.631  0.00  0.00    +0.000 Cl
ATOM     23  C   UNL     1       4.931   4.378  15.123  0.00  0.00    +0.000 A 
ENDBRANCH   4  16
BRANCH   3  24
ATOM     24  O   UNL     1       4.591   2.939  18.080  0.00  0.00    +0.000 OA
ATOM     25  H   UNL     1       5.384   3.077  18.641  0.00  0.00    +0.000 HD
ENDBRANCH   3  24
BRANCH  14  26
ATOM     26  C   UNL     1       0.369  11.529  18.707  0.00  0.00    +0.000 C 
BRANCH  26  27
ATOM     27  C   UNL     1       1.519  12.485  19.067  0.00  0.00    +0.000 A 
ATOM     28  C   UNL     1       2.327  13.091  18.104  0.00  0.00    +0.000 A 
ATOM     29  C   UNL     1       3.322  13.981  18.507  0.00  0.00    +0.000 A 
ATOM     30  N   UNL     1       3.568  14.333  19.784  0.00  0.00    +0.000 NA
ATOM     31  C   UNL     1       2.781  13.758  20.715  0.00  0.00    +0.000 A 
ATOM     32  C   UNL     1       1.772  12.849  20.410  0.00  0.00    +0.000 A 
ENDBRANCH  26  27
ENDBRANCH  14  26
TORSDOF 4
ENDMDL
MODEL 2
REMARK VINA RESULT:      -8.2      0.741      1.134
REMARK  Name = 
REMARK  4 active torsions:
REMARK  status: ('A' for Active; 'I' for Inactive)
REMARK    1  A    between atoms: C_3  and  O_4
REMARK    2  A    between atoms: C_5  and  C_6
REMARK    3  A    between atoms: N_23  and  C_24
REMARK    4  A    between atoms: C_24  and  C_25
REMARK                            x       y       z     vdW  Elec       q    Type
REMARK                         _______ _______ _______ _____ _____    ______ ____
ROOT
ATOM      1  O   UNL     1       2.451   3.325  19.804  0.00  0.00    +0.000 OA
ATOM      2  C   UNL     1       2.828   4.327  19.196  0.00  0.00    +0.000 A 
ATOM      3  C   UNL     1       3.874   4.218  18.190  0.00  0.00    +0.000 A 
ATOM      4  C   UNL     1       4.098   5.292  17.405  0.00  0.00    +0.000 A 
ATOM      5  O   UNL     1       3.374   6.534  17.480  0.00  0.00    +0.000 OA
ATOM      6  C   UNL     1       2.570   6.780  18.612  0.00  0.00    +0.000 A 
ATOM      7  C   UNL     1       2.002   8.049  19.001  0.00  0.00    +0.000 A 
ATOM      8  C   UNL     1       1.590   8.130  20.355  0.00  0.00    +0.000 A 
ATOM      9  C   UNL     1       1.473   7.055  21.216  0.00  0.00    +0.000 A 
ATOM     10  C   UNL     1       1.760   5.808  20.747  0.00  0.00    +0.000 A 
ATOM     11  C   UNL     1       2.350   5.681  19.490  0.00  0.00    +0.000 A 
ATOM     12  O   UNL     1       1.122   9.304  20.884  0.00  0.00    +0.000 OA
ATOM     13  C   UNL     1       0.029   9.660  20.062  0.00  0.00    +0.000 C 
ATOM     14  N   UNL     1       0.504  10.148  18.789  0.00  0.00    +0.000 NA
ATOM     15  C   UNL     1       1.681   9.375  18.228  0.00  0.00    +0.000 C 
ENDROOT
BRANCH   4  16
ATOM     16  C   UNL     1       5.154   5.109  16.364  0.00  0.00    +0.000 A 
ATOM     17  C   UNL     1       6.370   5.824  16.433  0.00  0.00    +0.000 A 
ATOM     18  C   UNL     1       7.313   5.787  15.391  0.00  0.00    +0.000 A 
ATOM     19  C   UNL     1       7.056   5.041  14.243  0.00  0.00    +0.000 A 
ATOM     20 CL   UNL     1       8.277   4.993  13.018  0.00  0.00    +0.000 Cl
ATOM     21  C   UNL     1       5.832   4.373  14.124  0.00  0.00    +0.000 A 
ATOM     22 CL   UNL     1       5.411   3.501  12.689  0.00  0.00    +0.000 Cl
ATOM     23  C   UNL     1       4.887   4.415  15.171  0.00  0.00    +0.000 A 
ENDBRANCH   4  16
BRANCH   3  24
ATOM     24  O   UNL     1       4.565   3.018  18.158  0.00  0.00    +0.000 OA
ATOM     25  H   UNL     1       4.736   2.849  17.207  0.00  0.00    +0.000 HD
ENDBRANCH   3  24
BRANCH  14  26
ATOM     26  C   UNL     1       0.321  11.606  18.653  0.00  0.00    +0.000 C 
BRANCH  26  27
ATOM     27  C   UNL     1       0.812  12.560  19.756  0.00  0.00    +0.000 A 
ATOM     28  C   UNL     1      -0.036  13.096  20.725  0.00  0.00    +0.000 A 
ATOM     29  C   UNL     1       0.492  13.919  21.718  0.00  0.00    +0.000 A 
ATOM     30  N   UNL     1       1.795  14.239  21.839  0.00  0.00    +0.000 NA
ATOM     31  C   UNL     1       2.619  13.713  20.911  0.00  0.00    +0.000 A 
ATOM     32  C   UNL     1       2.181  12.893  19.875  0.00  0.00    +0.000 A 
ENDBRANCH  26  27
ENDBRANCH  14  26
TORSDOF 4
ENDMDL
MODEL 3
REMARK VINA RESULT:      -8.1      1.626      2.309
REMARK  Name = 
REMARK  4 active torsions:
REMARK  status: ('A' for Active; 'I' for Inactive)
REMARK    1  A    between atoms: C_3  and  O_4
REMARK    2  A    between atoms: C_5  and  C_6
REMARK    3  A    between atoms: N_23  and  C_24
REMARK    4  A    between atoms: C_24  and  C_25
REMARK                            x       y       z     vdW  Elec       q    Type
REMARK                         _______ _______ _______ _____ _____    ______ ____
ROOT
ATOM      1  O   UNL     1       2.397   2.688  19.297  0.00  0.00    +0.000 OA
ATOM      2  C   UNL     1       2.822   3.744  18.826  0.00  0.00    +0.000 A 
ATOM      3  C   UNL     1       3.867   3.719  17.814  0.00  0.00    +0.000 A 
ATOM      4  C   UNL     1       4.144   4.876  17.175  0.00  0.00    +0.000 A 
ATOM      5  O   UNL     1       3.476   6.128  17.413  0.00  0.00    +0.000 OA
ATOM      6  C   UNL     1       2.677   6.261  18.568  0.00  0.00    +0.000 A 
ATOM      7  C   UNL     1       2.165   7.492  19.120  0.00  0.00    +0.000 A 
ATOM      8  C   UNL     1       1.750   7.414  20.473  0.00  0.00    +0.000 A 
ATOM      9  C   UNL     1       1.580   6.242  21.187  0.00  0.00    +0.000 A 
ATOM     10  C   UNL     1       1.814   5.056  20.558  0.00  0.00    +0.000 A 
ATOM     11  C   UNL     1       2.404   5.068  19.295  0.00  0.00    +0.000 A 
ATOM     12  O   UNL     1       1.333   8.528  21.153  0.00  0.00    +0.000 OA
ATOM     13  C   UNL     1       0.261   9.038  20.384  0.00  0.00    +0.000 C 
ATOM     14  N   UNL     1       0.764   9.667  19.187  0.00  0.00    +0.000 NA
ATOM     15  C   UNL     1       1.908   8.921  18.528  0.00  0.00    +0.000 C 
ENDROOT
BRANCH   4  16
ATOM     16  C   UNL     1       5.196   4.783  16.119  0.00  0.00    +0.000 A 
ATOM     17  C   UNL     1       6.398   5.515  16.229  0.00  0.00    +0.000 A 
ATOM     18  C   UNL     1       7.334   5.566  15.182  0.00  0.00    +0.000 A 
ATOM     19  C   UNL     1       7.084   4.893  13.987  0.00  0.00    +0.000 A 
ATOM     20 CL   UNL     1       8.296   4.950  12.755  0.00  0.00    +0.000 Cl
ATOM     21  C   UNL     1       5.872   4.212  13.831  0.00  0.00    +0.000 A 
ATOM     22 CL   UNL     1       5.457   3.429  12.343  0.00  0.00    +0.000 Cl
ATOM     23  C   UNL     1       4.933   4.165  14.884  0.00  0.00    +0.000 A 
ENDBRANCH   4  16
BRANCH   3  24
ATOM     24  O   UNL     1       4.504   2.505  17.624  0.00  0.00    +0.000 OA
ATOM     25  H   UNL     1       3.879   1.833  17.974  0.00  0.00    +0.000 HD
ENDBRANCH   3  24
BRANCH  14  26
ATOM     26  C   UNL     1       0.647  11.136  19.243  0.00  0.00    +0.000 C 
BRANCH  26  27
ATOM     27  C   UNL     1      -0.665  11.798  19.697  0.00  0.00    +0.000 A 
ATOM     28  C   UNL     1      -0.736  12.666  20.787  0.00  0.00    +0.000 A 
ATOM     29  C   UNL     1      -1.955  13.262  21.109  0.00  0.00    +0.000 A 
ATOM     30  N   UNL     1      -3.103  13.080  20.430  0.00  0.00    +0.000 NA
ATOM     31  C   UNL     1      -3.035  12.250  19.370  0.00  0.00    +0.000 A 
ATOM     32  C   UNL     1      -1.868  11.601  18.979  0.00  0.00    +0.000 A 
ENDBRANCH  26  27
ENDBRANCH  14  26
TORSDOF 4
ENDMDL
MODEL 4
REMARK VINA RESULT:      -7.7      2.037      3.148
REMARK  Name = 
REMARK  4 active torsions:
REMARK  status: ('A' for Active; 'I' for Inactive)
REMARK    1  A    between atoms: C_3  and  O_4
REMARK    2  A    between atoms: C_5  and  C_6
REMARK    3  A    between atoms: N_23  and  C_24
REMARK    4  A    between atoms: C_24  and  C_25
REMARK                            x       y       z     vdW  Elec       q    Type
REMARK                         _______ _______ _______ _____ _____    ______ ____
ROOT
ATOM      1  O   UNL     1       3.268   3.633  20.416  0.00  0.00    +0.000 OA
ATOM      2  C   UNL     1       3.392   4.550  19.602  0.00  0.00    +0.000 A 
ATOM      3  C   UNL     1       4.362   4.438  18.523  0.00  0.00    +0.000 A 
ATOM      4  C   UNL     1       4.309   5.361  17.540  0.00  0.00    +0.000 A 
ATOM      5  O   UNL     1       3.361   6.441  17.473  0.00  0.00    +0.000 OA
ATOM      6  C   UNL     1       2.609   6.753  18.625  0.00  0.00    +0.000 A 
ATOM      7  C   UNL     1       1.831   7.949  18.844  0.00  0.00    +0.000 A 
ATOM      8  C   UNL     1       1.512   8.216  20.199  0.00  0.00    +0.000 A 
ATOM      9  C   UNL     1       1.675   7.327  21.245  0.00  0.00    +0.000 A 
ATOM     10  C   UNL     1       2.169   6.086  20.974  0.00  0.00    +0.000 A 
ATOM     11  C   UNL     1       2.678   5.826  19.703  0.00  0.00    +0.000 A 
ATOM     12  O   UNL     1       0.861   9.366  20.561  0.00  0.00    +0.000 OA
ATOM     13  C   UNL     1      -0.339   9.351  19.813  0.00  0.00    +0.000 C 
ATOM     14  N   UNL     1      -0.066   9.660  18.430  0.00  0.00    +0.000 NA
ATOM     15  C   UNL     1       1.196   9.019  17.888  0.00  0.00    +0.000 C 
ENDROOT
BRANCH   4  16
ATOM     16  C   UNL     1       5.301   5.173  16.438  0.00  0.00    +0.000 A 
ATOM     17  C   UNL     1       6.531   5.867  16.446  0.00  0.00    +0.000 A 
ATOM     18  C   UNL     1       7.412   5.828  15.351  0.00  0.00    +0.000 A 
ATOM     19  C   UNL     1       7.077   5.099  14.211  0.00  0.00    +0.000 A 
ATOM     20 CL   UNL     1       8.224   5.047  12.918  0.00  0.00    +0.000 Cl
ATOM     21  C   UNL     1       5.837   4.454  14.155  0.00  0.00    +0.000 A 
ATOM     22 CL   UNL     1       5.319   3.606  12.737  0.00  0.00    +0.000 Cl
ATOM     23  C   UNL     1       4.954   4.499  15.255  0.00  0.00    +0.000 A 
ENDBRANCH   4  16
BRANCH   3  24
ATOM     24  O   UNL     1       5.273   3.401  18.628  0.00  0.00    +0.000 OA
ATOM     25  H   UNL     1       4.887   2.789  19.291  0.00  0.00    +0.000 HD
ENDBRANCH   3  24
BRANCH  14  26
ATOM     26  C   UNL     1      -0.544  11.006  18.059  0.00  0.00    +0.000 C 
BRANCH  26  27
ATOM     27  C   UNL     1      -2.029  11.243  17.734  0.00  0.00    +0.000 A 
ATOM     28  C   UNL     1      -2.934  11.752  18.666  0.00  0.00    +0.000 A 
ATOM     29  C   UNL     1      -4.255  11.982  18.282  0.00  0.00    +0.000 A 
ATOM     30  N   UNL     1      -4.746  11.765  17.047  0.00  0.00    +0.000 NA
ATOM     31  C   UNL     1      -3.871  11.284  16.142  0.00  0.00    +0.000 A 
ATOM     32  C   UNL     1      -2.538  11.012  16.435  0.00  0.00    +0.000 A 
ENDBRANCH  26  27
ENDBRANCH  14  26
TORSDOF 4
ENDMDL
MODEL 5
REMARK VINA RESULT:      -7.5      1.068      1.120
REMARK  Name = 
REMARK  4 active torsions:
REMARK  status: ('A' for Active; 'I' for Inactive)
REMARK    1  A    between atoms: C_3  and  O_4
REMARK    2  A    between atoms: C_5  and  C_6
REMARK    3  A    between atoms: N_23  and  C_24
REMARK    4  A    between atoms: C_24  and  C_25
REMARK                            x       y       z     vdW  Elec       q    Type
REMARK                         _______ _______ _______ _____ _____    ______ ____
ROOT
ATOM      1  O   UNL     1       2.457   4.088  20.599  0.00  0.00    +0.000 OA
ATOM      2  C   UNL     1       2.752   4.995  19.820  0.00  0.00    +0.000 A 
ATOM      3  C   UNL     1       3.787   4.786  18.818  0.00  0.00    +0.000 A 
ATOM      4  C   UNL     1       3.921   5.723  17.856  0.00  0.00    +0.000 A 
ATOM      5  O   UNL     1       3.112   6.907  17.740  0.00  0.00    +0.000 OA
ATOM      6  C   UNL     1       2.310   7.288  18.836  0.00  0.00    +0.000 A 
ATOM      7  C   UNL     1       1.660   8.563  19.020  0.00  0.00    +0.000 A 
ATOM      8  C   UNL     1       1.264   8.847  20.352  0.00  0.00    +0.000 A 
ATOM      9  C   UNL     1       1.238   7.929  21.386  0.00  0.00    +0.000 A 
ATOM     10  C   UNL     1       1.606   6.643  21.126  0.00  0.00    +0.000 A 
ATOM     11  C   UNL     1       2.183   6.344  19.893  0.00  0.00    +0.000 A 
ATOM     12  O   UNL     1       0.722  10.060  20.688  0.00  0.00    +0.000 OA
ATOM     13  C   UNL     1      -0.407  10.195  19.847  0.00  0.00    +0.000 C 
ATOM     14  N   UNL     1       0.013  10.490  18.498  0.00  0.00    +0.000 NA
ATOM     15  C   UNL     1       1.232   9.714  18.043  0.00  0.00    +0.000 C 
ENDROOT
BRANCH   4  16
ATOM     16  C   UNL     1       4.971   5.436  16.833  0.00  0.00    +0.000 A 
ATOM     17  C   UNL     1       6.232   6.069  16.893  0.00  0.00    +0.000 A 
ATOM     18  C   UNL     1       7.179   5.936  15.862  0.00  0.00    +0.000 A 
ATOM     19  C   UNL     1       6.881   5.173  14.734  0.00  0.00    +0.000 A 
ATOM     20 CL   UNL     1       8.106   5.004  13.525  0.00  0.00    +0.000 Cl
ATOM     21  C   UNL     1       5.616   4.587  14.624  0.00  0.00    +0.000 A 
ATOM     22 CL   UNL     1       5.148   3.701  13.211  0.00  0.00    +0.000 Cl
ATOM     23  C   UNL     1       4.667   4.725  15.659  0.00  0.00    +0.000 A 
ENDBRANCH   4  16
BRANCH   3  24
ATOM     24  O   UNL     1       4.561   3.648  18.971  0.00  0.00    +0.000 OA
ATOM     25  H   UNL     1       5.189   3.863  19.694  0.00  0.00    +0.000 HD
ENDBRANCH   3  24
BRANCH  14  26
ATOM     26  C   UNL     1      -0.276  11.887  18.122  0.00  0.00    +0.000 C 
BRANCH  26  27
ATOM     27  C   UNL     1       0.581  13.038  18.678  0.00  0.00    +0.000 A 
ATOM     28  C   UNL     1       1.956  12.926  18.880  0.00  0.00    +0.000 A 
ATOM     29  C   UNL     1       2.672  14.029  19.345  0.00  0.00    +0.000 A 
ATOM     30  N   UNL     1       2.137  15.237  19.609  0.00  0.00    +0.000 NA
ATOM     31  C   UNL     1       0.810  15.351  19.403  0.00  0.00    +0.000 A 
ATOM     32  C   UNL     1       0.012  14.303  18.953  0.00  0.00    +0.000 A 
ENDBRANCH  26  27
ENDBRANCH  14  26
TORSDOF 4
ENDMDL
MODEL 6
REMARK VINA RESULT:      -7.4      1.296      1.628
REMARK  Name = 
REMARK  4 active torsions:
REMARK  status: ('A' for Active; 'I' for Inactive)
REMARK    1  A    between atoms: C_3  and  O_4
REMARK    2  A    between atoms: C_5  and  C_6
REMARK    3  A    between atoms: N_23  and  C_24
REMARK    4  A    between atoms: C_24  and  C_25
REMARK                            x       y       z     vdW  Elec       q    Type
REMARK                         _______ _______ _______ _____ _____    ______ ____
ROOT
ATOM      1  O   UNL     1       2.027   4.596  21.002  0.00  0.00    +0.000 OA
ATOM      2  C   UNL     1       2.394   5.473  20.219  0.00  0.00    +0.000 A 
ATOM      3  C   UNL     1       3.479   5.207  19.286  0.00  0.00    +0.000 A 
ATOM      4  C   UNL     1       3.697   6.114  18.310  0.00  0.00    +0.000 A 
ATOM      5  O   UNL     1       2.932   7.316  18.116  0.00  0.00    +0.000 OA
ATOM      6  C   UNL     1       2.079   7.751  19.153  0.00  0.00    +0.000 A 
ATOM      7  C   UNL     1       1.458   9.048  19.265  0.00  0.00    +0.000 A 
ATOM      8  C   UNL     1       0.993   9.379  20.563  0.00  0.00    +0.000 A 
ATOM      9  C   UNL     1       0.879   8.491  21.617  0.00  0.00    +0.000 A 
ATOM     10  C   UNL     1       1.223   7.188  21.413  0.00  0.00    +0.000 A 
ATOM     11  C   UNL     1       1.863   6.839  20.224  0.00  0.00    +0.000 A 
ATOM     12  O   UNL     1       0.470  10.615  20.835  0.00  0.00    +0.000 OA
ATOM     13  C   UNL     1      -0.604  10.760  19.926  0.00  0.00    +0.000 C 
ATOM     14  N   UNL     1      -0.098  11.006  18.597  0.00  0.00    +0.000 NA
ATOM     15  C   UNL     1       1.123  10.183  18.235  0.00  0.00    +0.000 C 
ENDROOT
BRANCH   4  16
ATOM     16  C   UNL     1       4.796   5.769  17.358  0.00  0.00    +0.000 A 
ATOM     17  C   UNL     1       6.068   6.373  17.473  0.00  0.00    +0.000 A 
ATOM     18  C   UNL     1       7.068   6.184  16.503  0.00  0.00    +0.000 A 
ATOM     19  C   UNL     1       6.816   5.394  15.383  0.00  0.00    +0.000 A 
ATOM     20 CL   UNL     1       8.102   5.158  14.252  0.00  0.00    +0.000 Cl
ATOM     21  C   UNL     1       5.543   4.836  15.217  0.00  0.00    +0.000 A 
ATOM     22 CL   UNL     1       5.134   3.918  13.807  0.00  0.00    +0.000 Cl
ATOM     23  C   UNL     1       4.541   5.030  16.191  0.00  0.00    +0.000 A 
ENDBRANCH   4  16
BRANCH   3  24
ATOM     24  O   UNL     1       4.208   4.053  19.514  0.00  0.00    +0.000 OA
ATOM     25  H   UNL     1       5.146   4.340  19.513  0.00  0.00    +0.000 HD
ENDBRANCH   3  24
BRANCH  14  26
ATOM     26  C   UNL     1      -0.322  12.400  18.169  0.00  0.00    +0.000 C 
BRANCH  26  27
ATOM     27  C   UNL     1       0.667  13.508  18.571  0.00  0.00    +0.000 A 
ATOM     28  C   UNL     1       0.292  14.616  19.331  0.00  0.00    +0.000 A 
ATOM     29  C   UNL     1       1.256  15.556  19.693  0.00  0.00    +0.000 A 
ATOM     30  N   UNL     1       2.563  15.477  19.377  0.00  0.00    +0.000 NA
ATOM     31  C   UNL     1       2.930  14.402  18.652  0.00  0.00    +0.000 A 
ATOM     32  C   UNL     1       2.037  13.419  18.234  0.00  0.00    +0.000 A 
ENDBRANCH  26  27
ENDBRANCH  14  26
TORSDOF 4
ENDMDL
MODEL 7
REMARK VINA RESULT:      -7.2      4.332      8.745
REMARK  Name = 
REMARK  4 active torsions:
REMARK  status: ('A' for Active; 'I' for Inactive)
REMARK    1  A    between atoms: C_3  and  O_4
REMARK    2  A    between atoms: C_5  and  C_6
REMARK    3  A    between atoms: N_23  and  C_24
REMARK    4  A    between atoms: C_24  and  C_25
REMARK                            x       y       z     vdW  Elec       q    Type
REMARK                         _______ _______ _______ _____ _____    ______ ____
ROOT
ATOM      1  O   UNL     1       2.586   5.457  21.289  0.00  0.00    +0.000 OA
ATOM      2  C   UNL     1       2.651   6.018  20.195  0.00  0.00    +0.000 A 
ATOM      3  C   UNL     1       1.909   7.249  19.963  0.00  0.00    +0.000 A 
ATOM      4  C   UNL     1       2.181   7.937  18.834  0.00  0.00    +0.000 A 
ATOM      5  O   UNL     1       3.157   7.552  17.849  0.00  0.00    +0.000 OA
ATOM      6  C   UNL     1       3.677   6.241  17.887  0.00  0.00    +0.000 A 
ATOM      7  C   UNL     1       4.432   5.587  16.846  0.00  0.00    +0.000 A 
ATOM      8  C   UNL     1       4.487   4.174  16.945  0.00  0.00    +0.000 A 
ATOM      9  C   UNL     1       4.095   3.437  18.047  0.00  0.00    +0.000 A 
ATOM     10  C   UNL     1       3.627   4.101  19.142  0.00  0.00    +0.000 A 
ATOM     11  C   UNL     1       3.370   5.467  19.042  0.00  0.00    +0.000 A 
ATOM     12  O   UNL     1       5.089   3.418  15.973  0.00  0.00    +0.000 OA
ATOM     13  C   UNL     1       6.411   3.913  15.899  0.00  0.00    +0.000 C 
ATOM     14  N   UNL     1       6.424   5.197  15.241  0.00  0.00    +0.000 NA
ATOM     15  C   UNL     1       5.274   6.105  15.629  0.00  0.00    +0.000 C 
ENDROOT
BRANCH   4  16
ATOM     16  C   UNL     1       1.420   9.212  18.668  0.00  0.00    +0.000 A 
ATOM     17  C   UNL     1       1.753  10.357  19.425  0.00  0.00    +0.000 A 
ATOM     18  C   UNL     1       0.960  11.517  19.401  0.00  0.00    +0.000 A 
ATOM     19  C   UNL     1      -0.198  11.557  18.626  0.00  0.00    +0.000 A 
ATOM     20 CL   UNL     1      -1.103  13.031  18.598  0.00  0.00    +0.000 Cl
ATOM     21  C   UNL     1      -0.581  10.414  17.916  0.00  0.00    +0.000 A 
ATOM     22 CL   UNL     1      -2.053  10.365  17.005  0.00  0.00    +0.000 Cl
ATOM     23  C   UNL     1       0.216   9.250  17.945  0.00  0.00    +0.000 A 
ENDBRANCH   4  16
BRANCH   3  24
ATOM     24  O   UNL     1       0.964   7.580  20.919  0.00  0.00    +0.000 OA
ATOM     25  H   UNL     1       0.165   7.065  20.675  0.00  0.00    +0.000 HD
ENDBRANCH   3  24
BRANCH  14  26
ATOM     26  C   UNL     1       7.007   5.119  13.888  0.00  0.00    +0.000 C 
BRANCH  26  27
ATOM     27  C   UNL     1       6.487   4.086  12.873  0.00  0.00    +0.000 A 
ATOM     28  C   UNL     1       7.327   3.201  12.197  0.00  0.00    +0.000 A 
ATOM     29  C   UNL     1       6.775   2.263  11.325  0.00  0.00    +0.000 A 
ATOM     30  N   UNL     1       5.458   2.121  11.083  0.00  0.00    +0.000 NA
ATOM     31  C   UNL     1       4.643   2.967  11.743  0.00  0.00    +0.000 A 
ATOM     32  C   UNL     1       5.102   3.943  12.622  0.00  0.00    +0.000 A 
ENDBRANCH  26  27
ENDBRANCH  14  26
TORSDOF 4
ENDMDL
MODEL 8
REMARK VINA RESULT:      -7.2      1.504      2.003
REMARK  Name = 
REMARK  4 active torsions:
REMARK  status: ('A' for Active; 'I' for Inactive)
REMARK    1  A    between atoms: C_3  and  O_4
REMARK    2  A    between atoms: C_5  and  C_6
REMARK    3  A    between atoms: N_23  and  C_24
REMARK    4  A    between atoms: C_24  and  C_25
REMARK                            x       y       z     vdW  Elec       q    Type
REMARK                         _______ _______ _______ _____ _____    ______ ____
ROOT
ATOM      1  O   UNL     1       2.242   1.928  18.530  0.00  0.00    +0.000 OA
ATOM      2  C   UNL     1       2.750   3.034  18.342  0.00  0.00    +0.000 A 
ATOM      3  C   UNL     1       3.838   3.181  17.387  0.00  0.00    +0.000 A 
ATOM      4  C   UNL     1       4.212   4.436  17.057  0.00  0.00    +0.000 A 
ATOM      5  O   UNL     1       3.608   5.637  17.569  0.00  0.00    +0.000 OA
ATOM      6  C   UNL     1       2.764   5.544  18.696  0.00  0.00    +0.000 A 
ATOM      7  C   UNL     1       2.300   6.639  19.513  0.00  0.00    +0.000 A 
ATOM      8  C   UNL     1       1.817   6.268  20.793  0.00  0.00    +0.000 A 
ATOM      9  C   UNL     1       1.545   4.973  21.196  0.00  0.00    +0.000 A 
ATOM     10  C   UNL     1       1.739   3.959  20.306  0.00  0.00    +0.000 A 
ATOM     11  C   UNL     1       2.388   4.233  19.103  0.00  0.00    +0.000 A 
ATOM     12  O   UNL     1       1.434   7.213  21.708  0.00  0.00    +0.000 OA
ATOM     13  C   UNL     1       0.431   7.964  21.051  0.00  0.00    +0.000 C 
ATOM     14  N   UNL     1       1.027   8.825  20.058  0.00  0.00    +0.000 NA
ATOM     15  C   UNL     1       2.155   8.182  19.276  0.00  0.00    +0.000 C 
ENDROOT
BRANCH   4  16
ATOM     16  C   UNL     1       5.306   4.527  16.044  0.00  0.00    +0.000 A 
ATOM     17  C   UNL     1       6.405   5.392  16.241  0.00  0.00    +0.000 A 
ATOM     18  C   UNL     1       7.365   5.611  15.238  0.00  0.00    +0.000 A 
ATOM     19  C   UNL     1       7.244   4.977  14.003  0.00  0.00    +0.000 A 
ATOM     20 CL   UNL     1       8.485   5.246  12.829  0.00  0.00    +0.000 Cl
ATOM     21  C   UNL     1       6.131   4.164  13.763  0.00  0.00    +0.000 A 
ATOM     22 CL   UNL     1       5.871   3.417  12.222  0.00  0.00    +0.000 Cl
ATOM     23  C   UNL     1       5.167   3.948  14.770  0.00  0.00    +0.000 A 
ENDBRANCH   4  16
BRANCH   3  24
ATOM     24  O   UNL     1       4.411   2.007  16.931  0.00  0.00    +0.000 OA
ATOM     25  H   UNL     1       4.042   1.877  16.030  0.00  0.00    +0.000 HD
ENDBRANCH   3  24
BRANCH  14  26
ATOM     26  C   UNL     1       0.993  10.243  20.464  0.00  0.00    +0.000 C 
BRANCH  26  27
ATOM     27  C   UNL     1       0.389  11.307  19.532  0.00  0.00    +0.000 A 
ATOM     28  C   UNL     1      -0.828  11.131  18.873  0.00  0.00    +0.000 A 
ATOM     29  C   UNL     1      -1.332  12.162  18.080  0.00  0.00    +0.000 A 
ATOM     30  N   UNL     1      -0.737  13.356  17.902  0.00  0.00    +0.000 NA
ATOM     31  C   UNL     1       0.434  13.533  18.546  0.00  0.00    +0.000 A 
ATOM     32  C   UNL     1       1.020  12.559  19.349  0.00  0.00    +0.000 A 
ENDBRANCH  26  27
ENDBRANCH  14  26
TORSDOF 4
ENDMDL
MODEL 9
REMARK VINA RESULT:      -7.2      4.120      7.215
REMARK  Name = 
REMARK  4 active torsions:
REMARK  status: ('A' for Active; 'I' for Inactive)
REMARK    1  A    between atoms: C_3  and  O_4
REMARK    2  A    between atoms: C_5  and  C_6
REMARK    3  A    between atoms: N_23  and  C_24
REMARK    4  A    between atoms: C_24  and  C_25
REMARK                            x       y       z     vdW  Elec       q    Type
REMARK                         _______ _______ _______ _____ _____    ______ ____
ROOT
ATOM      1  O   UNL     1      -1.971  12.264  17.859  0.00  0.00    +0.000 OA
ATOM      2  C   UNL     1      -0.814  12.082  18.240  0.00  0.00    +0.000 A 
ATOM      3  C   UNL     1      -0.360  10.740  18.571  0.00  0.00    +0.000 A 
ATOM      4  C   UNL     1       0.963  10.561  18.772  0.00  0.00    +0.000 A 
ATOM      5  O   UNL     1       1.959  11.595  18.672  0.00  0.00    +0.000 OA
ATOM      6  C   UNL     1       1.536  12.941  18.644  0.00  0.00    +0.000 A 
ATOM      7  C   UNL     1       2.369  14.105  18.827  0.00  0.00    +0.000 A 
ATOM      8  C   UNL     1       1.672  15.293  19.159  0.00  0.00    +0.000 A 
ATOM      9  C   UNL     1       0.301  15.460  19.081  0.00  0.00    +0.000 A 
ATOM     10  C   UNL     1      -0.458  14.416  18.642  0.00  0.00    +0.000 A 
ATOM     11  C   UNL     1       0.140  13.168  18.482  0.00  0.00    +0.000 A 
ATOM     12  O   UNL     1       2.343  16.450  19.455  0.00  0.00    +0.000 OA
ATOM     13  C   UNL     1       3.142  16.704  18.316  0.00  0.00    +0.000 C 
ATOM     14  N   UNL     1       4.257  15.788  18.279  0.00  0.00    +0.000 NA
ATOM     15  C   UNL     1       3.909  14.370  18.685  0.00  0.00    +0.000 C 
ENDROOT
BRANCH   4  16
ATOM     16  C   UNL     1       1.376   9.156  19.068  0.00  0.00    +0.000 A 
ATOM     17  C   UNL     1       1.181   8.600  20.352  0.00  0.00    +0.000 A 
ATOM     18  C   UNL     1       1.697   7.341  20.701  0.00  0.00    +0.000 A 
ATOM     19  C   UNL     1       2.436   6.607  19.774  0.00  0.00    +0.000 A 
ATOM     20 CL   UNL     1       3.001   5.041  20.245  0.00  0.00    +0.000 Cl
ATOM     21  C   UNL     1       2.695   7.163  18.517  0.00  0.00    +0.000 A 
ATOM     22 CL   UNL     1       3.680   6.346  17.350  0.00  0.00    +0.000 Cl
ATOM     23  C   UNL     1       2.178   8.430  18.171  0.00  0.00    +0.000 A 
ENDBRANCH   4  16
BRANCH   3  24
ATOM     24  O   UNL     1      -1.345   9.773  18.680  0.00  0.00    +0.000 OA
ATOM     25  H   UNL     1      -0.937   9.052  19.205  0.00  0.00    +0.000 HD
ENDBRANCH   3  24
BRANCH  14  26
ATOM     26  C   UNL     1       5.534  16.457  18.594  0.00  0.00    +0.000 C 
BRANCH  26  27
ATOM     27  C   UNL     1       6.793  15.629  18.904  0.00  0.00    +0.000 A 
ATOM     28  C   UNL     1       7.218  15.360  20.205  0.00  0.00    +0.000 A 
ATOM     29  C   UNL     1       8.346  14.564  20.405  0.00  0.00    +0.000 A 
ATOM     30  N   UNL     1       9.073  14.000  19.422  0.00  0.00    +0.000 NA
ATOM     31  C   UNL     1       8.657  14.249  18.164  0.00  0.00    +0.000 A 
ATOM     32  C   UNL     1       7.553  15.041  17.866  0.00  0.00    +0.000 A 
ENDBRANCH  26  27
ENDBRANCH  14  26
TORSDOF 4
ENDMDL
