MODEL 1
REMARK VINA RESULT:      -9.5      0.000      0.000
REMARK  Name = 
REMARK  7 active torsions:
REMARK  status: ('A' for Active; 'I' for Inactive)
REMARK    1  A    between atoms: C_2  and  C_11
REMARK    2  A    between atoms: N_3  and  C_4
REMARK    3  A    between atoms: C_4  and  C_5
REMARK    4  A    between atoms: C_11  and  C_12
REMARK    5  A    between atoms: C_11  and  N_19
REMARK    6  A    between atoms: N_19  and  C_27
REMARK    7  A    between atoms: C_20  and  C_22
REMARK                            x       y       z     vdW  Elec       q    Type
REMARK                         _______ _______ _______ _____ _____    ______ ____
ROOT
ATOM      1  C   UNL     1       3.380   5.960  18.982  0.00  0.00    +0.000 C 
ENDROOT
BRANCH   1   2
ATOM      2  C   UNL     1       2.428   4.967  19.678  0.00  0.00    +0.000 A 
ATOM      3  C   UNL     1       2.608   4.577  21.015  0.00  0.00    +0.000 A 
ATOM      4  C   UNL     1       1.804   3.574  21.579  0.00  0.00    +0.000 A 
ATOM      5  C   UNL     1       0.811   2.946  20.825  0.00  0.00    +0.000 A 
ATOM      6  C   UNL     1       0.607   3.335  19.506  0.00  0.00    +0.000 A 
ATOM      7  C   UNL     1       1.415   4.331  18.947  0.00  0.00    +0.000 A 
ATOM      8  F   UNL     1       1.198   4.686  17.669  0.00  0.00    +0.000 F 
ENDBRANCH   1   2
BRANCH   1  10
ATOM      9  O   UNL     1       2.238   7.599  17.485  0.00  0.00    +0.000 OA
ATOM     10  C   UNL     1       2.494   7.259  18.641  0.00  0.00    +0.000 C 
ATOM     11  N   UNL     1       2.035   7.979  19.739  0.00  0.00    +0.000 N 
ATOM     12  H   UNL     1       2.085   7.529  20.640  0.00  0.00    +0.000 HD
BRANCH  11  13
ATOM     13  C   UNL     1       1.059   9.058  19.614  0.00  0.00    +0.000 C 
BRANCH  13  14
ATOM     14  C   UNL     1       0.392   9.598  20.868  0.00  0.00    +0.000 A 
ATOM     15  C   UNL     1       0.478   8.997  22.127  0.00  0.00    +0.000 A 
ATOM     16  C   UNL     1      -0.184   9.526  23.242  0.00  0.00    +0.000 A 
ATOM     17  C   UNL     1      -0.925  10.698  23.128  0.00  0.00    +0.000 A 
ATOM     18  C   UNL     1      -0.972  11.354  21.904  0.00  0.00    +0.000 A 
ATOM     19  C   UNL     1      -0.316  10.813  20.789  0.00  0.00    +0.000 A 
ENDBRANCH  13  14
ENDBRANCH  11  13
ENDBRANCH   1  10
BRANCH   1  20
ATOM     20  N   UNL     1       4.223   5.295  17.907  0.00  0.00    +0.000 N 
ATOM     21  C   UNL     1       5.103   6.123  17.166  0.00  0.00    +0.000 C 
ATOM     22  O   UNL     1       5.269   7.301  17.470  0.00  0.00    +0.000 OA
BRANCH  21  23
ATOM     23  C   UNL     1       5.895   5.619  16.037  0.00  0.00    +0.000 A 
ATOM     24  C   UNL     1       5.315   4.823  15.045  0.00  0.00    +0.000 A 
ATOM     25  S   UNL     1       6.554   4.326  13.979  0.00  0.00    +0.000 S 
ATOM     26  N   UNL     1       7.739   5.148  14.824  0.00  0.00    +0.000 NA
ATOM     27  N   UNL     1       7.270   5.776  15.895  0.00  0.00    +0.000 NA
ENDBRANCH  21  23
BRANCH  20  28
ATOM     28  C   UNL     1       4.547   3.847  18.028  0.00  0.00    +0.000 C 
ATOM     29  C   UNL     1       4.745   3.417  19.488  0.00  0.00    +0.000 C 
ATOM     30  C   UNL     1       4.699   1.895  19.453  0.00  0.00    +0.000 C 
ATOM     31  C   UNL     1       3.791   1.530  18.286  0.00  0.00    +0.000 C 
ATOM     32  C   UNL     1       3.525   2.824  17.518  0.00  0.00    +0.000 C 
ENDBRANCH  20  28
ENDBRANCH   1  20
TORSDOF 7
ENDMDL
MODEL 2
REMARK VINA RESULT:      -8.6      3.452      8.430
REMARK  Name = 
REMARK  7 active torsions:
REMARK  status: ('A' for Active; 'I' for Inactive)
REMARK    1  A    between atoms: C_2  and  C_11
REMARK    2  A    between atoms: N_3  and  C_4
REMARK    3  A    between atoms: C_4  and  C_5
REMARK    4  A    between atoms: C_11  and  C_12
REMARK    5  A    between atoms: C_11  and  N_19
REMARK    6  A    between atoms: N_19  and  C_27
REMARK    7  A    between atoms: C_20  and  C_22
REMARK                            x       y       z     vdW  Elec       q    Type
REMARK                         _______ _______ _______ _____ _____    ______ ____
ROOT
ATOM      1  C   UNL     1       5.902   5.216  17.265  0.00  0.00    +0.000 C 
ENDROOT
BRANCH   1   2
ATOM      2  C   UNL     1       6.769   6.385  17.773  0.00  0.00    +0.000 A 
ATOM      3  C   UNL     1       6.779   7.635  17.135  0.00  0.00    +0.000 A 
ATOM      4  C   UNL     1       7.676   8.636  17.541  0.00  0.00    +0.000 A 
ATOM      5  C   UNL     1       8.572   8.410  18.587  0.00  0.00    +0.000 A 
ATOM      6  C   UNL     1       8.560   7.185  19.244  0.00  0.00    +0.000 A 
ATOM      7  C   UNL     1       7.669   6.188  18.830  0.00  0.00    +0.000 A 
ATOM      8  F   UNL     1       7.681   5.012  19.480  0.00  0.00    +0.000 F 
ENDBRANCH   1   2
BRANCH   1  10
ATOM      9  O   UNL     1       5.218   6.128  15.044  0.00  0.00    +0.000 OA
ATOM     10  C   UNL     1       5.914   5.319  15.660  0.00  0.00    +0.000 C 
ATOM     11  N   UNL     1       6.763   4.433  15.006  0.00  0.00    +0.000 N 
ATOM     12  H   UNL     1       7.461   3.965  15.564  0.00  0.00    +0.000 HD
BRANCH  11  13
ATOM     13  C   UNL     1       7.045   4.528  13.576  0.00  0.00    +0.000 C 
BRANCH  13  14
ATOM     14  C   UNL     1       6.300   3.617  12.615  0.00  0.00    +0.000 A 
ATOM     15  C   UNL     1       6.854   2.484  12.014  0.00  0.00    +0.000 A 
ATOM     16  C   UNL     1       6.125   1.698  11.112  0.00  0.00    +0.000 A 
ATOM     17  C   UNL     1       4.804   2.013  10.815  0.00  0.00    +0.000 A 
ATOM     18  C   UNL     1       4.206   3.096  11.449  0.00  0.00    +0.000 A 
ATOM     19  C   UNL     1       4.944   3.884  12.343  0.00  0.00    +0.000 A 
ENDBRANCH  13  14
ENDBRANCH  11  13
ENDBRANCH   1  10
BRANCH   1  20
ATOM     20  N   UNL     1       4.590   5.098  18.023  0.00  0.00    +0.000 N 
ATOM     21  C   UNL     1       4.323   3.867  18.672  0.00  0.00    +0.000 C 
ATOM     22  O   UNL     1       5.174   2.984  18.727  0.00  0.00    +0.000 OA
BRANCH  21  23
ATOM     23  C   UNL     1       3.050   3.595  19.351  0.00  0.00    +0.000 A 
ATOM     24  C   UNL     1       3.014   3.210  20.694  0.00  0.00    +0.000 A 
ATOM     25  S   UNL     1       1.391   2.859  21.098  0.00  0.00    +0.000 S 
ATOM     26  N   UNL     1       0.834   3.222  19.564  0.00  0.00    +0.000 NA
ATOM     27  N   UNL     1       1.804   3.581  18.732  0.00  0.00    +0.000 NA
ENDBRANCH  21  23
BRANCH  20  28
ATOM     28  C   UNL     1       3.939   6.330  18.544  0.00  0.00    +0.000 C 
ATOM     29  C   UNL     1       2.935   6.923  17.546  0.00  0.00    +0.000 C 
ATOM     30  C   UNL     1       2.122   7.921  18.361  0.00  0.00    +0.000 C 
ATOM     31  C   UNL     1       2.108   7.385  19.787  0.00  0.00    +0.000 C 
ATOM     32  C   UNL     1       3.107   6.230  19.829  0.00  0.00    +0.000 C 
ENDBRANCH  20  28
ENDBRANCH   1  20
TORSDOF 7
ENDMDL
MODEL 3
REMARK VINA RESULT:      -8.6      1.223      1.860
REMARK  Name = 
REMARK  7 active torsions:
REMARK  status: ('A' for Active; 'I' for Inactive)
REMARK    1  A    between atoms: C_2  and  C_11
REMARK    2  A    between atoms: N_3  and  C_4
REMARK    3  A    between atoms: C_4  and  C_5
REMARK    4  A    between atoms: C_11  and  C_12
REMARK    5  A    between atoms: C_11  and  N_19
REMARK    6  A    between atoms: N_19  and  C_27
REMARK    7  A    between atoms: C_20  and  C_22
REMARK                            x       y       z     vdW  Elec       q    Type
REMARK                         _______ _______ _______ _____ _____    ______ ____
ROOT
ATOM      1  C   UNL     1       3.309   5.985  18.985  0.00  0.00    +0.000 C 
ENDROOT
BRANCH   1   2
ATOM      2  C   UNL     1       2.400   4.967  19.703  0.00  0.00    +0.000 A 
ATOM      3  C   UNL     1       2.622   4.582  21.034  0.00  0.00    +0.000 A 
ATOM      4  C   UNL     1       1.859   3.557  21.617  0.00  0.00    +0.000 A 
ATOM      5  C   UNL     1       0.865   2.904  20.887  0.00  0.00    +0.000 A 
ATOM      6  C   UNL     1       0.618   3.289  19.574  0.00  0.00    +0.000 A 
ATOM      7  C   UNL     1       1.387   4.306  18.995  0.00  0.00    +0.000 A 
ATOM      8  F   UNL     1       1.129   4.655  17.724  0.00  0.00    +0.000 F 
ENDBRANCH   1   2
BRANCH   1  10
ATOM      9  O   UNL     1       2.071   7.539  17.473  0.00  0.00    +0.000 OA
ATOM     10  C   UNL     1       2.372   7.244  18.631  0.00  0.00    +0.000 C 
ATOM     11  N   UNL     1       1.921   7.983  19.719  0.00  0.00    +0.000 N 
ATOM     12  H   UNL     1       2.011   7.564  20.632  0.00  0.00    +0.000 HD
BRANCH  11  13
ATOM     13  C   UNL     1       0.907   9.027  19.591  0.00  0.00    +0.000 C 
BRANCH  13  14
ATOM     14  C   UNL     1       1.350  10.472  19.439  0.00  0.00    +0.000 A 
ATOM     15  C   UNL     1       1.959  10.992  18.294  0.00  0.00    +0.000 A 
ATOM     16  C   UNL     1       2.374  12.329  18.224  0.00  0.00    +0.000 A 
ATOM     17  C   UNL     1       2.155  13.189  19.294  0.00  0.00    +0.000 A 
ATOM     18  C   UNL     1       1.490  12.716  20.419  0.00  0.00    +0.000 A 
ATOM     19  C   UNL     1       1.088  11.375  20.487  0.00  0.00    +0.000 A 
ENDBRANCH  13  14
ENDBRANCH  11  13
ENDBRANCH   1  10
BRANCH   1  20
ATOM     20  N   UNL     1       4.169   5.336  17.913  0.00  0.00    +0.000 N 
ATOM     21  C   UNL     1       5.046   6.178  17.185  0.00  0.00    +0.000 C 
ATOM     22  O   UNL     1       5.195   7.357  17.498  0.00  0.00    +0.000 OA
BRANCH  21  23
ATOM     23  C   UNL     1       5.854   5.691  16.061  0.00  0.00    +0.000 A 
ATOM     24  C   UNL     1       5.285   4.923  15.041  0.00  0.00    +0.000 A 
ATOM     25  S   UNL     1       6.539   4.435  13.988  0.00  0.00    +0.000 S 
ATOM     26  N   UNL     1       7.716   5.226  14.873  0.00  0.00    +0.000 NA
ATOM     27  N   UNL     1       7.233   5.835  15.948  0.00  0.00    +0.000 NA
ENDBRANCH  21  23
BRANCH  20  28
ATOM     28  C   UNL     1       4.509   3.892  18.030  0.00  0.00    +0.000 C 
ATOM     29  C   UNL     1       4.724   3.461  19.487  0.00  0.00    +0.000 C 
ATOM     30  C   UNL     1       4.693   1.939  19.450  0.00  0.00    +0.000 C 
ATOM     31  C   UNL     1       3.780   1.566  18.290  0.00  0.00    +0.000 C 
ATOM     32  C   UNL     1       3.494   2.859  17.526  0.00  0.00    +0.000 C 
ENDBRANCH  20  28
ENDBRANCH   1  20
TORSDOF 7
ENDMDL
MODEL 4
REMARK VINA RESULT:      -8.5      7.470     10.362
REMARK  Name = 
REMARK  7 active torsions:
REMARK  status: ('A' for Active; 'I' for Inactive)
REMARK    1  A    between atoms: C_2  and  C_11
REMARK    2  A    between atoms: N_3  and  C_4
REMARK    3  A    between atoms: C_4  and  C_5
REMARK    4  A    between atoms: C_11  and  C_12
REMARK    5  A    between atoms: C_11  and  N_19
REMARK    6  A    between atoms: N_19  and  C_27
REMARK    7  A    between atoms: C_20  and  C_22
REMARK                            x       y       z     vdW  Elec       q    Type
REMARK                         _______ _______ _______ _____ _____    ______ ____
ROOT
ATOM      1  C   UNL     1      -1.383  12.191  19.884  0.00  0.00    +0.000 C 
ENDROOT
BRANCH   1   2
ATOM      2  C   UNL     1      -0.887  11.122  20.878  0.00  0.00    +0.000 A 
ATOM      3  C   UNL     1      -1.250  11.143  22.234  0.00  0.00    +0.000 A 
ATOM      4  C   UNL     1      -0.678  10.235  23.138  0.00  0.00    +0.000 A 
ATOM      5  C   UNL     1       0.258   9.293  22.709  0.00  0.00    +0.000 A 
ATOM      6  C   UNL     1       0.612   9.245  21.366  0.00  0.00    +0.000 A 
ATOM      7  C   UNL     1       0.044  10.158  20.469  0.00  0.00    +0.000 A 
ATOM      8  F   UNL     1       0.406  10.091  19.177  0.00  0.00    +0.000 F 
ENDBRANCH   1   2
BRANCH   1  10
ATOM      9  O   UNL     1      -0.309  13.717  21.543  0.00  0.00    +0.000 OA
ATOM     10  C   UNL     1      -0.827  13.598  20.431  0.00  0.00    +0.000 C 
ATOM     11  N   UNL     1      -0.970  14.679  19.567  0.00  0.00    +0.000 N 
ATOM     12  H   UNL     1      -1.187  14.474  18.604  0.00  0.00    +0.000 HD
BRANCH  11  13
ATOM     13  C   UNL     1      -0.342  15.973  19.822  0.00  0.00    +0.000 C 
BRANCH  13  14
ATOM     14  C   UNL     1      -0.046  16.893  18.650  0.00  0.00    +0.000 A 
ATOM     15  C   UNL     1      -0.989  17.733  18.051  0.00  0.00    +0.000 A 
ATOM     16  C   UNL     1      -0.664  18.538  16.951  0.00  0.00    +0.000 A 
ATOM     17  C   UNL     1       0.631  18.546  16.446  0.00  0.00    +0.000 A 
ATOM     18  C   UNL     1       1.606  17.771  17.064  0.00  0.00    +0.000 A 
ATOM     19  C   UNL     1       1.271  16.960  18.157  0.00  0.00    +0.000 A 
ENDBRANCH  13  14
ENDBRANCH  11  13
ENDBRANCH   1  10
BRANCH   1  20
ATOM     20  N   UNL     1      -2.853  12.022  19.539  0.00  0.00    +0.000 N 
ATOM     21  C   UNL     1      -3.785  12.811  20.258  0.00  0.00    +0.000 C 
ATOM     22  O   UNL     1      -3.407  13.686  21.033  0.00  0.00    +0.000 OA
BRANCH  21  23
ATOM     23  C   UNL     1      -5.236  12.668  20.088  0.00  0.00    +0.000 A 
ATOM     24  C   UNL     1      -5.970  13.589  19.335  0.00  0.00    +0.000 A 
ATOM     25  S   UNL     1      -7.623  13.177  19.466  0.00  0.00    +0.000 S 
ATOM     26  N   UNL     1      -7.313  11.863  20.452  0.00  0.00    +0.000 NA
ATOM     27  N   UNL     1      -6.022  11.710  20.720  0.00  0.00    +0.000 NA
ENDBRANCH  21  23
BRANCH  20  28
ATOM     28  C   UNL     1      -3.231  11.542  18.182  0.00  0.00    +0.000 C 
ATOM     29  C   UNL     1      -2.092  11.712  17.167  0.00  0.00    +0.000 C 
ATOM     30  C   UNL     1      -2.504  10.859  15.975  0.00  0.00    +0.000 C 
ATOM     31  C   UNL     1      -3.344   9.723  16.543  0.00  0.00    +0.000 C 
ATOM     32  C   UNL     1      -3.610  10.066  18.008  0.00  0.00    +0.000 C 
ENDBRANCH  20  28
ENDBRANCH   1  20
TORSDOF 7
ENDMDL
MODEL 5
REMARK VINA RESULT:      -8.4      3.120      7.805
REMARK  Name = 
REMARK  7 active torsions:
REMARK  status: ('A' for Active; 'I' for Inactive)
REMARK    1  A    between atoms: C_2  and  C_11
REMARK    2  A    between atoms: N_3  and  C_4
REMARK    3  A    between atoms: C_4  and  C_5
REMARK    4  A    between atoms: C_11  and  C_12
REMARK    5  A    between atoms: C_11  and  N_19
REMARK    6  A    between atoms: N_19  and  C_27
REMARK    7  A    between atoms: C_20  and  C_22
REMARK                            x       y       z     vdW  Elec       q    Type
REMARK                         _______ _______ _______ _____ _____    ______ ____
ROOT
ATOM      1  C   UNL     1       4.486   4.984  18.727  0.00  0.00    +0.000 C 
ENDROOT
BRANCH   1   2
ATOM      2  C   UNL     1       5.711   5.886  18.474  0.00  0.00    +0.000 A 
ATOM      3  C   UNL     1       5.742   6.819  17.425  0.00  0.00    +0.000 A 
ATOM      4  C   UNL     1       6.918   7.530  17.140  0.00  0.00    +0.000 A 
ATOM      5  C   UNL     1       8.077   7.327  17.892  0.00  0.00    +0.000 A 
ATOM      6  C   UNL     1       8.055   6.422  18.947  0.00  0.00    +0.000 A 
ATOM      7  C   UNL     1       6.882   5.710  19.223  0.00  0.00    +0.000 A 
ATOM      8  F   UNL     1       6.890   4.839  20.246  0.00  0.00    +0.000 F 
ENDBRANCH   1   2
BRANCH   1  10
ATOM      9  O   UNL     1       3.041   4.146  16.871  0.00  0.00    +0.000 OA
ATOM     10  C   UNL     1       4.181   4.247  17.330  0.00  0.00    +0.000 C 
ATOM     11  N   UNL     1       5.288   3.726  16.670  0.00  0.00    +0.000 N 
ATOM     12  H   UNL     1       6.197   4.036  16.977  0.00  0.00    +0.000 HD
BRANCH  11  13
ATOM     13  C   UNL     1       5.215   3.209  15.306  0.00  0.00    +0.000 C 
BRANCH  13  14
ATOM     14  C   UNL     1       6.083   3.839  14.230  0.00  0.00    +0.000 A 
ATOM     15  C   UNL     1       6.031   3.498  12.876  0.00  0.00    +0.000 A 
ATOM     16  C   UNL     1       6.880   4.095  11.934  0.00  0.00    +0.000 A 
ATOM     17  C   UNL     1       7.782   5.078  12.325  0.00  0.00    +0.000 A 
ATOM     18  C   UNL     1       7.808   5.485  13.654  0.00  0.00    +0.000 A 
ATOM     19  C   UNL     1       6.964   4.876  14.593  0.00  0.00    +0.000 A 
ENDBRANCH  13  14
ENDBRANCH  11  13
ENDBRANCH   1  10
BRANCH   1  20
ATOM     20  N   UNL     1       3.380   5.708  19.477  0.00  0.00    +0.000 N 
ATOM     21  C   UNL     1       2.908   6.924  18.924  0.00  0.00    +0.000 C 
ATOM     22  O   UNL     1       3.288   7.306  17.820  0.00  0.00    +0.000 OA
BRANCH  21  23
ATOM     23  C   UNL     1       1.916   7.766  19.603  0.00  0.00    +0.000 A 
ATOM     24  C   UNL     1       1.396   8.910  18.990  0.00  0.00    +0.000 A 
ATOM     25  S   UNL     1       0.380   9.695  20.117  0.00  0.00    +0.000 S 
ATOM     26  N   UNL     1       0.649   8.545  21.301  0.00  0.00    +0.000 NA
ATOM     27  N   UNL     1       1.486   7.591  20.915  0.00  0.00    +0.000 NA
ENDBRANCH  21  23
BRANCH  20  28
ATOM     28  C   UNL     1       2.467   4.929  20.357  0.00  0.00    +0.000 C 
ATOM     29  C   UNL     1       1.369   4.209  19.562  0.00  0.00    +0.000 C 
ATOM     30  C   UNL     1       0.780   3.201  20.540  0.00  0.00    +0.000 C 
ATOM     31  C   UNL     1       1.912   2.827  21.488  0.00  0.00    +0.000 C 
ATOM     32  C   UNL     1       3.058   3.796  21.204  0.00  0.00    +0.000 C 
ENDBRANCH  20  28
ENDBRANCH   1  20
TORSDOF 7
ENDMDL
MODEL 6
REMARK VINA RESULT:      -8.3      5.038      7.998
REMARK  Name = 
REMARK  7 active torsions:
REMARK  status: ('A' for Active; 'I' for Inactive)
REMARK    1  A    between atoms: C_2  and  C_11
REMARK    2  A    between atoms: N_3  and  C_4
REMARK    3  A    between atoms: C_4  and  C_5
REMARK    4  A    between atoms: C_11  and  C_12
REMARK    5  A    between atoms: C_11  and  N_19
REMARK    6  A    between atoms: N_19  and  C_27
REMARK    7  A    between atoms: C_20  and  C_22
REMARK                            x       y       z     vdW  Elec       q    Type
REMARK                         _______ _______ _______ _____ _____    ______ ____
ROOT
ATOM      1  C   UNL     1       0.909  10.636  19.831  0.00  0.00    +0.000 C 
ENDROOT
BRANCH   1   2
ATOM      2  C   UNL     1       1.433   9.238  19.445  0.00  0.00    +0.000 A 
ATOM      3  C   UNL     1       1.412   8.162  20.345  0.00  0.00    +0.000 A 
ATOM      4  C   UNL     1       2.015   6.939  20.009  0.00  0.00    +0.000 A 
ATOM      5  C   UNL     1       2.645   6.769  18.775  0.00  0.00    +0.000 A 
ATOM      6  C   UNL     1       2.656   7.819  17.864  0.00  0.00    +0.000 A 
ATOM      7  C   UNL     1       2.059   9.038  18.207  0.00  0.00    +0.000 A 
ATOM      8  F   UNL     1       2.087  10.036  17.308  0.00  0.00    +0.000 F 
ENDBRANCH   1   2
BRANCH   1  10
ATOM      9  O   UNL     1       1.348  10.237  22.256  0.00  0.00    +0.000 OA
ATOM     10  C   UNL     1       0.528  10.551  21.391  0.00  0.00    +0.000 C 
ATOM     11  N   UNL     1      -0.792  10.856  21.706  0.00  0.00    +0.000 N 
ATOM     12  H   UNL     1      -1.341  11.319  20.997  0.00  0.00    +0.000 HD
BRANCH  11  13
ATOM     13  C   UNL     1      -1.250  11.024  23.083  0.00  0.00    +0.000 C 
BRANCH  13  14
ATOM     14  C   UNL     1      -1.994  12.293  23.463  0.00  0.00    +0.000 A 
ATOM     15  C   UNL     1      -1.428  13.570  23.453  0.00  0.00    +0.000 A 
ATOM     16  C   UNL     1      -2.157  14.701  23.843  0.00  0.00    +0.000 A 
ATOM     17  C   UNL     1      -3.490  14.582  24.222  0.00  0.00    +0.000 A 
ATOM     18  C   UNL     1      -4.098  13.332  24.177  0.00  0.00    +0.000 A 
ATOM     19  C   UNL     1      -3.360  12.203  23.795  0.00  0.00    +0.000 A 
ENDBRANCH  13  14
ENDBRANCH  11  13
ENDBRANCH   1  10
BRANCH   1  20
ATOM     20  N   UNL     1      -0.087  11.179  18.819  0.00  0.00    +0.000 N 
ATOM     21  C   UNL     1      -1.292  10.455  18.640  0.00  0.00    +0.000 C 
ATOM     22  O   UNL     1      -1.571   9.503  19.364  0.00  0.00    +0.000 OA
BRANCH  21  23
ATOM     23  C   UNL     1      -2.287  10.820  17.624  0.00  0.00    +0.000 A 
ATOM     24  C   UNL     1      -3.538  11.326  17.987  0.00  0.00    +0.000 A 
ATOM     25  S   UNL     1      -4.463  11.513  16.563  0.00  0.00    +0.000 S 
ATOM     26  N   UNL     1      -3.231  10.956  15.579  0.00  0.00    +0.000 NA
ATOM     27  N   UNL     1      -2.145  10.608  16.256  0.00  0.00    +0.000 NA
ENDBRANCH  21  23
BRANCH  20  28
ATOM     28  C   UNL     1      -0.081  12.633  18.502  0.00  0.00    +0.000 C 
ATOM     29  C   UNL     1      -0.841  13.459  19.549  0.00  0.00    +0.000 C 
ATOM     30  C   UNL     1      -0.429  14.900  19.278  0.00  0.00    +0.000 C 
ATOM     31  C   UNL     1       0.980  14.833  18.705  0.00  0.00    +0.000 C 
ATOM     32  C   UNL     1       1.267  13.359  18.424  0.00  0.00    +0.000 C 
ENDBRANCH  20  28
ENDBRANCH   1  20
TORSDOF 7
ENDMDL
MODEL 7
REMARK VINA RESULT:      -8.3      3.498      8.533
REMARK  Name = 
REMARK  7 active torsions:
REMARK  status: ('A' for Active; 'I' for Inactive)
REMARK    1  A    between atoms: C_2  and  C_11
REMARK    2  A    between atoms: N_3  and  C_4
REMARK    3  A    between atoms: C_4  and  C_5
REMARK    4  A    between atoms: C_11  and  C_12
REMARK    5  A    between atoms: C_11  and  N_19
REMARK    6  A    between atoms: N_19  and  C_27
REMARK    7  A    between atoms: C_20  and  C_22
REMARK                            x       y       z     vdW  Elec       q    Type
REMARK                         _______ _______ _______ _____ _____    ______ ____
ROOT
ATOM      1  C   UNL     1       5.707   4.522  17.244  0.00  0.00    +0.000 C 
ENDROOT
BRANCH   1   2
ATOM      2  C   UNL     1       6.679   5.654  17.632  0.00  0.00    +0.000 A 
ATOM      3  C   UNL     1       7.660   5.486  18.621  0.00  0.00    +0.000 A 
ATOM      4  C   UNL     1       8.440   6.574  19.043  0.00  0.00    +0.000 A 
ATOM      5  C   UNL     1       8.259   7.841  18.488  0.00  0.00    +0.000 A 
ATOM      6  C   UNL     1       7.306   8.020  17.491  0.00  0.00    +0.000 A 
ATOM      7  C   UNL     1       6.526   6.933  17.079  0.00  0.00    +0.000 A 
ATOM      8  F   UNL     1       5.610   7.135  16.117  0.00  0.00    +0.000 F 
ENDBRANCH   1   2
BRANCH   1  10
ATOM      9  O   UNL     1       4.540   4.583  15.037  0.00  0.00    +0.000 OA
ATOM     10  C   UNL     1       5.616   4.546  15.637  0.00  0.00    +0.000 C 
ATOM     11  N   UNL     1       6.833   4.521  14.965  0.00  0.00    +0.000 N 
ATOM     12  H   UNL     1       7.662   4.720  15.504  0.00  0.00    +0.000 HD
BRANCH  11  13
ATOM     13  C   UNL     1       6.936   4.741  13.524  0.00  0.00    +0.000 C 
BRANCH  13  14
ATOM     14  C   UNL     1       6.561   3.613  12.578  0.00  0.00    +0.000 A 
ATOM     15  C   UNL     1       5.249   3.289  12.221  0.00  0.00    +0.000 A 
ATOM     16  C   UNL     1       4.963   2.217  11.365  0.00  0.00    +0.000 A 
ATOM     17  C   UNL     1       5.994   1.463  10.816  0.00  0.00    +0.000 A 
ATOM     18  C   UNL     1       7.311   1.805  11.100  0.00  0.00    +0.000 A 
ATOM     19  C   UNL     1       7.590   2.872  11.966  0.00  0.00    +0.000 A 
ENDBRANCH  13  14
ENDBRANCH  11  13
ENDBRANCH   1  10
BRANCH   1  20
ATOM     20  N   UNL     1       4.445   4.527  18.090  0.00  0.00    +0.000 N 
ATOM     21  C   UNL     1       4.174   3.370  18.861  0.00  0.00    +0.000 C 
ATOM     22  O   UNL     1       4.992   2.457  18.940  0.00  0.00    +0.000 OA
BRANCH  21  23
ATOM     23  C   UNL     1       2.940   3.214  19.641  0.00  0.00    +0.000 A 
ATOM     24  C   UNL     1       2.980   2.953  21.013  0.00  0.00    +0.000 A 
ATOM     25  S   UNL     1       1.376   2.709  21.549  0.00  0.00    +0.000 S 
ATOM     26  N   UNL     1       0.731   2.955  20.026  0.00  0.00    +0.000 NA
ATOM     27  N   UNL     1       1.656   3.196  19.105  0.00  0.00    +0.000 NA
ENDBRANCH  21  23
BRANCH  20  28
ATOM     28  C   UNL     1       3.878   5.827  18.541  0.00  0.00    +0.000 C 
ATOM     29  C   UNL     1       2.743   6.313  17.630  0.00  0.00    +0.000 C 
ATOM     30  C   UNL     1       2.058   7.420  18.421  0.00  0.00    +0.000 C 
ATOM     31  C   UNL     1       2.248   7.065  19.890  0.00  0.00    +0.000 C 
ATOM     32  C   UNL     1       3.240   5.903  19.933  0.00  0.00    +0.000 C 
ENDBRANCH  20  28
ENDBRANCH   1  20
TORSDOF 7
ENDMDL
MODEL 8
REMARK VINA RESULT:      -8.2      5.044      9.634
REMARK  Name = 
REMARK  7 active torsions:
REMARK  status: ('A' for Active; 'I' for Inactive)
REMARK    1  A    between atoms: C_2  and  C_11
REMARK    2  A    between atoms: N_3  and  C_4
REMARK    3  A    between atoms: C_4  and  C_5
REMARK    4  A    between atoms: C_11  and  C_12
REMARK    5  A    between atoms: C_11  and  N_19
REMARK    6  A    between atoms: N_19  and  C_27
REMARK    7  A    between atoms: C_20  and  C_22
REMARK                            x       y       z     vdW  Elec       q    Type
REMARK                         _______ _______ _______ _____ _____    ______ ____
ROOT
ATOM      1  C   UNL     1      -0.365  11.307  19.753  0.00  0.00    +0.000 C 
ENDROOT
BRANCH   1   2
ATOM      2  C   UNL     1      -1.514  11.121  18.743  0.00  0.00    +0.000 A 
ATOM      3  C   UNL     1      -2.763  11.738  18.916  0.00  0.00    +0.000 A 
ATOM      4  C   UNL     1      -3.829  11.445  18.050  0.00  0.00    +0.000 A 
ATOM      5  C   UNL     1      -3.669  10.538  17.001  0.00  0.00    +0.000 A 
ATOM      6  C   UNL     1      -2.432   9.935  16.803  0.00  0.00    +0.000 A 
ATOM      7  C   UNL     1      -1.374  10.226  17.674  0.00  0.00    +0.000 A 
ATOM      8  F   UNL     1      -0.191   9.626  17.461  0.00  0.00    +0.000 F 
ENDBRANCH   1   2
BRANCH   1  10
ATOM      9  O   UNL     1      -1.100   9.089  20.634  0.00  0.00    +0.000 OA
ATOM     10  C   UNL     1      -0.169   9.880  20.469  0.00  0.00    +0.000 C 
ATOM     11  N   UNL     1       1.123   9.593  20.895  0.00  0.00    +0.000 N 
ATOM     12  H   UNL     1       1.868  10.170  20.533  0.00  0.00    +0.000 HD
BRANCH  11  13
ATOM     13  C   UNL     1       1.514   8.270  21.377  0.00  0.00    +0.000 C 
BRANCH  13  14
ATOM     14  C   UNL     1       1.848   7.186  20.367  0.00  0.00    +0.000 A 
ATOM     15  C   UNL     1       1.684   5.818  20.597  0.00  0.00    +0.000 A 
ATOM     16  C   UNL     1       2.039   4.862  19.636  0.00  0.00    +0.000 A 
ATOM     17  C   UNL     1       2.538   5.260  18.400  0.00  0.00    +0.000 A 
ATOM     18  C   UNL     1       2.648   6.617  18.119  0.00  0.00    +0.000 A 
ATOM     19  C   UNL     1       2.302   7.568  19.090  0.00  0.00    +0.000 A 
ENDBRANCH  13  14
ENDBRANCH  11  13
ENDBRANCH   1  10
BRANCH   1  20
ATOM     20  N   UNL     1      -0.522  12.572  20.580  0.00  0.00    +0.000 N 
ATOM     21  C   UNL     1      -1.061  12.435  21.883  0.00  0.00    +0.000 C 
ATOM     22  O   UNL     1      -1.271  11.325  22.367  0.00  0.00    +0.000 OA
BRANCH  21  23
ATOM     23  C   UNL     1      -1.354  13.590  22.741  0.00  0.00    +0.000 A 
ATOM     24  C   UNL     1      -2.478  14.390  22.518  0.00  0.00    +0.000 A 
ATOM     25  S   UNL     1      -2.420  15.697  23.617  0.00  0.00    +0.000 S 
ATOM     26  N   UNL     1      -0.993  15.171  24.311  0.00  0.00    +0.000 NA
ATOM     27  N   UNL     1      -0.524  14.062  23.752  0.00  0.00    +0.000 NA
ENDBRANCH  21  23
BRANCH  20  28
ATOM     28  C   UNL     1       0.358  13.739  20.298  0.00  0.00    +0.000 C 
ATOM     29  C   UNL     1       1.840  13.423  20.547  0.00  0.00    +0.000 C 
ATOM     30  C   UNL     1       2.597  14.561  19.876  0.00  0.00    +0.000 C 
ATOM     31  C   UNL     1       1.724  15.018  18.715  0.00  0.00    +0.000 C 
ATOM     32  C   UNL     1       0.378  14.313  18.877  0.00  0.00    +0.000 C 
ENDBRANCH  20  28
ENDBRANCH   1  20
TORSDOF 7
ENDMDL
MODEL 9
REMARK VINA RESULT:      -8.1      4.890      7.932
REMARK  Name = 
REMARK  7 active torsions:
REMARK  status: ('A' for Active; 'I' for Inactive)
REMARK    1  A    between atoms: C_2  and  C_11
REMARK    2  A    between atoms: N_3  and  C_4
REMARK    3  A    between atoms: C_4  and  C_5
REMARK    4  A    between atoms: C_11  and  C_12
REMARK    5  A    between atoms: C_11  and  N_19
REMARK    6  A    between atoms: N_19  and  C_27
REMARK    7  A    between atoms: C_20  and  C_22
REMARK                            x       y       z     vdW  Elec       q    Type
REMARK                         _______ _______ _______ _____ _____    ______ ____
ROOT
ATOM      1  C   UNL     1       0.868  10.557  19.836  0.00  0.00    +0.000 C 
ENDROOT
BRANCH   1   2
ATOM      2  C   UNL     1       1.408   9.157  19.482  0.00  0.00    +0.000 A 
ATOM      3  C   UNL     1       1.402   8.103  20.409  0.00  0.00    +0.000 A 
ATOM      4  C   UNL     1       2.020   6.880  20.101  0.00  0.00    +0.000 A 
ATOM      5  C   UNL     1       2.647   6.687  18.869  0.00  0.00    +0.000 A 
ATOM      6  C   UNL     1       2.643   7.714  17.932  0.00  0.00    +0.000 A 
ATOM      7  C   UNL     1       2.033   8.934  18.248  0.00  0.00    +0.000 A 
ATOM      8  F   UNL     1       2.046   9.911  17.325  0.00  0.00    +0.000 F 
ENDBRANCH   1   2
BRANCH   1  10
ATOM      9  O   UNL     1       1.339  10.257  22.269  0.00  0.00    +0.000 OA
ATOM     10  C   UNL     1       0.501  10.509  21.401  0.00  0.00    +0.000 C 
ATOM     11  N   UNL     1      -0.828  10.770  21.716  0.00  0.00    +0.000 N 
ATOM     12  H   UNL     1      -1.400  11.186  20.997  0.00  0.00    +0.000 HD
BRANCH  11  13
ATOM     13  C   UNL     1      -1.284  10.964  23.090  0.00  0.00    +0.000 C 
BRANCH  13  14
ATOM     14  C   UNL     1      -2.060  12.223  23.438  0.00  0.00    +0.000 A 
ATOM     15  C   UNL     1      -3.384  12.234  23.884  0.00  0.00    +0.000 A 
ATOM     16  C   UNL     1      -4.058  13.431  24.162  0.00  0.00    +0.000 A 
ATOM     17  C   UNL     1      -3.404  14.651  24.032  0.00  0.00    +0.000 A 
ATOM     18  C   UNL     1      -2.066  14.666  23.655  0.00  0.00    +0.000 A 
ATOM     19  C   UNL     1      -1.401  13.466  23.368  0.00  0.00    +0.000 A 
ENDBRANCH  13  14
ENDBRANCH  11  13
ENDBRANCH   1  10
BRANCH   1  20
ATOM     20  N   UNL     1      -0.143  11.060  18.819  0.00  0.00    +0.000 N 
ATOM     21  C   UNL     1      -1.321  10.294  18.640  0.00  0.00    +0.000 C 
ATOM     22  O   UNL     1      -1.570   9.337  19.369  0.00  0.00    +0.000 OA
BRANCH  21  23
ATOM     23  C   UNL     1      -2.326  10.620  17.620  0.00  0.00    +0.000 A 
ATOM     24  C   UNL     1      -2.187  10.177  16.301  0.00  0.00    +0.000 A 
ATOM     25  S   UNL     1      -3.462  10.850  15.384  0.00  0.00    +0.000 S 
ATOM     26  N   UNL     1      -4.114  11.646  16.702  0.00  0.00    +0.000 NA
ATOM     27  N   UNL     1      -3.417  11.460  17.816  0.00  0.00    +0.000 NA
ENDBRANCH  21  23
BRANCH  20  28
ATOM     28  C   UNL     1      -0.187  12.512  18.494  0.00  0.00    +0.000 C 
ATOM     29  C   UNL     1      -0.960  13.320  19.546  0.00  0.00    +0.000 C 
ATOM     30  C   UNL     1      -0.597  14.771  19.263  0.00  0.00    +0.000 C 
ATOM     31  C   UNL     1       0.806  14.746  18.673  0.00  0.00    +0.000 C 
ATOM     32  C   UNL     1       1.137  13.280  18.397  0.00  0.00    +0.000 C 
ENDBRANCH  20  28
ENDBRANCH   1  20
TORSDOF 7
ENDMDL
