MODEL 1
REMARK VINA RESULT:      -7.9      0.000      0.000
REMARK  Name = 
REMARK  8 active torsions:
REMARK  status: ('A' for Active; 'I' for Inactive)
REMARK    1  A    between atoms: C_1  and  O_2
REMARK    2  A    between atoms: O_2  and  C_3
REMARK    3  A    between atoms: C_6  and  C_7
REMARK    4  A    between atoms: N_9  and  N_10
REMARK    5  A    between atoms: C_11  and  S_12
REMARK    6  A    between atoms: S_12  and  C_13
REMARK    7  A    between atoms: C_13  and  C_14
REMARK    8  A    between atoms: C_14  and  C_16
REMARK                            x       y       z     vdW  Elec       q    Type
REMARK                         _______ _______ _______ _____ _____    ______ ____
ROOT
ATOM      1  N   UNL     1       0.557  10.361  19.827  0.00  0.00    +0.000 N 
ATOM      2  C   UNL     1      -0.316  11.104  19.055  0.00  0.00    +0.000 A 
ATOM      3  N   UNL     1      -0.589  12.351  19.298  0.00  0.00    +0.000 NA
ATOM      4  C   UNL     1      -0.591  12.704  20.657  0.00  0.00    +0.000 A 
ATOM      5  C   UNL     1      -1.394  13.792  21.006  0.00  0.00    +0.000 A 
ATOM      6  C   UNL     1      -2.101  13.761  22.206  0.00  0.00    +0.000 A 
ATOM      7  C   UNL     1      -1.956  12.673  23.070  0.00  0.00    +0.000 A 
ATOM      8  C   UNL     1      -0.998  11.689  22.810  0.00  0.00    +0.000 A 
ATOM      9  C   UNL     1      -0.278  11.741  21.619  0.00  0.00    +0.000 A 
ATOM     10  C   UNL     1       0.597  10.625  21.188  0.00  0.00    +0.000 A 
ATOM     11  O   UNL     1       1.189   9.933  22.014  0.00  0.00    +0.000 OA
ENDROOT
BRANCH   1  14
ATOM     12  C   UNL     1       1.960   8.990  18.342  0.00  0.00    +0.000 C 
ATOM     13  O   UNL     1       2.298   9.923  17.633  0.00  0.00    +0.000 OA
ATOM     14  N   UNL     1       1.083   9.100  19.413  0.00  0.00    +0.000 N 
ATOM     15  H   UNL     1       0.909   8.349  20.065  0.00  0.00    +0.000 HD
BRANCH  12  19
ATOM     16  C   UNL     1       3.595   5.059  17.544  0.00  0.00    +0.000 A 
ATOM     17  C   UNL     1       4.337   6.213  17.286  0.00  0.00    +0.000 A 
ATOM     18  C   UNL     1       3.794   7.481  17.537  0.00  0.00    +0.000 A 
ATOM     19  C   UNL     1       2.485   7.614  18.032  0.00  0.00    +0.000 A 
ATOM     20  C   UNL     1       1.736   6.454  18.257  0.00  0.00    +0.000 A 
ATOM     21  C   UNL     1       2.287   5.186  18.009  0.00  0.00    +0.000 A 
BRANCH  16  23
ATOM     22  C   UNL     1       3.989   2.817  18.210  0.00  0.00    +0.000 C 
ATOM     23  O   UNL     1       4.235   3.877  17.289  0.00  0.00    +0.000 OA
ENDBRANCH  16  23
ENDBRANCH  12  19
ENDBRANCH   1  14
BRANCH   2  24
ATOM     24  S   UNL     1      -1.425  10.207  18.020  0.00  0.00    +0.000 S 
BRANCH  24  25
ATOM     25  C   UNL     1      -2.413  11.594  17.407  0.00  0.00    +0.000 C 
BRANCH  25  26
ATOM     26  C   UNL     1      -3.862  11.236  17.146  0.00  0.00    +0.000 C 
ATOM     27  O   UNL     1      -4.286  10.744  16.110  0.00  0.00    +0.000 OA
BRANCH  26  28
ATOM     28  C   UNL     1      -4.794  11.464  18.293  0.00  0.00    +0.000 A 
ATOM     29  C   UNL     1      -4.358  12.269  19.344  0.00  0.00    +0.000 A 
ATOM     30  C   UNL     1      -5.169  12.449  20.469  0.00  0.00    +0.000 A 
ATOM     31  C   UNL     1      -6.422  11.838  20.533  0.00  0.00    +0.000 A 
ATOM     32  C   UNL     1      -6.877  11.057  19.474  0.00  0.00    +0.000 A 
ATOM     33  C   UNL     1      -6.066  10.864  18.352  0.00  0.00    +0.000 A 
ENDBRANCH  26  28
ENDBRANCH  25  26
ENDBRANCH  24  25
ENDBRANCH   2  24
TORSDOF 7
ENDMDL
MODEL 2
REMARK VINA RESULT:      -7.7      1.085      1.368
REMARK  Name = 
REMARK  8 active torsions:
REMARK  status: ('A' for Active; 'I' for Inactive)
REMARK    1  A    between atoms: C_1  and  O_2
REMARK    2  A    between atoms: O_2  and  C_3
REMARK    3  A    between atoms: C_6  and  C_7
REMARK    4  A    between atoms: N_9  and  N_10
REMARK    5  A    between atoms: C_11  and  S_12
REMARK    6  A    between atoms: S_12  and  C_13
REMARK    7  A    between atoms: C_13  and  C_14
REMARK    8  A    between atoms: C_14  and  C_16
REMARK                            x       y       z     vdW  Elec       q    Type
REMARK                         _______ _______ _______ _____ _____    ______ ____
ROOT
ATOM      1  N   UNL     1      -0.174  10.669  20.674  0.00  0.00    +0.000 N 
ATOM      2  C   UNL     1      -0.953  11.369  19.771  0.00  0.00    +0.000 A 
ATOM      3  N   UNL     1      -1.322  12.600  19.961  0.00  0.00    +0.000 NA
ATOM      4  C   UNL     1      -1.552  12.951  21.302  0.00  0.00    +0.000 A 
ATOM      5  C   UNL     1      -2.452  13.996  21.515  0.00  0.00    +0.000 A 
ATOM      6  C   UNL     1      -3.334  13.928  22.592  0.00  0.00    +0.000 A 
ATOM      7  C   UNL     1      -3.270  12.848  23.474  0.00  0.00    +0.000 A 
ATOM      8  C   UNL     1      -2.236  11.913  23.372  0.00  0.00    +0.000 A 
ATOM      9  C   UNL     1      -1.343  12.003  22.306  0.00  0.00    +0.000 A 
ATOM     10  C   UNL     1      -0.358  10.933  22.024  0.00  0.00    +0.000 A 
ATOM     11  O   UNL     1       0.133  10.271  22.936  0.00  0.00    +0.000 OA
ENDROOT
BRANCH   1  14
ATOM     12  C   UNL     1       1.446   9.357  19.368  0.00  0.00    +0.000 C 
ATOM     13  O   UNL     1       1.782  10.289  18.657  0.00  0.00    +0.000 OA
ATOM     14  N   UNL     1       0.473   9.437  20.354  0.00  0.00    +0.000 N 
ATOM     15  H   UNL     1       0.293   8.696  21.017  0.00  0.00    +0.000 HD
BRANCH  12  19
ATOM     16  C   UNL     1       3.162   5.422  18.786  0.00  0.00    +0.000 A 
ATOM     17  C   UNL     1       2.508   5.754  19.975  0.00  0.00    +0.000 A 
ATOM     18  C   UNL     1       1.967   7.034  20.157  0.00  0.00    +0.000 A 
ATOM     19  C   UNL     1       2.091   8.013  19.156  0.00  0.00    +0.000 A 
ATOM     20  C   UNL     1       2.776   7.684  17.982  0.00  0.00    +0.000 A 
ATOM     21  C   UNL     1       3.311   6.397  17.802  0.00  0.00    +0.000 A 
BRANCH  16  23
ATOM     22  C   UNL     1       5.022   3.957  18.924  0.00  0.00    +0.000 C 
ATOM     23  O   UNL     1       3.625   4.137  18.707  0.00  0.00    +0.000 OA
ENDBRANCH  16  23
ENDBRANCH  12  19
ENDBRANCH   1  14
BRANCH   2  24
ATOM     24  S   UNL     1      -1.842  10.418  18.583  0.00  0.00    +0.000 S 
BRANCH  24  25
ATOM     25  C   UNL     1      -2.772  11.759  17.800  0.00  0.00    +0.000 C 
BRANCH  25  26
ATOM     26  C   UNL     1      -4.183  11.367  17.407  0.00  0.00    +0.000 C 
ATOM     27  O   UNL     1      -4.516  10.970  16.300  0.00  0.00    +0.000 OA
BRANCH  26  28
ATOM     28  C   UNL     1      -5.194  11.429  18.507  0.00  0.00    +0.000 A 
ATOM     29  C   UNL     1      -4.991  12.349  19.534  0.00  0.00    +0.000 A 
ATOM     30  C   UNL     1      -5.873  12.390  20.618  0.00  0.00    +0.000 A 
ATOM     31  C   UNL     1      -6.966  11.525  20.664  0.00  0.00    +0.000 A 
ATOM     32  C   UNL     1      -7.193  10.625  19.626  0.00  0.00    +0.000 A 
ATOM     33  C   UNL     1      -6.308  10.571  18.545  0.00  0.00    +0.000 A 
ENDBRANCH  26  28
ENDBRANCH  25  26
ENDBRANCH  24  25
ENDBRANCH   2  24
TORSDOF 7
ENDMDL
MODEL 3
REMARK VINA RESULT:      -7.7      4.151     10.006
REMARK  Name = 
REMARK  8 active torsions:
REMARK  status: ('A' for Active; 'I' for Inactive)
REMARK    1  A    between atoms: C_1  and  O_2
REMARK    2  A    between atoms: O_2  and  C_3
REMARK    3  A    between atoms: C_6  and  C_7
REMARK    4  A    between atoms: N_9  and  N_10
REMARK    5  A    between atoms: C_11  and  S_12
REMARK    6  A    between atoms: S_12  and  C_13
REMARK    7  A    between atoms: C_13  and  C_14
REMARK    8  A    between atoms: C_14  and  C_16
REMARK                            x       y       z     vdW  Elec       q    Type
REMARK                         _______ _______ _______ _____ _____    ______ ____
ROOT
ATOM      1  N   UNL     1       2.160   7.159  18.965  0.00  0.00    +0.000 N 
ATOM      2  C   UNL     1       2.812   6.394  18.015  0.00  0.00    +0.000 A 
ATOM      3  N   UNL     1       2.481   5.167  17.747  0.00  0.00    +0.000 NA
ATOM      4  C   UNL     1       2.004   4.428  18.842  0.00  0.00    +0.000 A 
ATOM      5  C   UNL     1       2.179   3.045  18.770  0.00  0.00    +0.000 A 
ATOM      6  C   UNL     1       2.518   2.338  19.921  0.00  0.00    +0.000 A 
ATOM      7  C   UNL     1       2.624   3.009  21.141  0.00  0.00    +0.000 A 
ATOM      8  C   UNL     1       2.250   4.352  21.243  0.00  0.00    +0.000 A 
ATOM      9  C   UNL     1       1.888   5.045  20.090  0.00  0.00    +0.000 A 
ATOM     10  C   UNL     1       1.683   6.512  20.095  0.00  0.00    +0.000 A 
ATOM     11  O   UNL     1       1.243   7.084  21.091  0.00  0.00    +0.000 OA
ENDROOT
BRANCH   1  14
ATOM     12  C   UNL     1       1.418   9.453  18.475  0.00  0.00    +0.000 C 
ATOM     13  O   UNL     1       0.478   9.109  17.778  0.00  0.00    +0.000 OA
ATOM     14  N   UNL     1       2.316   8.575  19.065  0.00  0.00    +0.000 N 
ATOM     15  H   UNL     1       3.012   8.864  19.739  0.00  0.00    +0.000 HD
BRANCH  12  19
ATOM     16  C   UNL     1       2.167  13.649  19.248  0.00  0.00    +0.000 A 
ATOM     17  C   UNL     1       1.315  12.906  20.069  0.00  0.00    +0.000 A 
ATOM     18  C   UNL     1       1.071  11.552  19.802  0.00  0.00    +0.000 A 
ATOM     19  C   UNL     1       1.661  10.923  18.693  0.00  0.00    +0.000 A 
ATOM     20  C   UNL     1       2.486  11.681  17.856  0.00  0.00    +0.000 A 
ATOM     21  C   UNL     1       2.733  13.036  18.131  0.00  0.00    +0.000 A 
BRANCH  16  23
ATOM     22  C   UNL     1       2.050  15.272  20.974  0.00  0.00    +0.000 C 
ATOM     23  O   UNL     1       2.355  14.952  19.619  0.00  0.00    +0.000 OA
ENDBRANCH  16  23
ENDBRANCH  12  19
ENDBRANCH   1  14
BRANCH   2  24
ATOM     24  S   UNL     1       4.408   6.945  17.509  0.00  0.00    +0.000 S 
BRANCH  24  25
ATOM     25  C   UNL     1       4.910   5.491  16.554  0.00  0.00    +0.000 C 
BRANCH  25  26
ATOM     26  C   UNL     1       6.285   5.623  15.931  0.00  0.00    +0.000 C 
ATOM     27  O   UNL     1       7.243   6.172  16.457  0.00  0.00    +0.000 OA
BRANCH  26  28
ATOM     28  C   UNL     1       6.450   4.963  14.599  0.00  0.00    +0.000 A 
ATOM     29  C   UNL     1       7.538   5.336  13.812  0.00  0.00    +0.000 A 
ATOM     30  C   UNL     1       7.689   4.797  12.530  0.00  0.00    +0.000 A 
ATOM     31  C   UNL     1       6.762   3.873  12.046  0.00  0.00    +0.000 A 
ATOM     32  C   UNL     1       5.690   3.473  12.839  0.00  0.00    +0.000 A 
ATOM     33  C   UNL     1       5.528   4.017  14.116  0.00  0.00    +0.000 A 
ENDBRANCH  26  28
ENDBRANCH  25  26
ENDBRANCH  24  25
ENDBRANCH   2  24
TORSDOF 7
ENDMDL
MODEL 4
REMARK VINA RESULT:      -7.6      4.021      9.669
REMARK  Name = 
REMARK  8 active torsions:
REMARK  status: ('A' for Active; 'I' for Inactive)
REMARK    1  A    between atoms: C_1  and  O_2
REMARK    2  A    between atoms: O_2  and  C_3
REMARK    3  A    between atoms: C_6  and  C_7
REMARK    4  A    between atoms: N_9  and  N_10
REMARK    5  A    between atoms: C_11  and  S_12
REMARK    6  A    between atoms: S_12  and  C_13
REMARK    7  A    between atoms: C_13  and  C_14
REMARK    8  A    between atoms: C_14  and  C_16
REMARK                            x       y       z     vdW  Elec       q    Type
REMARK                         _______ _______ _______ _____ _____    ______ ____
ROOT
ATOM      1  N   UNL     1       1.982   7.200  19.108  0.00  0.00    +0.000 N 
ATOM      2  C   UNL     1       2.580   6.449  18.114  0.00  0.00    +0.000 A 
ATOM      3  N   UNL     1       2.228   5.228  17.841  0.00  0.00    +0.000 NA
ATOM      4  C   UNL     1       1.801   4.473  18.946  0.00  0.00    +0.000 A 
ATOM      5  C   UNL     1       1.962   3.090  18.841  0.00  0.00    +0.000 A 
ATOM      6  C   UNL     1       2.354   2.361  19.962  0.00  0.00    +0.000 A 
ATOM      7  C   UNL     1       2.525   3.010  21.187  0.00  0.00    +0.000 A 
ATOM      8  C   UNL     1       2.166   4.353  21.330  0.00  0.00    +0.000 A 
ATOM      9  C   UNL     1       1.751   5.068  20.209  0.00  0.00    +0.000 A 
ATOM     10  C   UNL     1       1.557   6.536  20.250  0.00  0.00    +0.000 A 
ATOM     11  O   UNL     1       1.171   7.093  21.276  0.00  0.00    +0.000 OA
ENDROOT
BRANCH   1  14
ATOM     12  C   UNL     1       1.299   9.508  18.594  0.00  0.00    +0.000 C 
ATOM     13  O   UNL     1       0.393   9.181  17.846  0.00  0.00    +0.000 OA
ATOM     14  N   UNL     1       2.152   8.613  19.226  0.00  0.00    +0.000 N 
ATOM     15  H   UNL     1       2.815   8.888  19.937  0.00  0.00    +0.000 HD
BRANCH  12  19
ATOM     16  C   UNL     1       1.984  13.750  19.136  0.00  0.00    +0.000 A 
ATOM     17  C   UNL     1       2.656  13.034  18.144  0.00  0.00    +0.000 A 
ATOM     18  C   UNL     1       2.435  11.659  17.985  0.00  0.00    +0.000 A 
ATOM     19  C   UNL     1       1.551  10.972  18.834  0.00  0.00    +0.000 A 
ATOM     20  C   UNL     1       0.906  11.690  19.847  0.00  0.00    +0.000 A 
ATOM     21  C   UNL     1       1.126  13.069  19.998  0.00  0.00    +0.000 A 
BRANCH  16  23
ATOM     22  C   UNL     1       1.134  15.963  19.048  0.00  0.00    +0.000 C 
ATOM     23  O   UNL     1       2.253  15.091  19.181  0.00  0.00    +0.000 OA
ENDBRANCH  16  23
ENDBRANCH  12  19
ENDBRANCH   1  14
BRANCH   2  24
ATOM     24  S   UNL     1       4.153   6.998  17.539  0.00  0.00    +0.000 S 
BRANCH  24  25
ATOM     25  C   UNL     1       5.201   6.125  18.728  0.00  0.00    +0.000 C 
BRANCH  25  26
ATOM     26  C   UNL     1       5.538   4.708  18.310  0.00  0.00    +0.000 C 
ATOM     27  O   UNL     1       5.504   3.733  19.048  0.00  0.00    +0.000 OA
BRANCH  26  28
ATOM     28  C   UNL     1       5.872   4.529  16.864  0.00  0.00    +0.000 A 
ATOM     29  C   UNL     1       7.093   5.019  16.407  0.00  0.00    +0.000 A 
ATOM     30  C   UNL     1       7.414   4.939  15.048  0.00  0.00    +0.000 A 
ATOM     31  C   UNL     1       6.520   4.351  14.152  0.00  0.00    +0.000 A 
ATOM     32  C   UNL     1       5.310   3.831  14.607  0.00  0.00    +0.000 A 
ATOM     33  C   UNL     1       4.980   3.920  15.962  0.00  0.00    +0.000 A 
ENDBRANCH  26  28
ENDBRANCH  25  26
ENDBRANCH  24  25
ENDBRANCH   2  24
TORSDOF 7
ENDMDL
MODEL 5
REMARK VINA RESULT:      -7.6      0.913      1.157
REMARK  Name = 
REMARK  8 active torsions:
REMARK  status: ('A' for Active; 'I' for Inactive)
REMARK    1  A    between atoms: C_1  and  O_2
REMARK    2  A    between atoms: O_2  and  C_3
REMARK    3  A    between atoms: C_6  and  C_7
REMARK    4  A    between atoms: N_9  and  N_10
REMARK    5  A    between atoms: C_11  and  S_12
REMARK    6  A    between atoms: S_12  and  C_13
REMARK    7  A    between atoms: C_13  and  C_14
REMARK    8  A    between atoms: C_14  and  C_16
REMARK                            x       y       z     vdW  Elec       q    Type
REMARK                         _______ _______ _______ _____ _____    ______ ____
ROOT
ATOM      1  N   UNL     1       0.693  10.127  19.870  0.00  0.00    +0.000 N 
ATOM      2  C   UNL     1      -0.168  10.885  19.098  0.00  0.00    +0.000 A 
ATOM      3  N   UNL     1      -0.477  12.115  19.383  0.00  0.00    +0.000 NA
ATOM      4  C   UNL     1      -0.536  12.408  20.756  0.00  0.00    +0.000 A 
ATOM      5  C   UNL     1      -1.375  13.462  21.121  0.00  0.00    +0.000 A 
ATOM      6  C   UNL     1      -2.125  13.364  22.291  0.00  0.00    +0.000 A 
ATOM      7  C   UNL     1      -1.987  12.244  23.112  0.00  0.00    +0.000 A 
ATOM      8  C   UNL     1      -0.999  11.291  22.846  0.00  0.00    +0.000 A 
ATOM      9  C   UNL     1      -0.236  11.410  21.686  0.00  0.00    +0.000 A 
ATOM     10  C   UNL     1       0.678  10.333  21.242  0.00  0.00    +0.000 A 
ATOM     11  O   UNL     1       1.255   9.618  22.059  0.00  0.00    +0.000 OA
ENDROOT
BRANCH   1  14
ATOM     12  C   UNL     1       2.126   8.843  18.335  0.00  0.00    +0.000 C 
ATOM     13  O   UNL     1       2.416   9.803  17.641  0.00  0.00    +0.000 OA
ATOM     14  N   UNL     1       1.263   8.897  19.421  0.00  0.00    +0.000 N 
ATOM     15  H   UNL     1       1.129   8.126  20.061  0.00  0.00    +0.000 HD
BRANCH  12  19
ATOM     16  C   UNL     1       3.912   5.006  17.414  0.00  0.00    +0.000 A 
ATOM     17  C   UNL     1       4.520   6.198  17.014  0.00  0.00    +0.000 A 
ATOM     18  C   UNL     1       3.927   7.434  17.307  0.00  0.00    +0.000 A 
ATOM     19  C   UNL     1       2.700   7.496  17.990  0.00  0.00    +0.000 A 
ATOM     20  C   UNL     1       2.080   6.297  18.358  0.00  0.00    +0.000 A 
ATOM     21  C   UNL     1       2.682   5.061  18.067  0.00  0.00    +0.000 A 
BRANCH  16  23
ATOM     22  C   UNL     1       5.536   3.962  16.036  0.00  0.00    +0.000 C 
ATOM     23  O   UNL     1       4.593   3.862  17.100  0.00  0.00    +0.000 OA
ENDBRANCH  16  23
ENDBRANCH  12  19
ENDBRANCH   1  14
BRANCH   2  24
ATOM     24  S   UNL     1      -1.218  10.011  17.985  0.00  0.00    +0.000 S 
BRANCH  24  25
ATOM     25  C   UNL     1      -2.325  11.368  17.528  0.00  0.00    +0.000 C 
BRANCH  25  26
ATOM     26  C   UNL     1      -3.553  10.915  16.765  0.00  0.00    +0.000 C 
ATOM     27  O   UNL     1      -3.537  10.208  15.768  0.00  0.00    +0.000 OA
BRANCH  26  28
ATOM     28  C   UNL     1      -4.862  11.341  17.348  0.00  0.00    +0.000 A 
ATOM     29  C   UNL     1      -5.405  10.572  18.375  0.00  0.00    +0.000 A 
ATOM     30  C   UNL     1      -6.661  10.893  18.900  0.00  0.00    +0.000 A 
ATOM     31  C   UNL     1      -7.364  11.994  18.408  0.00  0.00    +0.000 A 
ATOM     32  C   UNL     1      -6.814  12.785  17.403  0.00  0.00    +0.000 A 
ATOM     33  C   UNL     1      -5.564  12.462  16.868  0.00  0.00    +0.000 A 
ENDBRANCH  26  28
ENDBRANCH  25  26
ENDBRANCH  24  25
ENDBRANCH   2  24
TORSDOF 7
ENDMDL
MODEL 6
REMARK VINA RESULT:      -7.6      4.091      9.657
REMARK  Name = 
REMARK  8 active torsions:
REMARK  status: ('A' for Active; 'I' for Inactive)
REMARK    1  A    between atoms: C_1  and  O_2
REMARK    2  A    between atoms: O_2  and  C_3
REMARK    3  A    between atoms: C_6  and  C_7
REMARK    4  A    between atoms: N_9  and  N_10
REMARK    5  A    between atoms: C_11  and  S_12
REMARK    6  A    between atoms: S_12  and  C_13
REMARK    7  A    between atoms: C_13  and  C_14
REMARK    8  A    between atoms: C_14  and  C_16
REMARK                            x       y       z     vdW  Elec       q    Type
REMARK                         _______ _______ _______ _____ _____    ______ ____
ROOT
ATOM      1  N   UNL     1       2.000   7.234  19.103  0.00  0.00    +0.000 N 
ATOM      2  C   UNL     1       2.584   6.468  18.111  0.00  0.00    +0.000 A 
ATOM      3  N   UNL     1       2.214   5.251  17.846  0.00  0.00    +0.000 NA
ATOM      4  C   UNL     1       1.780   4.508  18.957  0.00  0.00    +0.000 A 
ATOM      5  C   UNL     1       1.921   3.122  18.859  0.00  0.00    +0.000 A 
ATOM      6  C   UNL     1       2.306   2.395  19.983  0.00  0.00    +0.000 A 
ATOM      7  C   UNL     1       2.490   3.048  21.203  0.00  0.00    +0.000 A 
ATOM      8  C   UNL     1       2.151   4.397  21.340  0.00  0.00    +0.000 A 
ATOM      9  C   UNL     1       1.743   5.111  20.216  0.00  0.00    +0.000 A 
ATOM     10  C   UNL     1       1.569   6.582  20.249  0.00  0.00    +0.000 A 
ATOM     11  O   UNL     1       1.194   7.150  21.273  0.00  0.00    +0.000 OA
ENDROOT
BRANCH   1  14
ATOM     12  C   UNL     1       1.328   9.548  18.604  0.00  0.00    +0.000 C 
ATOM     13  O   UNL     1       0.396   9.230  17.886  0.00  0.00    +0.000 OA
ATOM     14  N   UNL     1       2.190   8.645  19.212  0.00  0.00    +0.000 N 
ATOM     15  H   UNL     1       2.878   8.913  19.902  0.00  0.00    +0.000 HD
BRANCH  12  19
ATOM     16  C   UNL     1       2.178  13.719  19.405  0.00  0.00    +0.000 A 
ATOM     17  C   UNL     1       1.343  12.980  20.245  0.00  0.00    +0.000 A 
ATOM     18  C   UNL     1       1.065  11.634  19.970  0.00  0.00    +0.000 A 
ATOM     19  C   UNL     1       1.605  11.010  18.833  0.00  0.00    +0.000 A 
ATOM     20  C   UNL     1       2.414  11.765  17.977  0.00  0.00    +0.000 A 
ATOM     21  C   UNL     1       2.694  13.112  18.261  0.00  0.00    +0.000 A 
BRANCH  16  23
ATOM     22  C   UNL     1       3.615  15.261  20.492  0.00  0.00    +0.000 C 
ATOM     23  O   UNL     1       2.403  15.014  19.786  0.00  0.00    +0.000 OA
ENDBRANCH  16  23
ENDBRANCH  12  19
ENDBRANCH   1  14
BRANCH   2  24
ATOM     24  S   UNL     1       4.163   6.992  17.528  0.00  0.00    +0.000 S 
BRANCH  24  25
ATOM     25  C   UNL     1       5.202   6.105  18.714  0.00  0.00    +0.000 C 
BRANCH  25  26
ATOM     26  C   UNL     1       5.533   4.689  18.287  0.00  0.00    +0.000 C 
ATOM     27  O   UNL     1       5.491   3.710  19.018  0.00  0.00    +0.000 OA
BRANCH  26  28
ATOM     28  C   UNL     1       5.872   4.520  16.841  0.00  0.00    +0.000 A 
ATOM     29  C   UNL     1       7.102   4.999  16.394  0.00  0.00    +0.000 A 
ATOM     30  C   UNL     1       7.429   4.926  15.036  0.00  0.00    +0.000 A 
ATOM     31  C   UNL     1       6.532   4.358  14.131  0.00  0.00    +0.000 A 
ATOM     32  C   UNL     1       5.314   3.848  14.575  0.00  0.00    +0.000 A 
ATOM     33  C   UNL     1       4.978   3.929  15.929  0.00  0.00    +0.000 A 
ENDBRANCH  26  28
ENDBRANCH  25  26
ENDBRANCH  24  25
ENDBRANCH   2  24
TORSDOF 7
ENDMDL
MODEL 7
REMARK VINA RESULT:      -7.5      4.230     10.272
REMARK  Name = 
REMARK  8 active torsions:
REMARK  status: ('A' for Active; 'I' for Inactive)
REMARK    1  A    between atoms: C_1  and  O_2
REMARK    2  A    between atoms: O_2  and  C_3
REMARK    3  A    between atoms: C_6  and  C_7
REMARK    4  A    between atoms: N_9  and  N_10
REMARK    5  A    between atoms: C_11  and  S_12
REMARK    6  A    between atoms: S_12  and  C_13
REMARK    7  A    between atoms: C_13  and  C_14
REMARK    8  A    between atoms: C_14  and  C_16
REMARK                            x       y       z     vdW  Elec       q    Type
REMARK                         _______ _______ _______ _____ _____    ______ ____
ROOT
ATOM      1  N   UNL     1       2.421   6.417  18.780  0.00  0.00    +0.000 N 
ATOM      2  C   UNL     1       3.171   5.912  17.733  0.00  0.00    +0.000 A 
ATOM      3  N   UNL     1       3.022   4.705  17.275  0.00  0.00    +0.000 NA
ATOM      4  C   UNL     1       2.669   3.744  18.238  0.00  0.00    +0.000 A 
ATOM      5  C   UNL     1       3.046   2.430  17.957  0.00  0.00    +0.000 A 
ATOM      6  C   UNL     1       3.496   1.612  18.991  0.00  0.00    +0.000 A 
ATOM      7  C   UNL     1       3.512   2.096  20.301  0.00  0.00    +0.000 A 
ATOM      8  C   UNL     1       2.944   3.338  20.602  0.00  0.00    +0.000 A 
ATOM      9  C   UNL     1       2.474   4.138  19.563  0.00  0.00    +0.000 A 
ATOM     10  C   UNL     1       2.054   5.541  19.790  0.00  0.00    +0.000 A 
ATOM     11  O   UNL     1       1.543   5.882  20.856  0.00  0.00    +0.000 OA
ENDROOT
BRANCH   1  14
ATOM     12  C   UNL     1       1.626   8.704  18.340  0.00  0.00    +0.000 C 
ATOM     13  O   UNL     1       1.025   8.407  17.321  0.00  0.00    +0.000 OA
ATOM     14  N   UNL     1       2.367   7.808  19.099  0.00  0.00    +0.000 N 
ATOM     15  H   UNL     1       2.754   8.036  20.003  0.00  0.00    +0.000 HD
BRANCH  12  19
ATOM     16  C   UNL     1       1.634  12.777  19.814  0.00  0.00    +0.000 A 
ATOM     17  C   UNL     1       0.985  11.759  20.516  0.00  0.00    +0.000 A 
ATOM     18  C   UNL     1       0.979  10.446  20.023  0.00  0.00    +0.000 A 
ATOM     19  C   UNL     1       1.606  10.135  18.805  0.00  0.00    +0.000 A 
ATOM     20  C   UNL     1       2.226  11.167  18.091  0.00  0.00    +0.000 A 
ATOM     21  C   UNL     1       2.235  12.479  18.593  0.00  0.00    +0.000 A 
BRANCH  16  23
ATOM     22  C   UNL     1       2.864  14.617  20.665  0.00  0.00    +0.000 C 
ATOM     23  O   UNL     1       1.601  14.012  20.402  0.00  0.00    +0.000 OA
ENDBRANCH  16  23
ENDBRANCH  12  19
ENDBRANCH   1  14
BRANCH   2  24
ATOM     24  S   UNL     1       4.664   6.763  17.341  0.00  0.00    +0.000 S 
BRANCH  24  25
ATOM     25  C   UNL     1       5.673   5.339  16.862  0.00  0.00    +0.000 C 
BRANCH  25  26
ATOM     26  C   UNL     1       6.778   5.683  15.883  0.00  0.00    +0.000 C 
ATOM     27  O   UNL     1       7.737   6.399  16.133  0.00  0.00    +0.000 OA
BRANCH  26  28
ATOM     28  C   UNL     1       6.675   5.025  14.544  0.00  0.00    +0.000 A 
ATOM     29  C   UNL     1       5.607   4.159  14.319  0.00  0.00    +0.000 A 
ATOM     30  C   UNL     1       5.512   3.467  13.107  0.00  0.00    +0.000 A 
ATOM     31  C   UNL     1       6.477   3.658  12.116  0.00  0.00    +0.000 A 
ATOM     32  C   UNL     1       7.529   4.545  12.322  0.00  0.00    +0.000 A 
ATOM     33  C   UNL     1       7.634   5.230  13.536  0.00  0.00    +0.000 A 
ENDBRANCH  26  28
ENDBRANCH  25  26
ENDBRANCH  24  25
ENDBRANCH   2  24
TORSDOF 7
ENDMDL
MODEL 8
REMARK VINA RESULT:      -7.4      4.219      9.816
REMARK  Name = 
REMARK  8 active torsions:
REMARK  status: ('A' for Active; 'I' for Inactive)
REMARK    1  A    between atoms: C_1  and  O_2
REMARK    2  A    between atoms: O_2  and  C_3
REMARK    3  A    between atoms: C_6  and  C_7
REMARK    4  A    between atoms: N_9  and  N_10
REMARK    5  A    between atoms: C_11  and  S_12
REMARK    6  A    between atoms: S_12  and  C_13
REMARK    7  A    between atoms: C_13  and  C_14
REMARK    8  A    between atoms: C_14  and  C_16
REMARK                            x       y       z     vdW  Elec       q    Type
REMARK                         _______ _______ _______ _____ _____    ______ ____
ROOT
ATOM      1  N   UNL     1       2.119   6.996  19.054  0.00  0.00    +0.000 N 
ATOM      2  C   UNL     1       2.814   6.251  18.118  0.00  0.00    +0.000 A 
ATOM      3  N   UNL     1       2.491   5.032  17.804  0.00  0.00    +0.000 NA
ATOM      4  C   UNL     1       1.958   4.269  18.856  0.00  0.00    +0.000 A 
ATOM      5  C   UNL     1       2.131   2.887  18.759  0.00  0.00    +0.000 A 
ATOM      6  C   UNL     1       2.411   2.151  19.908  0.00  0.00    +0.000 A 
ATOM      7  C   UNL     1       2.459   2.792  21.148  0.00  0.00    +0.000 A 
ATOM      8  C   UNL     1       2.086   4.134  21.264  0.00  0.00    +0.000 A 
ATOM      9  C   UNL     1       1.784   4.856  20.112  0.00  0.00    +0.000 A 
ATOM     10  C   UNL     1       1.584   6.324  20.143  0.00  0.00    +0.000 A 
ATOM     11  O   UNL     1       1.098   6.873  21.130  0.00  0.00    +0.000 OA
ENDROOT
BRANCH   1  14
ATOM     12  C   UNL     1       1.482   9.306  18.496  0.00  0.00    +0.000 C 
ATOM     13  O   UNL     1       0.648   8.984  17.667  0.00  0.00    +0.000 OA
ATOM     14  N   UNL     1       2.275   8.408  19.197  0.00  0.00    +0.000 N 
ATOM     15  H   UNL     1       2.870   8.678  19.967  0.00  0.00    +0.000 HD
BRANCH  12  19
ATOM     16  C   UNL     1       2.073  13.548  19.141  0.00  0.00    +0.000 A 
ATOM     17  C   UNL     1       2.645  12.900  18.044  0.00  0.00    +0.000 A 
ATOM     18  C   UNL     1       2.456  11.525  17.852  0.00  0.00    +0.000 A 
ATOM     19  C   UNL     1       1.708  10.769  18.769  0.00  0.00    +0.000 A 
ATOM     20  C   UNL     1       1.166  11.419  19.884  0.00  0.00    +0.000 A 
ATOM     21  C   UNL     1       1.352  12.799  20.069  0.00  0.00    +0.000 A 
BRANCH  16  23
ATOM     22  C   UNL     1       3.126  15.451  18.195  0.00  0.00    +0.000 C 
ATOM     23  O   UNL     1       2.298  14.896  19.213  0.00  0.00    +0.000 OA
ENDBRANCH  16  23
ENDBRANCH  12  19
ENDBRANCH   1  14
BRANCH   2  24
ATOM     24  S   UNL     1       4.435   6.806  17.705  0.00  0.00    +0.000 S 
BRANCH  24  25
ATOM     25  C   UNL     1       5.387   5.672  18.746  0.00  0.00    +0.000 C 
BRANCH  25  26
ATOM     26  C   UNL     1       6.593   5.077  18.047  0.00  0.00    +0.000 C 
ATOM     27  O   UNL     1       7.652   4.802  18.592  0.00  0.00    +0.000 OA
BRANCH  26  28
ATOM     28  C   UNL     1       6.403   4.766  16.597  0.00  0.00    +0.000 A 
ATOM     29  C   UNL     1       5.393   3.874  16.243  0.00  0.00    +0.000 A 
ATOM     30  C   UNL     1       5.228   3.500  14.906  0.00  0.00    +0.000 A 
ATOM     31  C   UNL     1       6.063   4.033  13.923  0.00  0.00    +0.000 A 
ATOM     32  C   UNL     1       7.055   4.948  14.265  0.00  0.00    +0.000 A 
ATOM     33  C   UNL     1       7.231   5.317  15.601  0.00  0.00    +0.000 A 
ENDBRANCH  26  28
ENDBRANCH  25  26
ENDBRANCH  24  25
ENDBRANCH   2  24
TORSDOF 7
ENDMDL
MODEL 9
REMARK VINA RESULT:      -7.4      0.912      1.330
REMARK  Name = 
REMARK  8 active torsions:
REMARK  status: ('A' for Active; 'I' for Inactive)
REMARK    1  A    between atoms: C_1  and  O_2
REMARK    2  A    between atoms: O_2  and  C_3
REMARK    3  A    between atoms: C_6  and  C_7
REMARK    4  A    between atoms: N_9  and  N_10
REMARK    5  A    between atoms: C_11  and  S_12
REMARK    6  A    between atoms: S_12  and  C_13
REMARK    7  A    between atoms: C_13  and  C_14
REMARK    8  A    between atoms: C_14  and  C_16
REMARK                            x       y       z     vdW  Elec       q    Type
REMARK                         _______ _______ _______ _____ _____    ______ ____
ROOT
ATOM      1  N   UNL     1       0.239  10.559  20.162  0.00  0.00    +0.000 N 
ATOM      2  C   UNL     1      -0.491  11.226  19.196  0.00  0.00    +0.000 A 
ATOM      3  N   UNL     1      -0.634  12.517  19.184  0.00  0.00    +0.000 NA
ATOM      4  C   UNL     1      -0.685  13.120  20.452  0.00  0.00    +0.000 A 
ATOM      5  C   UNL     1      -1.379  14.329  20.528  0.00  0.00    +0.000 A 
ATOM      6  C   UNL     1      -2.162  14.597  21.648  0.00  0.00    +0.000 A 
ATOM      7  C   UNL     1      -2.199  13.684  22.704  0.00  0.00    +0.000 A 
ATOM      8  C   UNL     1      -1.345  12.577  22.710  0.00  0.00    +0.000 A 
ATOM      9  C   UNL     1      -0.547  12.330  21.595  0.00  0.00    +0.000 A 
ATOM     10  C   UNL     1       0.220  11.071  21.451  0.00  0.00    +0.000 A 
ATOM     11  O   UNL     1       0.674  10.493  22.436  0.00  0.00    +0.000 OA
ENDROOT
BRANCH   1  14
ATOM     12  C   UNL     1       1.666   8.817  19.169  0.00  0.00    +0.000 C 
ATOM     13  O   UNL     1       2.249   9.580  18.418  0.00  0.00    +0.000 OA
ATOM     14  N   UNL     1       0.644   9.196  20.030  0.00  0.00    +0.000 N 
ATOM     15  H   UNL     1       0.256   8.583  20.733  0.00  0.00    +0.000 HD
BRANCH  12  19
ATOM     16  C   UNL     1       2.873   4.658  19.075  0.00  0.00    +0.000 A 
ATOM     17  C   UNL     1       2.944   5.454  17.931  0.00  0.00    +0.000 A 
ATOM     18  C   UNL     1       2.540   6.796  17.970  0.00  0.00    +0.000 A 
ATOM     19  C   UNL     1       2.036   7.358  19.154  0.00  0.00    +0.000 A 
ATOM     20  C   UNL     1       1.936   6.545  20.289  0.00  0.00    +0.000 A 
ATOM     21  C   UNL     1       2.348   5.203  20.246  0.00  0.00    +0.000 A 
BRANCH  16  23
ATOM     22  C   UNL     1       4.589   3.079  19.508  0.00  0.00    +0.000 C 
ATOM     23  O   UNL     1       3.320   3.373  18.930  0.00  0.00    +0.000 OA
ENDBRANCH  16  23
ENDBRANCH  12  19
ENDBRANCH   1  14
BRANCH   2  24
ATOM     24  S   UNL     1      -1.625  10.264  18.250  0.00  0.00    +0.000 S 
BRANCH  24  25
ATOM     25  C   UNL     1      -2.466  11.609  17.378  0.00  0.00    +0.000 C 
BRANCH  25  26
ATOM     26  C   UNL     1      -3.954  11.382  17.209  0.00  0.00    +0.000 C 
ATOM     27  O   UNL     1      -4.496  11.037  16.169  0.00  0.00    +0.000 OA
BRANCH  26  28
ATOM     28  C   UNL     1      -4.772  11.547  18.450  0.00  0.00    +0.000 A 
ATOM     29  C   UNL     1      -5.982  10.862  18.535  0.00  0.00    +0.000 A 
ATOM     30  C   UNL     1      -6.812  11.044  19.646  0.00  0.00    +0.000 A 
ATOM     31  C   UNL     1      -6.421  11.898  20.678  0.00  0.00    +0.000 A 
ATOM     32  C   UNL     1      -5.199  12.563  20.614  0.00  0.00    +0.000 A 
ATOM     33  C   UNL     1      -4.371  12.392  19.501  0.00  0.00    +0.000 A 
ENDBRANCH  26  28
ENDBRANCH  25  26
ENDBRANCH  24  25
ENDBRANCH   2  24
TORSDOF 7
ENDMDL
