MODEL 1
REMARK VINA RESULT:      -7.8      0.000      0.000
REMARK  Name = 
REMARK  5 active torsions:
REMARK  status: ('A' for Active; 'I' for Inactive)
REMARK    1  A    between atoms: C_1  and  O_2
REMARK    2  A    between atoms: O_2  and  C_3
REMARK    3  A    between atoms: C_9  and  C_10
REMARK    4  A    between atoms: C_10  and  C_11
REMARK    5  A    between atoms: C_11  and  C_12
REMARK                            x       y       z     vdW  Elec       q    Type
REMARK                         _______ _______ _______ _____ _____    ______ ____
ROOT
ATOM      1  C   UNL     1       4.936   4.128  17.941  0.00  0.00    +0.000 C 
ENDROOT
BRANCH   1   2
ATOM      2  C   UNL     1       3.904   4.916  18.728  0.00  0.00    +0.000 C 
ATOM      3  O   UNL     1       3.377   4.440  19.729  0.00  0.00    +0.000 OA
ATOM      4  N   UNL     1       3.655   6.158  18.189  0.00  0.00    +0.000 N 
ATOM      5  C   UNL     1       2.821   7.042  18.820  0.00  0.00    +0.000 A 
ATOM      6  N   UNL     1       2.346   6.991  20.047  0.00  0.00    +0.000 NA
ATOM      7  C   UNL     1       1.560   8.083  20.225  0.00  0.00    +0.000 A 
ATOM      8  C   UNL     1       1.434   8.926  19.159  0.00  0.00    +0.000 A 
ATOM      9  S   UNL     1       2.359   8.410  17.862  0.00  0.00    +0.000 S 
ATOM     10  C   UNL     1       0.554  10.081  19.426  0.00  0.00    +0.000 C 
ATOM     11  C   UNL     1       0.466  10.018  20.990  0.00  0.00    +0.000 C 
ATOM     12  C   UNL     1       0.812   8.549  21.408  0.00  0.00    +0.000 C 
ATOM     13  H   UNL     1       3.999   6.414  17.276  0.00  0.00    +0.000 HD
ENDBRANCH   1   2
BRANCH   1  14
ATOM     14  C   UNL     1       4.670   4.288  16.446  0.00  0.00    +0.000 C 
BRANCH  14  21
ATOM     15  C   UNL     1       5.766   3.395  12.439  0.00  0.00    +0.000 A 
ATOM     16  C   UNL     1       7.004   3.977  11.879  0.00  0.00    +0.000 A 
ATOM     17  C   UNL     1       7.706   4.784  12.691  0.00  0.00    +0.000 A 
ATOM     18  C   UNL     1       7.232   5.019  14.001  0.00  0.00    +0.000 A 
ATOM     19  N   UNL     1       7.679   5.749  15.000  0.00  0.00    +0.000 NA
ATOM     20  N   UNL     1       6.802   5.597  16.058  0.00  0.00    +0.000 NA
ATOM     21  C   UNL     1       5.842   4.777  15.676  0.00  0.00    +0.000 A 
ATOM     22  N   UNL     1       6.065   4.388  14.378  0.00  0.00    +0.000 N 
ATOM     23  N   UNL     1       5.286   3.559  13.625  0.00  0.00    +0.000 NA
BRANCH  15  25
ATOM     24  C   UNL     1       3.880   3.083  11.057  0.00  0.00    +0.000 C 
ATOM     25  O   UNL     1       5.166   2.630  11.497  0.00  0.00    +0.000 OA
ENDBRANCH  15  25
ENDBRANCH  14  21
ENDBRANCH   1  14
TORSDOF 4
ENDMDL
MODEL 2
REMARK VINA RESULT:      -7.7      2.413      3.853
REMARK  Name = 
REMARK  5 active torsions:
REMARK  status: ('A' for Active; 'I' for Inactive)
REMARK    1  A    between atoms: C_1  and  O_2
REMARK    2  A    between atoms: O_2  and  C_3
REMARK    3  A    between atoms: C_9  and  C_10
REMARK    4  A    between atoms: C_10  and  C_11
REMARK    5  A    between atoms: C_11  and  C_12
REMARK                            x       y       z     vdW  Elec       q    Type
REMARK                         _______ _______ _______ _____ _____    ______ ____
ROOT
ATOM      1  C   UNL     1       2.877   7.679  18.018  0.00  0.00    +0.000 C 
ENDROOT
BRANCH   1   2
ATOM      2  C   UNL     1       1.971   8.112  19.157  0.00  0.00    +0.000 C 
ATOM      3  O   UNL     1       1.828   7.407  20.152  0.00  0.00    +0.000 OA
ATOM      4  N   UNL     1       1.367   9.327  18.927  0.00  0.00    +0.000 N 
ATOM      5  C   UNL     1       0.589   9.917  19.887  0.00  0.00    +0.000 A 
ATOM      6  N   UNL     1       0.480   9.606  21.162  0.00  0.00    +0.000 NA
ATOM      7  C   UNL     1      -0.411  10.465  21.716  0.00  0.00    +0.000 A 
ATOM      8  C   UNL     1      -0.971  11.389  20.882  0.00  0.00    +0.000 A 
ATOM      9  S   UNL     1      -0.353  11.261  19.331  0.00  0.00    +0.000 S 
ATOM     10  C   UNL     1      -1.938  12.278  21.555  0.00  0.00    +0.000 C 
ATOM     11  C   UNL     1      -1.588  11.997  23.057  0.00  0.00    +0.000 C 
ATOM     12  C   UNL     1      -0.884  10.599  23.108  0.00  0.00    +0.000 C 
ATOM     13  H   UNL     1       1.399   9.768  18.020  0.00  0.00    +0.000 HD
ENDBRANCH   1   2
BRANCH   1  14
ATOM     14  C   UNL     1       3.009   6.157  18.022  0.00  0.00    +0.000 C 
BRANCH  14  21
ATOM     15  C   UNL     1       6.375   5.104  15.651  0.00  0.00    +0.000 A 
ATOM     16  C   UNL     1       7.602   4.612  16.313  0.00  0.00    +0.000 A 
ATOM     17  C   UNL     1       7.574   4.547  17.654  0.00  0.00    +0.000 A 
ATOM     18  C   UNL     1       6.400   4.940  18.334  0.00  0.00    +0.000 A 
ATOM     19  N   UNL     1       6.079   4.999  19.609  0.00  0.00    +0.000 NA
ATOM     20  N   UNL     1       4.778   5.461  19.694  0.00  0.00    +0.000 NA
ATOM     21  C   UNL     1       4.340   5.671  18.468  0.00  0.00    +0.000 A 
ATOM     22  N   UNL     1       5.333   5.363  17.571  0.00  0.00    +0.000 N 
ATOM     23  N   UNL     1       5.271   5.466  16.212  0.00  0.00    +0.000 NA
BRANCH  15  25
ATOM     24  C   UNL     1       6.131   3.970  13.597  0.00  0.00    +0.000 C 
ATOM     25  O   UNL     1       6.570   5.131  14.313  0.00  0.00    +0.000 OA
ENDBRANCH  15  25
ENDBRANCH  14  21
ENDBRANCH   1  14
TORSDOF 4
ENDMDL
MODEL 3
REMARK VINA RESULT:      -7.7      3.936      5.619
REMARK  Name = 
REMARK  5 active torsions:
REMARK  status: ('A' for Active; 'I' for Inactive)
REMARK    1  A    between atoms: C_1  and  O_2
REMARK    2  A    between atoms: O_2  and  C_3
REMARK    3  A    between atoms: C_9  and  C_10
REMARK    4  A    between atoms: C_10  and  C_11
REMARK    5  A    between atoms: C_11  and  C_12
REMARK                            x       y       z     vdW  Elec       q    Type
REMARK                         _______ _______ _______ _____ _____    ______ ____
ROOT
ATOM      1  C   UNL     1       2.807   8.013  17.457  0.00  0.00    +0.000 C 
ENDROOT
BRANCH   1   2
ATOM      2  C   UNL     1       2.056   9.128  18.162  0.00  0.00    +0.000 C 
ATOM      3  O   UNL     1       1.962  10.243  17.657  0.00  0.00    +0.000 OA
ATOM      4  N   UNL     1       1.533   8.737  19.374  0.00  0.00    +0.000 N 
ATOM      5  C   UNL     1       0.745   9.586  20.106  0.00  0.00    +0.000 A 
ATOM      6  N   UNL     1       0.186  10.716  19.729  0.00  0.00    +0.000 NA
ATOM      7  C   UNL     1      -0.498  11.206  20.793  0.00  0.00    +0.000 A 
ATOM      8  C   UNL     1      -0.444  10.475  21.945  0.00  0.00    +0.000 A 
ATOM      9  S   UNL     1       0.444   9.072  21.733  0.00  0.00    +0.000 S 
ATOM     10  C   UNL     1      -1.200  11.079  23.059  0.00  0.00    +0.000 C 
ATOM     11  C   UNL     1      -2.068  12.128  22.281  0.00  0.00    +0.000 C 
ATOM     12  C   UNL     1      -1.334  12.415  20.928  0.00  0.00    +0.000 C 
ATOM     13  H   UNL     1       1.791   7.859  19.800  0.00  0.00    +0.000 HD
ENDBRANCH   1   2
BRANCH   1  14
ATOM     14  C   UNL     1       3.192   6.937  18.470  0.00  0.00    +0.000 C 
BRANCH  14  21
ATOM     15  C   UNL     1       2.026   2.973  19.464  0.00  0.00    +0.000 A 
ATOM     16  C   UNL     1       2.619   1.837  18.726  0.00  0.00    +0.000 A 
ATOM     17  C   UNL     1       3.494   2.145  17.756  0.00  0.00    +0.000 A 
ATOM     18  C   UNL     1       3.791   3.503  17.506  0.00  0.00    +0.000 A 
ATOM     19  N   UNL     1       4.576   4.105  16.640  0.00  0.00    +0.000 NA
ATOM     20  N   UNL     1       4.476   5.468  16.856  0.00  0.00    +0.000 NA
ATOM     21  C   UNL     1       3.632   5.660  17.851  0.00  0.00    +0.000 A 
ATOM     22  N   UNL     1       3.165   4.446  18.293  0.00  0.00    +0.000 N 
ATOM     23  N   UNL     1       2.263   4.230  19.294  0.00  0.00    +0.000 NA
BRANCH  15  25
ATOM     24  C   UNL     1       1.573   2.618  21.751  0.00  0.00    +0.000 C 
ATOM     25  O   UNL     1       1.155   2.502  20.385  0.00  0.00    +0.000 OA
ENDBRANCH  15  25
ENDBRANCH  14  21
ENDBRANCH   1  14
TORSDOF 4
ENDMDL
MODEL 4
REMARK VINA RESULT:      -7.6      2.896      4.288
REMARK  Name = 
REMARK  5 active torsions:
REMARK  status: ('A' for Active; 'I' for Inactive)
REMARK    1  A    between atoms: C_1  and  O_2
REMARK    2  A    between atoms: O_2  and  C_3
REMARK    3  A    between atoms: C_9  and  C_10
REMARK    4  A    between atoms: C_10  and  C_11
REMARK    5  A    between atoms: C_11  and  C_12
REMARK                            x       y       z     vdW  Elec       q    Type
REMARK                         _______ _______ _______ _____ _____    ______ ____
ROOT
ATOM      1  C   UNL     1       2.532   5.432  20.159  0.00  0.00    +0.000 C 
ENDROOT
BRANCH   1   2
ATOM      2  C   UNL     1       2.151   6.879  19.905  0.00  0.00    +0.000 C 
ATOM      3  O   UNL     1       2.429   7.427  18.843  0.00  0.00    +0.000 OA
ATOM      4  N   UNL     1       1.497   7.454  20.971  0.00  0.00    +0.000 N 
ATOM      5  C   UNL     1       0.997   8.726  20.884  0.00  0.00    +0.000 A 
ATOM      6  N   UNL     1       0.834   9.473  19.812  0.00  0.00    +0.000 NA
ATOM      7  C   UNL     1       0.309  10.657  20.217  0.00  0.00    +0.000 A 
ATOM      8  C   UNL     1       0.096  10.806  21.557  0.00  0.00    +0.000 A 
ATOM      9  S   UNL     1       0.502   9.414  22.395  0.00  0.00    +0.000 S 
ATOM     10  C   UNL     1      -0.463  12.123  21.920  0.00  0.00    +0.000 C 
ATOM     11  C   UNL     1      -0.932  12.631  20.514  0.00  0.00    +0.000 C 
ATOM     12  C   UNL     1      -0.106  11.843  19.442  0.00  0.00    +0.000 C 
ATOM     13  H   UNL     1       1.452   6.997  21.870  0.00  0.00    +0.000 HD
ENDBRANCH   1   2
BRANCH   1  14
ATOM     14  C   UNL     1       4.003   5.221  19.805  0.00  0.00    +0.000 C 
BRANCH  14  21
ATOM     15  C   UNL     1       6.822   5.908  16.699  0.00  0.00    +0.000 A 
ATOM     16  C   UNL     1       6.837   5.012  15.524  0.00  0.00    +0.000 A 
ATOM     17  C   UNL     1       5.948   4.005  15.527  0.00  0.00    +0.000 A 
ATOM     18  C   UNL     1       5.071   3.869  16.626  0.00  0.00    +0.000 A 
ATOM     19  N   UNL     1       4.124   3.003  16.916  0.00  0.00    +0.000 NA
ATOM     20  N   UNL     1       3.584   3.364  18.137  0.00  0.00    +0.000 NA
ATOM     21  C   UNL     1       4.216   4.442  18.559  0.00  0.00    +0.000 A 
ATOM     22  N   UNL     1       5.172   4.798  17.640  0.00  0.00    +0.000 N 
ATOM     23  N   UNL     1       6.041   5.845  17.726  0.00  0.00    +0.000 NA
BRANCH  15  25
ATOM     24  C   UNL     1       7.788   7.887  17.545  0.00  0.00    +0.000 C 
ATOM     25  O   UNL     1       7.783   6.849  16.557  0.00  0.00    +0.000 OA
ENDBRANCH  15  25
ENDBRANCH  14  21
ENDBRANCH   1  14
TORSDOF 4
ENDMDL
MODEL 5
REMARK VINA RESULT:      -7.5      3.918      5.446
REMARK  Name = 
REMARK  5 active torsions:
REMARK  status: ('A' for Active; 'I' for Inactive)
REMARK    1  A    between atoms: C_1  and  O_2
REMARK    2  A    between atoms: O_2  and  C_3
REMARK    3  A    between atoms: C_9  and  C_10
REMARK    4  A    between atoms: C_10  and  C_11
REMARK    5  A    between atoms: C_11  and  C_12
REMARK                            x       y       z     vdW  Elec       q    Type
REMARK                         _______ _______ _______ _____ _____    ______ ____
ROOT
ATOM      1  C   UNL     1       2.836   7.793  17.846  0.00  0.00    +0.000 C 
ENDROOT
BRANCH   1   2
ATOM      2  C   UNL     1       1.971   8.245  19.008  0.00  0.00    +0.000 C 
ATOM      3  O   UNL     1       1.924   7.596  20.049  0.00  0.00    +0.000 OA
ATOM      4  N   UNL     1       1.286   9.410  18.743  0.00  0.00    +0.000 N 
ATOM      5  C   UNL     1       0.530  10.015  19.711  0.00  0.00    +0.000 A 
ATOM      6  N   UNL     1       0.509   9.777  21.006  0.00  0.00    +0.000 NA
ATOM      7  C   UNL     1      -0.398  10.619  21.560  0.00  0.00    +0.000 A 
ATOM      8  C   UNL     1      -1.055  11.459  20.707  0.00  0.00    +0.000 A 
ATOM      9  S   UNL     1      -0.517  11.269  19.134  0.00  0.00    +0.000 S 
ATOM     10  C   UNL     1      -2.033  12.334  21.383  0.00  0.00    +0.000 C 
ATOM     11  C   UNL     1      -1.586  12.165  22.876  0.00  0.00    +0.000 C 
ATOM     12  C   UNL     1      -0.800  10.813  22.967  0.00  0.00    +0.000 C 
ATOM     13  H   UNL     1       1.244   9.795  17.811  0.00  0.00    +0.000 HD
ENDBRANCH   1   2
BRANCH   1  14
ATOM     14  C   UNL     1       3.946   6.878  18.360  0.00  0.00    +0.000 C 
BRANCH  14  21
ATOM     15  C   UNL     1       1.823   3.354  19.426  0.00  0.00    +0.000 A 
ATOM     16  C   UNL     1       2.031   2.119  18.643  0.00  0.00    +0.000 A 
ATOM     17  C   UNL     1       2.885   2.201  17.609  0.00  0.00    +0.000 A 
ATOM     18  C   UNL     1       3.520   3.434  17.343  0.00  0.00    +0.000 A 
ATOM     19  N   UNL     1       4.375   3.822  16.422  0.00  0.00    +0.000 NA
ATOM     20  N   UNL     1       4.664   5.156  16.650  0.00  0.00    +0.000 NA
ATOM     21  C   UNL     1       3.977   5.545  17.706  0.00  0.00    +0.000 A 
ATOM     22  N   UNL     1       3.231   4.493  18.178  0.00  0.00    +0.000 N 
ATOM     23  N   UNL     1       2.379   4.504  19.243  0.00  0.00    +0.000 NA
BRANCH  15  25
ATOM     24  C   UNL     1       1.476   2.714  21.670  0.00  0.00    +0.000 C 
ATOM     25  O   UNL     1       0.925   3.115  20.409  0.00  0.00    +0.000 OA
ENDBRANCH  15  25
ENDBRANCH  14  21
ENDBRANCH   1  14
TORSDOF 4
ENDMDL
MODEL 6
REMARK VINA RESULT:      -7.5      2.515      3.918
REMARK  Name = 
REMARK  5 active torsions:
REMARK  status: ('A' for Active; 'I' for Inactive)
REMARK    1  A    between atoms: C_1  and  O_2
REMARK    2  A    between atoms: O_2  and  C_3
REMARK    3  A    between atoms: C_9  and  C_10
REMARK    4  A    between atoms: C_10  and  C_11
REMARK    5  A    between atoms: C_11  and  C_12
REMARK                            x       y       z     vdW  Elec       q    Type
REMARK                         _______ _______ _______ _____ _____    ______ ____
ROOT
ATOM      1  C   UNL     1       2.398   5.967  20.060  0.00  0.00    +0.000 C 
ENDROOT
BRANCH   1   2
ATOM      2  C   UNL     1       1.859   7.386  20.020  0.00  0.00    +0.000 C 
ATOM      3  O   UNL     1       2.011   8.090  19.026  0.00  0.00    +0.000 OA
ATOM      4  N   UNL     1       1.223   7.750  21.185  0.00  0.00    +0.000 N 
ATOM      5  C   UNL     1       0.594   8.962  21.293  0.00  0.00    +0.000 A 
ATOM      6  N   UNL     1       0.287   9.815  20.339  0.00  0.00    +0.000 NA
ATOM      7  C   UNL     1      -0.324  10.876  20.924  0.00  0.00    +0.000 A 
ATOM      8  C   UNL     1      -0.462  10.831  22.281  0.00  0.00    +0.000 A 
ATOM      9  S   UNL     1       0.134   9.397  22.906  0.00  0.00    +0.000 S 
ATOM     10  C   UNL     1      -1.124  12.025  22.844  0.00  0.00    +0.000 C 
ATOM     11  C   UNL     1      -1.733  12.654  21.543  0.00  0.00    +0.000 C 
ATOM     12  C   UNL     1      -0.904  12.099  20.335  0.00  0.00    +0.000 C 
ATOM     13  H   UNL     1       1.282   7.181  22.017  0.00  0.00    +0.000 HD
ENDBRANCH   1   2
BRANCH   1  14
ATOM     14  C   UNL     1       3.047   5.630  18.720  0.00  0.00    +0.000 C 
BRANCH  14  21
ATOM     15  C   UNL     1       5.807   4.881  15.576  0.00  0.00    +0.000 A 
ATOM     16  C   UNL     1       7.217   4.587  15.905  0.00  0.00    +0.000 A 
ATOM     17  C   UNL     1       7.542   4.594  17.208  0.00  0.00    +0.000 A 
ATOM     18  C   UNL     1       6.539   4.872  18.162  0.00  0.00    +0.000 A 
ATOM     19  N   UNL     1       6.550   4.960  19.475  0.00  0.00    +0.000 NA
ATOM     20  N   UNL     1       5.263   5.257  19.887  0.00  0.00    +0.000 NA
ATOM     21  C   UNL     1       4.502   5.342  18.814  0.00  0.00    +0.000 A 
ATOM     22  N   UNL     1       5.265   5.113  17.695  0.00  0.00    +0.000 N 
ATOM     23  N   UNL     1       4.843   5.131  16.398  0.00  0.00    +0.000 NA
BRANCH  15  25
ATOM     24  C   UNL     1       6.181   3.711  13.562  0.00  0.00    +0.000 C 
ATOM     25  O   UNL     1       5.647   4.859  14.233  0.00  0.00    +0.000 OA
ENDBRANCH  15  25
ENDBRANCH  14  21
ENDBRANCH   1  14
TORSDOF 4
ENDMDL
MODEL 7
REMARK VINA RESULT:      -7.5      3.757      6.019
REMARK  Name = 
REMARK  5 active torsions:
REMARK  status: ('A' for Active; 'I' for Inactive)
REMARK    1  A    between atoms: C_1  and  O_2
REMARK    2  A    between atoms: O_2  and  C_3
REMARK    3  A    between atoms: C_9  and  C_10
REMARK    4  A    between atoms: C_10  and  C_11
REMARK    5  A    between atoms: C_11  and  C_12
REMARK                            x       y       z     vdW  Elec       q    Type
REMARK                         _______ _______ _______ _____ _____    ______ ____
ROOT
ATOM      1  C   UNL     1       1.945   9.240  17.931  0.00  0.00    +0.000 C 
ENDROOT
BRANCH   1   2
ATOM      2  C   UNL     1       0.639   9.805  18.459  0.00  0.00    +0.000 C 
ATOM      3  O   UNL     1       0.538  10.177  19.624  0.00  0.00    +0.000 OA
ATOM      4  N   UNL     1      -0.354   9.835  17.507  0.00  0.00    +0.000 N 
ATOM      5  C   UNL     1      -1.572  10.399  17.779  0.00  0.00    +0.000 A 
ATOM      6  N   UNL     1      -1.914  11.163  18.796  0.00  0.00    +0.000 NA
ATOM      7  C   UNL     1      -3.224  11.480  18.644  0.00  0.00    +0.000 A 
ATOM      8  C   UNL     1      -3.858  10.959  17.552  0.00  0.00    +0.000 A 
ATOM      9  S   UNL     1      -2.803  10.066  16.607  0.00  0.00    +0.000 S 
ATOM     10  C   UNL     1      -5.281  11.337  17.464  0.00  0.00    +0.000 C 
ATOM     11  C   UNL     1      -5.328  12.519  18.493  0.00  0.00    +0.000 C 
ATOM     12  C   UNL     1      -4.111  12.331  19.461  0.00  0.00    +0.000 C 
ATOM     13  H   UNL     1      -0.250   9.361  16.621  0.00  0.00    +0.000 HD
ENDBRANCH   1   2
BRANCH   1  14
ATOM     14  C   UNL     1       2.297   7.967  18.699  0.00  0.00    +0.000 C 
BRANCH  14  21
ATOM     15  C   UNL     1       2.039   3.750  18.242  0.00  0.00    +0.000 A 
ATOM     16  C   UNL     1       3.090   3.037  17.485  0.00  0.00    +0.000 A 
ATOM     17  C   UNL     1       4.071   3.794  16.965  0.00  0.00    +0.000 A 
ATOM     18  C   UNL     1       4.040   5.191  17.171  0.00  0.00    +0.000 A 
ATOM     19  N   UNL     1       4.829   6.172  16.789  0.00  0.00    +0.000 NA
ATOM     20  N   UNL     1       4.308   7.351  17.289  0.00  0.00    +0.000 NA
ATOM     21  C   UNL     1       3.214   7.058  17.965  0.00  0.00    +0.000 A 
ATOM     22  N   UNL     1       2.997   5.702  17.914  0.00  0.00    +0.000 N 
ATOM     23  N   UNL     1       1.960   5.017  18.475  0.00  0.00    +0.000 NA
BRANCH  15  25
ATOM     24  C   UNL     1       1.147   2.575  20.083  0.00  0.00    +0.000 C 
ATOM     25  O   UNL     1       1.120   2.858  18.678  0.00  0.00    +0.000 OA
ENDBRANCH  15  25
ENDBRANCH  14  21
ENDBRANCH   1  14
TORSDOF 4
ENDMDL
MODEL 8
REMARK VINA RESULT:      -7.5      7.899      9.923
REMARK  Name = 
REMARK  5 active torsions:
REMARK  status: ('A' for Active; 'I' for Inactive)
REMARK    1  A    between atoms: C_1  and  O_2
REMARK    2  A    between atoms: O_2  and  C_3
REMARK    3  A    between atoms: C_9  and  C_10
REMARK    4  A    between atoms: C_10  and  C_11
REMARK    5  A    between atoms: C_11  and  C_12
REMARK                            x       y       z     vdW  Elec       q    Type
REMARK                         _______ _______ _______ _____ _____    ______ ____
ROOT
ATOM      1  C   UNL     1       9.669  10.394  18.973  0.00  0.00    +0.000 C 
ENDROOT
BRANCH   1   2
ATOM      2  C   UNL     1       8.569   9.593  18.300  0.00  0.00    +0.000 C 
ATOM      3  O   UNL     1       7.779  10.130  17.529  0.00  0.00    +0.000 OA
ATOM      4  N   UNL     1       8.578   8.264  18.660  0.00  0.00    +0.000 N 
ATOM      5  C   UNL     1       7.716   7.373  18.080  0.00  0.00    +0.000 A 
ATOM      6  N   UNL     1       6.968   7.533  17.008  0.00  0.00    +0.000 NA
ATOM      7  C   UNL     1       6.278   6.381  16.818  0.00  0.00    +0.000 A 
ATOM      8  C   UNL     1       6.488   5.384  17.727  0.00  0.00    +0.000 A 
ATOM      9  S   UNL     1       7.630   5.831  18.866  0.00  0.00    +0.000 S 
ATOM     10  C   UNL     1       5.693   4.169  17.460  0.00  0.00    +0.000 C 
ATOM     11  C   UNL     1       5.239   4.443  15.984  0.00  0.00    +0.000 C 
ATOM     12  C   UNL     1       5.328   5.989  15.758  0.00  0.00    +0.000 C 
ATOM     13  H   UNL     1       9.149   7.930  19.423  0.00  0.00    +0.000 HD
ENDBRANCH   1   2
BRANCH   1  14
ATOM     14  C   UNL     1       9.340  11.883  18.887  0.00  0.00    +0.000 C 
BRANCH  14  21
ATOM     15  C   UNL     1       9.210  15.996  17.826  0.00  0.00    +0.000 A 
ATOM     16  C   UNL     1      10.319  16.577  17.041  0.00  0.00    +0.000 A 
ATOM     17  C   UNL     1      11.327  15.748  16.724  0.00  0.00    +0.000 A 
ATOM     18  C   UNL     1      11.265  14.402  17.148  0.00  0.00    +0.000 A 
ATOM     19  N   UNL     1      12.080  13.379  17.007  0.00  0.00    +0.000 NA
ATOM     20  N   UNL     1      11.500  12.289  17.630  0.00  0.00    +0.000 NA
ATOM     21  C   UNL     1      10.345  12.677  18.135  0.00  0.00    +0.000 A 
ATOM     22  N   UNL     1      10.153  14.010  17.862  0.00  0.00    +0.000 N 
ATOM     23  N   UNL     1       9.088  14.777  18.232  0.00  0.00    +0.000 NA
BRANCH  15  25
ATOM     24  C   UNL     1       7.662  16.887  19.367  0.00  0.00    +0.000 C 
ATOM     25  O   UNL     1       8.292  16.956  18.082  0.00  0.00    +0.000 OA
ENDBRANCH  15  25
ENDBRANCH  14  21
ENDBRANCH   1  14
TORSDOF 4
ENDMDL
MODEL 9
REMARK VINA RESULT:      -7.5      3.809      5.485
REMARK  Name = 
REMARK  5 active torsions:
REMARK  status: ('A' for Active; 'I' for Inactive)
REMARK    1  A    between atoms: C_1  and  O_2
REMARK    2  A    between atoms: O_2  and  C_3
REMARK    3  A    between atoms: C_9  and  C_10
REMARK    4  A    between atoms: C_10  and  C_11
REMARK    5  A    between atoms: C_11  and  C_12
REMARK                            x       y       z     vdW  Elec       q    Type
REMARK                         _______ _______ _______ _____ _____    ______ ____
ROOT
ATOM      1  C   UNL     1       3.039   7.737  16.938  0.00  0.00    +0.000 C 
ENDROOT
BRANCH   1   2
ATOM      2  C   UNL     1       2.381   8.727  17.882  0.00  0.00    +0.000 C 
ATOM      3  O   UNL     1       2.265   9.910  17.575  0.00  0.00    +0.000 OA
ATOM      4  N   UNL     1       1.965   8.148  19.059  0.00  0.00    +0.000 N 
ATOM      5  C   UNL     1       1.267   8.871  19.990  0.00  0.00    +0.000 A 
ATOM      6  N   UNL     1       0.699  10.051  19.855  0.00  0.00    +0.000 NA
ATOM      7  C   UNL     1       0.128  10.366  21.045  0.00  0.00    +0.000 A 
ATOM      8  C   UNL     1       0.273   9.456  22.053  0.00  0.00    +0.000 A 
ATOM      9  S   UNL     1       1.108   8.101  21.534  0.00  0.00    +0.000 S 
ATOM     10  C   UNL     1      -0.363   9.876  23.317  0.00  0.00    +0.000 C 
ATOM     11  C   UNL     1      -1.277  11.042  22.805  0.00  0.00    +0.000 C 
ATOM     12  C   UNL     1      -0.665  11.542  21.453  0.00  0.00    +0.000 C 
ATOM     13  H   UNL     1       2.242   7.210  19.312  0.00  0.00    +0.000 HD
ENDBRANCH   1   2
BRANCH   1  14
ATOM     14  C   UNL     1       4.226   7.077  17.637  0.00  0.00    +0.000 C 
BRANCH  14  21
ATOM     15  C   UNL     1       2.668   3.963  20.074  0.00  0.00    +0.000 A 
ATOM     16  C   UNL     1       2.892   2.556  19.682  0.00  0.00    +0.000 A 
ATOM     17  C   UNL     1       3.575   2.352  18.544  0.00  0.00    +0.000 A 
ATOM     18  C   UNL     1       4.030   3.470  17.809  0.00  0.00    +0.000 A 
ATOM     19  N   UNL     1       4.697   3.591  16.682  0.00  0.00    +0.000 NA
ATOM     20  N   UNL     1       4.871   4.942  16.439  0.00  0.00    +0.000 NA
ATOM     21  C   UNL     1       4.305   5.608  17.426  0.00  0.00    +0.000 A 
ATOM     22  N   UNL     1       3.752   4.721  18.317  0.00  0.00    +0.000 N 
ATOM     23  N   UNL     1       3.065   5.024  19.456  0.00  0.00    +0.000 NA
BRANCH  15  25
ATOM     24  C   UNL     1       1.495   2.731  21.708  0.00  0.00    +0.000 C 
ATOM     25  O   UNL     1       1.951   3.999  21.220  0.00  0.00    +0.000 OA
ENDBRANCH  15  25
ENDBRANCH  14  21
ENDBRANCH   1  14
TORSDOF 4
ENDMDL
