MODEL 1
REMARK VINA RESULT:      -7.5      0.000      0.000
REMARK  Name = 
REMARK  10 active torsions:
REMARK  status: ('A' for Active; 'I' for Inactive)
REMARK    1  A    between atoms: C_1  and  N_2
REMARK    2  A    between atoms: C_3  and  N_4
REMARK    3  A    between atoms: N_4  and  C_5
REMARK    4  A    between atoms: C_5  and  C_6
REMARK    5  A    between atoms: C_6  and  O_7
REMARK    6  A    between atoms: O_7  and  C_8
REMARK    7  A    between atoms: C_15  and  C_16
REMARK    8  A    between atoms: C_15  and  C_17
REMARK    9  A    between atoms: C_19  and  C_20
REMARK   10  A    between atoms: N_24  and  C_25
REMARK                            x       y       z     vdW  Elec       q    Type
REMARK                         _______ _______ _______ _____ _____    ______ ____
ROOT
ATOM      1  N   UNL     1       0.187   9.961  18.748  0.00  0.00    +0.000 N 
ATOM      2  H   UNL     1      -0.337   9.153  18.409  0.00  0.00    +0.000 HD
ENDROOT
BRANCH   1   5
ATOM      3  C   UNL     1      -1.732  11.904  18.105  0.00  0.00    +0.000 C 
ATOM      4  N   UNL     1      -1.400  11.578  19.490  0.00  0.00    +0.000 N 
ATOM      5  C   UNL     1      -0.425  10.630  19.807  0.00  0.00    +0.000 A 
ATOM      6  C   UNL     1      -0.140  10.406  21.105  0.00  0.00    +0.000 A 
ATOM      7  C   UNL     1      -0.826  11.168  22.161  0.00  0.00    +0.000 A 
ATOM      8  O   UNL     1      -0.561  10.958  23.352  0.00  0.00    +0.000 OA
ATOM      9  N   UNL     1      -1.735  12.121  21.760  0.00  0.00    +0.000 N 
ATOM     10  C   UNL     1      -2.411  12.928  22.758  0.00  0.00    +0.000 C 
ATOM     11  C   UNL     1      -2.060  12.362  20.439  0.00  0.00    +0.000 A 
ATOM     12  O   UNL     1      -2.883  13.220  20.121  0.00  0.00    +0.000 OA
BRANCH   6  13
ATOM     13  C   UNL     1       0.772   9.399  21.532  0.00  0.00    +0.000 C 
ATOM     14  N   UNL     1       1.491   8.551  21.883  0.00  0.00    +0.000 NA
ENDBRANCH   6  13
ENDBRANCH   1   5
BRANCH   1  15
ATOM     15  C   UNL     1       1.581  10.014  18.337  0.00  0.00    +0.000 C 
BRANCH  15  16
ATOM     16  C   UNL     1       2.024   8.668  17.745  0.00  0.00    +0.000 C 
BRANCH  16  17
ATOM     17  O   UNL     1       2.266   7.776  18.828  0.00  0.00    +0.000 OA
BRANCH  17  18
ATOM     18  C   UNL     1       3.040   6.680  18.599  0.00  0.00    +0.000 A 
ATOM     19  C   UNL     1       3.844   6.791  17.452  0.00  0.00    +0.000 A 
ATOM     20  C   UNL     1       4.666   5.736  17.023  0.00  0.00    +0.000 A 
ATOM     21  C   UNL     1       4.652   4.522  17.698  0.00  0.00    +0.000 A 
ATOM     22  C   UNL     1       3.818   4.405  18.797  0.00  0.00    +0.000 A 
ATOM     23  C   UNL     1       3.085   5.481  19.292  0.00  0.00    +0.000 A 
ATOM     24  O   UNL     1       2.415   5.147  20.457  0.00  0.00    +0.000 OA
ATOM     25  C   UNL     1       2.282   3.699  20.356  0.00  0.00    +0.000 C 
ATOM     26  C   UNL     1       0.935   3.461  19.646  0.00  0.00    +0.000 C 
ATOM     27  C   UNL     1       2.240   3.016  21.725  0.00  0.00    +0.000 C 
ATOM     28  C   UNL     1       3.521   3.193  19.590  0.00  0.00    +0.000 C 
ENDBRANCH  17  18
ENDBRANCH  16  17
ENDBRANCH  15  16
ENDBRANCH   1  15
TORSDOF 6
ENDMDL
MODEL 2
REMARK VINA RESULT:      -7.5      0.997      2.529
REMARK  Name = 
REMARK  10 active torsions:
REMARK  status: ('A' for Active; 'I' for Inactive)
REMARK    1  A    between atoms: C_1  and  N_2
REMARK    2  A    between atoms: C_3  and  N_4
REMARK    3  A    between atoms: N_4  and  C_5
REMARK    4  A    between atoms: C_5  and  C_6
REMARK    5  A    between atoms: C_6  and  O_7
REMARK    6  A    between atoms: O_7  and  C_8
REMARK    7  A    between atoms: C_15  and  C_16
REMARK    8  A    between atoms: C_15  and  C_17
REMARK    9  A    between atoms: C_19  and  C_20
REMARK   10  A    between atoms: N_24  and  C_25
REMARK                            x       y       z     vdW  Elec       q    Type
REMARK                         _______ _______ _______ _____ _____    ______ ____
ROOT
ATOM      1  N   UNL     1       0.369   9.158  18.856  0.00  0.00    +0.000 N 
ATOM      2  H   UNL     1       0.205   8.157  18.973  0.00  0.00    +0.000 HD
ENDROOT
BRANCH   1   5
ATOM      3  C   UNL     1       1.211   8.574  21.468  0.00  0.00    +0.000 C 
ATOM      4  N   UNL     1       0.287   9.671  21.183  0.00  0.00    +0.000 N 
ATOM      5  C   UNL     1      -0.151   9.942  19.885  0.00  0.00    +0.000 A 
ATOM      6  C   UNL     1      -1.033  10.942  19.697  0.00  0.00    +0.000 A 
ATOM      7  C   UNL     1      -1.543  11.712  20.844  0.00  0.00    +0.000 A 
ATOM      8  O   UNL     1      -2.353  12.631  20.667  0.00  0.00    +0.000 OA
ATOM      9  N   UNL     1      -1.100  11.345  22.095  0.00  0.00    +0.000 N 
ATOM     10  C   UNL     1      -1.599  12.044  23.263  0.00  0.00    +0.000 C 
ATOM     11  C   UNL     1      -0.184  10.335  22.317  0.00  0.00    +0.000 A 
ATOM     12  O   UNL     1       0.192  10.040  23.451  0.00  0.00    +0.000 OA
BRANCH   6  13
ATOM     13  C   UNL     1      -1.471  11.354  18.406  0.00  0.00    +0.000 C 
ATOM     14  N   UNL     1      -1.796  11.684  17.337  0.00  0.00    +0.000 NA
ENDBRANCH   6  13
ENDBRANCH   1   5
BRANCH   1  15
ATOM     15  C   UNL     1       1.399   9.510  17.891  0.00  0.00    +0.000 C 
BRANCH  15  16
ATOM     16  C   UNL     1       2.623   8.595  18.045  0.00  0.00    +0.000 C 
BRANCH  16  17
ATOM     17  O   UNL     1       2.151   7.257  18.166  0.00  0.00    +0.000 OA
BRANCH  17  18
ATOM     18  C   UNL     1       3.057   6.278  18.441  0.00  0.00    +0.000 A 
ATOM     19  C   UNL     1       4.263   6.415  17.734  0.00  0.00    +0.000 A 
ATOM     20  C   UNL     1       5.294   5.468  17.844  0.00  0.00    +0.000 A 
ATOM     21  C   UNL     1       5.113   4.327  18.616  0.00  0.00    +0.000 A 
ATOM     22  C   UNL     1       3.902   4.175  19.268  0.00  0.00    +0.000 A 
ATOM     23  C   UNL     1       2.920   5.163  19.252  0.00  0.00    +0.000 A 
ATOM     24  O   UNL     1       1.849   4.829  20.063  0.00  0.00    +0.000 OA
ATOM     25  C   UNL     1       1.923   3.374  20.123  0.00  0.00    +0.000 C 
ATOM     26  C   UNL     1       1.051   2.872  18.956  0.00  0.00    +0.000 C 
ATOM     27  C   UNL     1       1.361   2.811  21.430  0.00  0.00    +0.000 C 
ATOM     28  C   UNL     1       3.416   3.003  20.028  0.00  0.00    +0.000 C 
ENDBRANCH  17  18
ENDBRANCH  16  17
ENDBRANCH  15  16
ENDBRANCH   1  15
TORSDOF 6
ENDMDL
MODEL 3
REMARK VINA RESULT:      -7.4      1.207      1.376
REMARK  Name = 
REMARK  10 active torsions:
REMARK  status: ('A' for Active; 'I' for Inactive)
REMARK    1  A    between atoms: C_1  and  N_2
REMARK    2  A    between atoms: C_3  and  N_4
REMARK    3  A    between atoms: N_4  and  C_5
REMARK    4  A    between atoms: C_5  and  C_6
REMARK    5  A    between atoms: C_6  and  O_7
REMARK    6  A    between atoms: O_7  and  C_8
REMARK    7  A    between atoms: C_15  and  C_16
REMARK    8  A    between atoms: C_15  and  C_17
REMARK    9  A    between atoms: C_19  and  C_20
REMARK   10  A    between atoms: N_24  and  C_25
REMARK                            x       y       z     vdW  Elec       q    Type
REMARK                         _______ _______ _______ _____ _____    ______ ____
ROOT
ATOM      1  N   UNL     1       0.559   9.684  18.510  0.00  0.00    +0.000 N 
ATOM      2  H   UNL     1      -0.112   9.144  17.961  0.00  0.00    +0.000 HD
ENDROOT
BRANCH   1   5
ATOM      3  C   UNL     1      -0.861  12.103  18.443  0.00  0.00    +0.000 C 
ATOM      4  N   UNL     1      -0.681  11.349  19.682  0.00  0.00    +0.000 N 
ATOM      5  C   UNL     1       0.049  10.159  19.718  0.00  0.00    +0.000 A 
ATOM      6  C   UNL     1       0.209   9.535  20.900  0.00  0.00    +0.000 A 
ATOM      7  C   UNL     1      -0.351  10.115  22.132  0.00  0.00    +0.000 A 
ATOM      8  O   UNL     1      -0.202   9.537  23.216  0.00  0.00    +0.000 OA
ATOM      9  N   UNL     1      -1.012  11.317  22.017  0.00  0.00    +0.000 N 
ATOM     10  C   UNL     1      -1.550  11.953  23.204  0.00  0.00    +0.000 C 
ATOM     11  C   UNL     1      -1.206  11.973  20.816  0.00  0.00    +0.000 A 
ATOM     12  O   UNL     1      -1.807  13.045  20.754  0.00  0.00    +0.000 OA
BRANCH   6  13
ATOM     13  C   UNL     1       0.859   8.274  21.026  0.00  0.00    +0.000 C 
ATOM     14  N   UNL     1       1.366   7.227  21.107  0.00  0.00    +0.000 NA
ENDBRANCH   6  13
ENDBRANCH   1   5
BRANCH   1  15
ATOM     15  C   UNL     1       1.951   9.523  18.123  0.00  0.00    +0.000 C 
BRANCH  15  16
ATOM     16  C   UNL     1       2.248   8.060  17.760  0.00  0.00    +0.000 C 
BRANCH  16  17
ATOM     17  O   UNL     1       3.662   7.897  17.741  0.00  0.00    +0.000 OA
BRANCH  17  18
ATOM     18  C   UNL     1       4.167   6.697  17.343  0.00  0.00    +0.000 A 
ATOM     19  C   UNL     1       4.926   6.771  16.163  0.00  0.00    +0.000 A 
ATOM     20  C   UNL     1       5.477   5.625  15.568  0.00  0.00    +0.000 A 
ATOM     21  C   UNL     1       5.225   4.369  16.106  0.00  0.00    +0.000 A 
ATOM     22  C   UNL     1       4.433   4.301  17.239  0.00  0.00    +0.000 A 
ATOM     23  C   UNL     1       3.976   5.442  17.897  0.00  0.00    +0.000 A 
ATOM     24  O   UNL     1       3.299   5.120  19.061  0.00  0.00    +0.000 OA
ATOM     25  C   UNL     1       2.846   3.756  18.812  0.00  0.00    +0.000 C 
ATOM     26  C   UNL     1       1.452   3.899  18.174  0.00  0.00    +0.000 C 
ATOM     27  C   UNL     1       2.713   2.939  20.100  0.00  0.00    +0.000 C 
ATOM     28  C   UNL     1       3.910   3.094  17.915  0.00  0.00    +0.000 C 
ENDBRANCH  17  18
ENDBRANCH  16  17
ENDBRANCH  15  16
ENDBRANCH   1  15
TORSDOF 6
ENDMDL
MODEL 4
REMARK VINA RESULT:      -7.3      2.128      3.665
REMARK  Name = 
REMARK  10 active torsions:
REMARK  status: ('A' for Active; 'I' for Inactive)
REMARK    1  A    between atoms: C_1  and  N_2
REMARK    2  A    between atoms: C_3  and  N_4
REMARK    3  A    between atoms: N_4  and  C_5
REMARK    4  A    between atoms: C_5  and  C_6
REMARK    5  A    between atoms: C_6  and  O_7
REMARK    6  A    between atoms: O_7  and  C_8
REMARK    7  A    between atoms: C_15  and  C_16
REMARK    8  A    between atoms: C_15  and  C_17
REMARK    9  A    between atoms: C_19  and  C_20
REMARK   10  A    between atoms: N_24  and  C_25
REMARK                            x       y       z     vdW  Elec       q    Type
REMARK                         _______ _______ _______ _____ _____    ______ ____
ROOT
ATOM      1  N   UNL     1       0.228   9.286  20.293  0.00  0.00    +0.000 N 
ATOM      2  H   UNL     1      -0.721   9.122  19.956  0.00  0.00    +0.000 HD
ENDROOT
BRANCH   1   5
ATOM      3  C   UNL     1       1.711  10.084  18.049  0.00  0.00    +0.000 C 
ATOM      4  N   UNL     1       1.343  11.026  19.104  0.00  0.00    +0.000 N 
ATOM      5  C   UNL     1       0.628  10.621  20.233  0.00  0.00    +0.000 A 
ATOM      6  C   UNL     1       0.355  11.532  21.186  0.00  0.00    +0.000 A 
ATOM      7  C   UNL     1       0.828  12.920  21.049  0.00  0.00    +0.000 A 
ATOM      8  O   UNL     1       0.575  13.754  21.927  0.00  0.00    +0.000 OA
ATOM      9  N   UNL     1       1.571  13.223  19.930  0.00  0.00    +0.000 N 
ATOM     10  C   UNL     1       2.095  14.565  19.763  0.00  0.00    +0.000 C 
ATOM     11  C   UNL     1       1.853  12.314  18.928  0.00  0.00    +0.000 A 
ATOM     12  O   UNL     1       2.517  12.625  17.940  0.00  0.00    +0.000 OA
BRANCH   6  13
ATOM     13  C   UNL     1      -0.442  11.239  22.330  0.00  0.00    +0.000 C 
ATOM     14  N   UNL     1      -1.096  11.035  23.272  0.00  0.00    +0.000 NA
ENDBRANCH   6  13
ENDBRANCH   1   5
BRANCH   1  15
ATOM     15  C   UNL     1       0.799   8.212  21.090  0.00  0.00    +0.000 C 
BRANCH  15  16
ATOM     16  C   UNL     1       1.885   7.467  20.299  0.00  0.00    +0.000 C 
BRANCH  16  17
ATOM     17  O   UNL     1       1.967   6.143  20.816  0.00  0.00    +0.000 OA
BRANCH  17  18
ATOM     18  C   UNL     1       1.892   5.104  19.939  0.00  0.00    +0.000 A 
ATOM     19  C   UNL     1       0.982   4.107  20.326  0.00  0.00    +0.000 A 
ATOM     20  C   UNL     1       0.813   2.932  19.577  0.00  0.00    +0.000 A 
ATOM     21  C   UNL     1       1.600   2.700  18.456  0.00  0.00    +0.000 A 
ATOM     22  C   UNL     1       2.530   3.665  18.111  0.00  0.00    +0.000 A 
ATOM     23  C   UNL     1       2.626   4.881  18.785  0.00  0.00    +0.000 A 
ATOM     24  O   UNL     1       3.551   5.722  18.190  0.00  0.00    +0.000 OA
ATOM     25  C   UNL     1       4.435   4.796  17.492  0.00  0.00    +0.000 C 
ATOM     26  C   UNL     1       5.553   4.462  18.499  0.00  0.00    +0.000 C 
ATOM     27  C   UNL     1       5.069   5.417  16.245  0.00  0.00    +0.000 C 
ATOM     28  C   UNL     1       3.568   3.596  17.060  0.00  0.00    +0.000 C 
ENDBRANCH  17  18
ENDBRANCH  16  17
ENDBRANCH  15  16
ENDBRANCH   1  15
TORSDOF 6
ENDMDL
MODEL 5
REMARK VINA RESULT:      -7.3      2.070      3.724
REMARK  Name = 
REMARK  10 active torsions:
REMARK  status: ('A' for Active; 'I' for Inactive)
REMARK    1  A    between atoms: C_1  and  N_2
REMARK    2  A    between atoms: C_3  and  N_4
REMARK    3  A    between atoms: N_4  and  C_5
REMARK    4  A    between atoms: C_5  and  C_6
REMARK    5  A    between atoms: C_6  and  O_7
REMARK    6  A    between atoms: O_7  and  C_8
REMARK    7  A    between atoms: C_15  and  C_16
REMARK    8  A    between atoms: C_15  and  C_17
REMARK    9  A    between atoms: C_19  and  C_20
REMARK   10  A    between atoms: N_24  and  C_25
REMARK                            x       y       z     vdW  Elec       q    Type
REMARK                         _______ _______ _______ _____ _____    ______ ____
ROOT
ATOM      1  N   UNL     1       0.142   9.221  20.611  0.00  0.00    +0.000 N 
ATOM      2  H   UNL     1      -0.840   8.999  20.447  0.00  0.00    +0.000 HD
ENDROOT
BRANCH   1   5
ATOM      3  C   UNL     1      -0.675  11.051  22.576  0.00  0.00    +0.000 C 
ATOM      4  N   UNL     1       0.079  11.472  21.397  0.00  0.00    +0.000 N 
ATOM      5  C   UNL     1       0.461  10.564  20.407  0.00  0.00    +0.000 A 
ATOM      6  C   UNL     1       1.119  11.025  19.326  0.00  0.00    +0.000 A 
ATOM      7  C   UNL     1       1.403  12.463  19.183  0.00  0.00    +0.000 A 
ATOM      8  O   UNL     1       2.009  12.882  18.189  0.00  0.00    +0.000 OA
ATOM      9  N   UNL     1       0.946  13.296  20.179  0.00  0.00    +0.000 N 
ATOM     10  C   UNL     1       1.163  14.726  20.070  0.00  0.00    +0.000 C 
ATOM     11  C   UNL     1       0.282  12.851  21.306  0.00  0.00    +0.000 A 
ATOM     12  O   UNL     1      -0.107  13.628  22.178  0.00  0.00    +0.000 OA
BRANCH   6  13
ATOM     13  C   UNL     1       1.628  10.169  18.308  0.00  0.00    +0.000 C 
ATOM     14  N   UNL     1       2.012   9.470  17.458  0.00  0.00    +0.000 NA
ENDBRANCH   6  13
ENDBRANCH   1   5
BRANCH   1  15
ATOM     15  C   UNL     1       0.888   8.226  21.364  0.00  0.00    +0.000 C 
BRANCH  15  16
ATOM     16  C   UNL     1       1.831   7.441  20.441  0.00  0.00    +0.000 C 
BRANCH  16  17
ATOM     17  O   UNL     1       1.879   6.098  20.910  0.00  0.00    +0.000 OA
BRANCH  17  18
ATOM     18  C   UNL     1       1.840   5.093  19.991  0.00  0.00    +0.000 A 
ATOM     19  C   UNL     1       0.961   4.053  20.334  0.00  0.00    +0.000 A 
ATOM     20  C   UNL     1       0.831   2.904  19.537  0.00  0.00    +0.000 A 
ATOM     21  C   UNL     1       1.628   2.743  18.410  0.00  0.00    +0.000 A 
ATOM     22  C   UNL     1       2.528   3.751  18.108  0.00  0.00    +0.000 A 
ATOM     23  C   UNL     1       2.582   4.940  18.832  0.00  0.00    +0.000 A 
ATOM     24  O   UNL     1       3.481   5.834  18.274  0.00  0.00    +0.000 OA
ATOM     25  C   UNL     1       4.397   4.965  17.543  0.00  0.00    +0.000 C 
ATOM     26  C   UNL     1       5.522   4.627  18.539  0.00  0.00    +0.000 C 
ATOM     27  C   UNL     1       5.013   5.657  16.324  0.00  0.00    +0.000 C 
ATOM     28  C   UNL     1       3.569   3.758  17.059  0.00  0.00    +0.000 C 
ENDBRANCH  17  18
ENDBRANCH  16  17
ENDBRANCH  15  16
ENDBRANCH   1  15
TORSDOF 6
ENDMDL
MODEL 6
REMARK VINA RESULT:      -7.3      1.522      3.666
REMARK  Name = 
REMARK  10 active torsions:
REMARK  status: ('A' for Active; 'I' for Inactive)
REMARK    1  A    between atoms: C_1  and  N_2
REMARK    2  A    between atoms: C_3  and  N_4
REMARK    3  A    between atoms: N_4  and  C_5
REMARK    4  A    between atoms: C_5  and  C_6
REMARK    5  A    between atoms: C_6  and  O_7
REMARK    6  A    between atoms: O_7  and  C_8
REMARK    7  A    between atoms: C_15  and  C_16
REMARK    8  A    between atoms: C_15  and  C_17
REMARK    9  A    between atoms: C_19  and  C_20
REMARK   10  A    between atoms: N_24  and  C_25
REMARK                            x       y       z     vdW  Elec       q    Type
REMARK                         _______ _______ _______ _____ _____    ______ ____
ROOT
ATOM      1  N   UNL     1       0.590   9.442  18.992  0.00  0.00    +0.000 N 
ATOM      2  H   UNL     1       0.208   8.510  18.829  0.00  0.00    +0.000 HD
ENDROOT
BRANCH   1   5
ATOM      3  C   UNL     1       1.274   8.772  21.630  0.00  0.00    +0.000 C 
ATOM      4  N   UNL     1       0.312   9.831  21.328  0.00  0.00    +0.000 N 
ATOM      5  C   UNL     1      -0.047  10.144  20.015  0.00  0.00    +0.000 A 
ATOM      6  C   UNL     1      -0.968  11.105  19.809  0.00  0.00    +0.000 A 
ATOM      7  C   UNL     1      -1.601  11.788  20.950  0.00  0.00    +0.000 A 
ATOM      8  O   UNL     1      -2.447  12.670  20.756  0.00  0.00    +0.000 OA
ATOM      9  N   UNL     1      -1.229  11.382  22.211  0.00  0.00    +0.000 N 
ATOM     10  C   UNL     1      -1.850  11.994  23.370  0.00  0.00    +0.000 C 
ATOM     11  C   UNL     1      -0.275  10.412  22.454  0.00  0.00    +0.000 A 
ATOM     12  O   UNL     1       0.034  10.080  23.598  0.00  0.00    +0.000 OA
BRANCH   6  13
ATOM     13  C   UNL     1      -1.335  11.557  18.509  0.00  0.00    +0.000 C 
ATOM     14  N   UNL     1      -1.670  11.920  17.454  0.00  0.00    +0.000 NA
ENDBRANCH   6  13
ENDBRANCH   1   5
BRANCH   1  15
ATOM     15  C   UNL     1       1.904   9.685  18.419  0.00  0.00    +0.000 C 
BRANCH  15  16
ATOM     16  C   UNL     1       2.362   8.480  17.583  0.00  0.00    +0.000 C 
BRANCH  16  17
ATOM     17  O   UNL     1       2.890   7.507  18.478  0.00  0.00    +0.000 OA
BRANCH  17  18
ATOM     18  C   UNL     1       2.936   6.210  18.064  0.00  0.00    +0.000 A 
ATOM     19  C   UNL     1       1.860   5.435  18.527  0.00  0.00    +0.000 A 
ATOM     20  C   UNL     1       1.768   4.062  18.252  0.00  0.00    +0.000 A 
ATOM     21  C   UNL     1       2.788   3.419  17.560  0.00  0.00    +0.000 A 
ATOM     22  C   UNL     1       3.869   4.181  17.152  0.00  0.00    +0.000 A 
ATOM     23  C   UNL     1       3.913   5.563  17.326  0.00  0.00    +0.000 A 
ATOM     24  O   UNL     1       5.041   6.113  16.740  0.00  0.00    +0.000 OA
ATOM     25  C   UNL     1       5.974   4.994  16.708  0.00  0.00    +0.000 C 
ATOM     26  C   UNL     1       6.758   5.077  18.032  0.00  0.00    +0.000 C 
ATOM     27  C   UNL     1       6.966   5.090  15.546  0.00  0.00    +0.000 C 
ATOM     28  C   UNL     1       5.128   3.717  16.530  0.00  0.00    +0.000 C 
ENDBRANCH  17  18
ENDBRANCH  16  17
ENDBRANCH  15  16
ENDBRANCH   1  15
TORSDOF 6
ENDMDL
MODEL 7
REMARK VINA RESULT:      -7.3      1.775      3.707
REMARK  Name = 
REMARK  10 active torsions:
REMARK  status: ('A' for Active; 'I' for Inactive)
REMARK    1  A    between atoms: C_1  and  N_2
REMARK    2  A    between atoms: C_3  and  N_4
REMARK    3  A    between atoms: N_4  and  C_5
REMARK    4  A    between atoms: C_5  and  C_6
REMARK    5  A    between atoms: C_6  and  O_7
REMARK    6  A    between atoms: O_7  and  C_8
REMARK    7  A    between atoms: C_15  and  C_16
REMARK    8  A    between atoms: C_15  and  C_17
REMARK    9  A    between atoms: C_19  and  C_20
REMARK   10  A    between atoms: N_24  and  C_25
REMARK                            x       y       z     vdW  Elec       q    Type
REMARK                         _______ _______ _______ _____ _____    ______ ____
ROOT
ATOM      1  N   UNL     1       1.523   8.597  21.188  0.00  0.00    +0.000 N 
ATOM      2  H   UNL     1       2.482   8.863  21.412  0.00  0.00    +0.000 HD
ENDROOT
BRANCH   1   5
ATOM      3  C   UNL     1      -0.008   9.524  23.350  0.00  0.00    +0.000 C 
ATOM      4  N   UNL     1      -0.067  10.160  22.035  0.00  0.00    +0.000 N 
ATOM      5  C   UNL     1       0.676   9.680  20.954  0.00  0.00    +0.000 A 
ATOM      6  C   UNL     1       0.545  10.289  19.760  0.00  0.00    +0.000 A 
ATOM      7  C   UNL     1      -0.385  11.419  19.597  0.00  0.00    +0.000 A 
ATOM      8  O   UNL     1      -0.501  11.977  18.498  0.00  0.00    +0.000 OA
ATOM      9  N   UNL     1      -1.117  11.795  20.700  0.00  0.00    +0.000 N 
ATOM     10  C   UNL     1      -2.076  12.877  20.586  0.00  0.00    +0.000 C 
ATOM     11  C   UNL     1      -0.993  11.201  21.941  0.00  0.00    +0.000 A 
ATOM     12  O   UNL     1      -1.664  11.569  22.905  0.00  0.00    +0.000 OA
BRANCH   6  13
ATOM     13  C   UNL     1       1.323   9.933  18.622  0.00  0.00    +0.000 C 
ATOM     14  N   UNL     1       1.930   9.628  17.674  0.00  0.00    +0.000 NA
ENDBRANCH   6  13
ENDBRANCH   1   5
BRANCH   1  15
ATOM     15  C   UNL     1       1.337   7.210  20.795  0.00  0.00    +0.000 C 
BRANCH  15  16
ATOM     16  C   UNL     1       2.583   6.680  20.070  0.00  0.00    +0.000 C 
BRANCH  16  17
ATOM     17  O   UNL     1       2.230   6.457  18.709  0.00  0.00    +0.000 OA
BRANCH  17  18
ATOM     18  C   UNL     1       2.556   5.259  18.148  0.00  0.00    +0.000 A 
ATOM     19  C   UNL     1       1.653   4.230  18.458  0.00  0.00    +0.000 A 
ATOM     20  C   UNL     1       1.856   2.912  18.018  0.00  0.00    +0.000 A 
ATOM     21  C   UNL     1       3.005   2.584  17.308  0.00  0.00    +0.000 A 
ATOM     22  C   UNL     1       3.915   3.595  17.051  0.00  0.00    +0.000 A 
ATOM     23  C   UNL     1       3.665   4.923  17.389  0.00  0.00    +0.000 A 
ATOM     24  O   UNL     1       4.669   5.761  16.932  0.00  0.00    +0.000 OA
ATOM     25  C   UNL     1       5.816   4.868  16.817  0.00  0.00    +0.000 C 
ATOM     26  C   UNL     1       6.529   4.940  18.180  0.00  0.00    +0.000 C 
ATOM     27  C   UNL     1       6.796   5.310  15.728  0.00  0.00    +0.000 C 
ATOM     28  C   UNL     1       5.259   3.479  16.445  0.00  0.00    +0.000 C 
ENDBRANCH  17  18
ENDBRANCH  16  17
ENDBRANCH  15  16
ENDBRANCH   1  15
TORSDOF 6
ENDMDL
MODEL 8
REMARK VINA RESULT:      -7.2      1.709      2.071
REMARK  Name = 
REMARK  10 active torsions:
REMARK  status: ('A' for Active; 'I' for Inactive)
REMARK    1  A    between atoms: C_1  and  N_2
REMARK    2  A    between atoms: C_3  and  N_4
REMARK    3  A    between atoms: N_4  and  C_5
REMARK    4  A    between atoms: C_5  and  C_6
REMARK    5  A    between atoms: C_6  and  O_7
REMARK    6  A    between atoms: O_7  and  C_8
REMARK    7  A    between atoms: C_15  and  C_16
REMARK    8  A    between atoms: C_15  and  C_17
REMARK    9  A    between atoms: C_19  and  C_20
REMARK   10  A    between atoms: N_24  and  C_25
REMARK                            x       y       z     vdW  Elec       q    Type
REMARK                         _______ _______ _______ _____ _____    ______ ____
ROOT
ATOM      1  N   UNL     1       0.354  10.580  18.225  0.00  0.00    +0.000 N 
ATOM      2  H   UNL     1       0.520  10.721  17.228  0.00  0.00    +0.000 HD
ENDROOT
BRANCH   1   5
ATOM      3  C   UNL     1      -1.969   9.902  16.805  0.00  0.00    +0.000 C 
ATOM      4  N   UNL     1      -2.012  10.756  17.991  0.00  0.00    +0.000 N 
ATOM      5  C   UNL     1      -0.852  11.114  18.680  0.00  0.00    +0.000 A 
ATOM      6  C   UNL     1      -0.959  11.936  19.741  0.00  0.00    +0.000 A 
ATOM      7  C   UNL     1      -2.272  12.466  20.145  0.00  0.00    +0.000 A 
ATOM      8  O   UNL     1      -2.366  13.220  21.122  0.00  0.00    +0.000 OA
ATOM      9  N   UNL     1      -3.358  12.105  19.380  0.00  0.00    +0.000 N 
ATOM     10  C   UNL     1      -4.669  12.629  19.709  0.00  0.00    +0.000 C 
ATOM     11  C   UNL     1      -3.282  11.251  18.296  0.00  0.00    +0.000 A 
ATOM     12  O   UNL     1      -4.278  10.949  17.639  0.00  0.00    +0.000 OA
BRANCH   6  13
ATOM     13  C   UNL     1       0.152  12.287  20.561  0.00  0.00    +0.000 C 
ATOM     14  N   UNL     1       1.071  12.597  21.206  0.00  0.00    +0.000 NA
ENDBRANCH   6  13
ENDBRANCH   1   5
BRANCH   1  15
ATOM     15  C   UNL     1       1.180   9.564  18.856  0.00  0.00    +0.000 C 
BRANCH  15  16
ATOM     16  C   UNL     1       2.134   8.928  17.833  0.00  0.00    +0.000 C 
BRANCH  16  17
ATOM     17  O   UNL     1       1.867   7.530  17.802  0.00  0.00    +0.000 OA
BRANCH  17  18
ATOM     18  C   UNL     1       2.870   6.676  18.148  0.00  0.00    +0.000 A 
ATOM     19  C   UNL     1       4.086   6.945  17.499  0.00  0.00    +0.000 A 
ATOM     20  C   UNL     1       5.217   6.134  17.687  0.00  0.00    +0.000 A 
ATOM     21  C   UNL     1       5.135   4.996  18.480  0.00  0.00    +0.000 A 
ATOM     22  C   UNL     1       3.918   4.711  19.075  0.00  0.00    +0.000 A 
ATOM     23  C   UNL     1       2.826   5.570  18.982  0.00  0.00    +0.000 A 
ATOM     24  O   UNL     1       1.762   5.124  19.748  0.00  0.00    +0.000 OA
ATOM     25  C   UNL     1       2.009   3.691  19.851  0.00  0.00    +0.000 C 
ATOM     26  C   UNL     1       1.268   3.061  18.656  0.00  0.00    +0.000 C 
ATOM     27  C   UNL     1       1.451   3.091  21.144  0.00  0.00    +0.000 C 
ATOM     28  C   UNL     1       3.540   3.504  19.841  0.00  0.00    +0.000 C 
ENDBRANCH  17  18
ENDBRANCH  16  17
ENDBRANCH  15  16
ENDBRANCH   1  15
TORSDOF 6
ENDMDL
MODEL 9
REMARK VINA RESULT:      -7.2      1.333      2.792
REMARK  Name = 
REMARK  10 active torsions:
REMARK  status: ('A' for Active; 'I' for Inactive)
REMARK    1  A    between atoms: C_1  and  N_2
REMARK    2  A    between atoms: C_3  and  N_4
REMARK    3  A    between atoms: N_4  and  C_5
REMARK    4  A    between atoms: C_5  and  C_6
REMARK    5  A    between atoms: C_6  and  O_7
REMARK    6  A    between atoms: O_7  and  C_8
REMARK    7  A    between atoms: C_15  and  C_16
REMARK    8  A    between atoms: C_15  and  C_17
REMARK    9  A    between atoms: C_19  and  C_20
REMARK   10  A    between atoms: N_24  and  C_25
REMARK                            x       y       z     vdW  Elec       q    Type
REMARK                         _______ _______ _______ _____ _____    ______ ____
ROOT
ATOM      1  N   UNL     1       0.514   9.967  18.651  0.00  0.00    +0.000 N 
ATOM      2  H   UNL     1      -0.138   9.301  18.234  0.00  0.00    +0.000 HD
ENDROOT
BRANCH   1   5
ATOM      3  C   UNL     1      -0.847  12.399  18.329  0.00  0.00    +0.000 C 
ATOM      4  N   UNL     1      -0.671  11.783  19.643  0.00  0.00    +0.000 N 
ATOM      5  C   UNL     1       0.030  10.586  19.804  0.00  0.00    +0.000 A 
ATOM      6  C   UNL     1       0.189  10.093  21.047  0.00  0.00    +0.000 A 
ATOM      7  C   UNL     1      -0.343  10.820  22.211  0.00  0.00    +0.000 A 
ATOM      8  O   UNL     1      -0.196  10.362  23.352  0.00  0.00    +0.000 OA
ATOM      9  N   UNL     1      -0.975  12.018  21.969  0.00  0.00    +0.000 N 
ATOM     10  C   UNL     1      -1.484  12.795  23.083  0.00  0.00    +0.000 C 
ATOM     11  C   UNL     1      -1.167  12.541  20.705  0.00  0.00    +0.000 A 
ATOM     12  O   UNL     1      -1.742  13.615  20.529  0.00  0.00    +0.000 OA
BRANCH   6  13
ATOM     13  C   UNL     1       0.809   8.837  21.306  0.00  0.00    +0.000 C 
ATOM     14  N   UNL     1       1.284   7.796  21.527  0.00  0.00    +0.000 NA
ENDBRANCH   6  13
ENDBRANCH   1   5
BRANCH   1  15
ATOM     15  C   UNL     1       1.893   9.849  18.206  0.00  0.00    +0.000 C 
BRANCH  15  16
ATOM     16  C   UNL     1       2.127   8.498  17.515  0.00  0.00    +0.000 C 
BRANCH  16  17
ATOM     17  O   UNL     1       2.827   7.659  18.429  0.00  0.00    +0.000 OA
BRANCH  17  18
ATOM     18  C   UNL     1       2.921   6.331  18.140  0.00  0.00    +0.000 A 
ATOM     19  C   UNL     1       1.957   5.545  18.793  0.00  0.00    +0.000 A 
ATOM     20  C   UNL     1       1.935   4.148  18.664  0.00  0.00    +0.000 A 
ATOM     21  C   UNL     1       2.919   3.499  17.928  0.00  0.00    +0.000 A 
ATOM     22  C   UNL     1       3.895   4.278  17.330  0.00  0.00    +0.000 A 
ATOM     23  C   UNL     1       3.859   5.671  17.363  0.00  0.00    +0.000 A 
ATOM     24  O   UNL     1       4.877   6.224  16.606  0.00  0.00    +0.000 OA
ATOM     25  C   UNL     1       5.879   5.165  16.579  0.00  0.00    +0.000 C 
ATOM     26  C   UNL     1       6.789   5.432  17.793  0.00  0.00    +0.000 C 
ATOM     27  C   UNL     1       6.735   5.199  15.310  0.00  0.00    +0.000 C 
ATOM     28  C   UNL     1       5.112   3.828  16.621  0.00  0.00    +0.000 C 
ENDBRANCH  17  18
ENDBRANCH  16  17
ENDBRANCH  15  16
ENDBRANCH   1  15
TORSDOF 6
ENDMDL
