MODEL 1
REMARK VINA RESULT:      -7.0      0.000      0.000
REMARK  Name = 
REMARK  6 active torsions:
REMARK  status: ('A' for Active; 'I' for Inactive)
REMARK    1  A    between atoms: C_5  and  O_6
REMARK    2  A    between atoms: C_7  and  C_8
REMARK    3  A    between atoms: C_11  and  C_12
REMARK    4  A    between atoms: C_12  and  C_13
REMARK    5  A    between atoms: C_12  and  C_14
REMARK    6  A    between atoms: C_16  and  O_17
REMARK                            x       y       z     vdW  Elec       q    Type
REMARK                         _______ _______ _______ _____ _____    ______ ____
ROOT
ATOM      1  C   UNL     1       0.647   2.469  18.880  0.00  0.00    +0.000 C 
ATOM      2  C   UNL     1       1.881   2.995  18.865  0.00  0.00    +0.000 C 
ATOM      3  C   UNL     1       3.086   2.158  18.540  0.00  0.00    +0.000 C 
ATOM      4  C   UNL     1       3.938   2.810  17.454  0.00  0.00    +0.000 C 
ATOM      5  C   UNL     1       4.249   4.304  17.704  0.00  0.00    +0.000 C 
ATOM      6  C   UNL     1       4.998   4.903  16.479  0.00  0.00    +0.000 C 
ATOM      7  C   UNL     1       6.329   4.205  16.172  0.00  0.00    +0.000 C 
ATOM      8  C   UNL     1       5.259   6.404  16.643  0.00  0.00    +0.000 C 
ATOM      9  C   UNL     1       3.991   7.175  16.977  0.00  0.00    +0.000 C 
ATOM     10  C   UNL     1       3.264   6.637  18.230  0.00  0.00    +0.000 C 
ATOM     11  C   UNL     1       2.938   5.116  18.000  0.00  0.00    +0.000 C 
ATOM     12  C   UNL     1       2.153   4.456  19.161  0.00  0.00    +0.000 C 
ENDROOT
BRANCH  10  13
ATOM     13  C   UNL     1       2.039   7.540  18.607  0.00  0.00    +0.000 C 
ATOM     14  C   UNL     1       1.991   7.855  20.115  0.00  0.00    +0.000 C 
ATOM     15  C   UNL     1       1.954   8.845  17.813  0.00  0.00    +0.000 C 
ENDBRANCH  10  13
BRANCH   5  16
ATOM     16  O   UNL     1       5.098   4.338  18.867  0.00  0.00    +0.000 OA
ATOM     17  H   UNL     1       4.682   3.819  19.578  0.00  0.00    +0.000 HD
ENDBRANCH   5  16
BRANCH  12  18
ATOM     18  O   UNL     1       2.871   4.553  20.387  0.00  0.00    +0.000 OA
ATOM     19  H   UNL     1       3.572   3.865  20.348  0.00  0.00    +0.000 HD
ENDBRANCH  12  18
TORSDOF 3
ENDMDL
MODEL 2
REMARK VINA RESULT:      -6.8      1.481      4.037
REMARK  Name = 
REMARK  6 active torsions:
REMARK  status: ('A' for Active; 'I' for Inactive)
REMARK    1  A    between atoms: C_5  and  O_6
REMARK    2  A    between atoms: C_7  and  C_8
REMARK    3  A    between atoms: C_11  and  C_12
REMARK    4  A    between atoms: C_12  and  C_13
REMARK    5  A    between atoms: C_12  and  C_14
REMARK    6  A    between atoms: C_16  and  O_17
REMARK                            x       y       z     vdW  Elec       q    Type
REMARK                         _______ _______ _______ _____ _____    ______ ____
ROOT
ATOM      1  C   UNL     1       4.479   1.843  20.506  0.00  0.00    +0.000 C 
ATOM      2  C   UNL     1       3.770   2.732  19.795  0.00  0.00    +0.000 C 
ATOM      3  C   UNL     1       2.629   3.494  20.407  0.00  0.00    +0.000 C 
ATOM      4  C   UNL     1       2.768   4.995  20.161  0.00  0.00    +0.000 C 
ATOM      5  C   UNL     1       3.068   5.371  18.692  0.00  0.00    +0.000 C 
ATOM      6  C   UNL     1       3.328   6.900  18.578  0.00  0.00    +0.000 C 
ATOM      7  C   UNL     1       2.144   7.760  19.035  0.00  0.00    +0.000 C 
ATOM      8  C   UNL     1       3.711   7.313  17.152  0.00  0.00    +0.000 C 
ATOM      9  C   UNL     1       4.867   6.489  16.606  0.00  0.00    +0.000 C 
ATOM     10  C   UNL     1       4.604   4.967  16.650  0.00  0.00    +0.000 C 
ATOM     11  C   UNL     1       4.294   4.560  18.137  0.00  0.00    +0.000 C 
ATOM     12  C   UNL     1       4.064   3.041  18.341  0.00  0.00    +0.000 C 
ENDROOT
BRANCH  10  13
ATOM     13  C   UNL     1       5.764   4.169  15.961  0.00  0.00    +0.000 C 
ATOM     14  C   UNL     1       5.739   4.314  14.427  0.00  0.00    +0.000 C 
ATOM     15  C   UNL     1       7.160   4.520  16.481  0.00  0.00    +0.000 C 
ENDBRANCH  10  13
BRANCH   5  16
ATOM     16  O   UNL     1       1.889   5.013  17.947  0.00  0.00    +0.000 OA
ATOM     17  H   UNL     1       1.487   5.822  17.582  0.00  0.00    +0.000 HD
ENDBRANCH   5  16
BRANCH  12  18
ATOM     18  O   UNL     1       2.983   2.573  17.541  0.00  0.00    +0.000 OA
ATOM     19  H   UNL     1       3.209   2.804  16.614  0.00  0.00    +0.000 HD
ENDBRANCH  12  18
TORSDOF 3
ENDMDL
MODEL 3
REMARK VINA RESULT:      -6.6      1.607      3.943
REMARK  Name = 
REMARK  6 active torsions:
REMARK  status: ('A' for Active; 'I' for Inactive)
REMARK    1  A    between atoms: C_5  and  O_6
REMARK    2  A    between atoms: C_7  and  C_8
REMARK    3  A    between atoms: C_11  and  C_12
REMARK    4  A    between atoms: C_12  and  C_13
REMARK    5  A    between atoms: C_12  and  C_14
REMARK    6  A    between atoms: C_16  and  O_17
REMARK                            x       y       z     vdW  Elec       q    Type
REMARK                         _______ _______ _______ _____ _____    ______ ____
ROOT
ATOM      1  C   UNL     1       7.709   7.092  17.876  0.00  0.00    +0.000 C 
ATOM      2  C   UNL     1       6.691   6.330  17.452  0.00  0.00    +0.000 C 
ATOM      3  C   UNL     1       6.911   4.922  16.974  0.00  0.00    +0.000 C 
ATOM      4  C   UNL     1       5.968   3.944  17.672  0.00  0.00    +0.000 C 
ATOM      5  C   UNL     1       4.488   4.389  17.680  0.00  0.00    +0.000 C 
ATOM      6  C   UNL     1       3.641   3.400  18.531  0.00  0.00    +0.000 C 
ATOM      7  C   UNL     1       3.680   1.956  18.014  0.00  0.00    +0.000 C 
ATOM      8  C   UNL     1       2.176   3.840  18.638  0.00  0.00    +0.000 C 
ATOM      9  C   UNL     1       2.043   5.277  19.121  0.00  0.00    +0.000 C 
ATOM     10  C   UNL     1       2.825   6.287  18.250  0.00  0.00    +0.000 C 
ATOM     11  C   UNL     1       4.336   5.854  18.225  0.00  0.00    +0.000 C 
ATOM     12  C   UNL     1       5.255   6.815  17.431  0.00  0.00    +0.000 C 
ENDROOT
BRANCH  10  13
ATOM     13  C   UNL     1       2.553   7.761  18.708  0.00  0.00    +0.000 C 
ATOM     14  C   UNL     1       1.763   8.561  17.655  0.00  0.00    +0.000 C 
ATOM     15  C   UNL     1       1.854   7.877  20.064  0.00  0.00    +0.000 C 
ENDBRANCH  10  13
BRANCH   5  16
ATOM     16  O   UNL     1       4.059   4.350  16.306  0.00  0.00    +0.000 OA
ATOM     17  H   UNL     1       4.768   3.961  15.764  0.00  0.00    +0.000 HD
ENDBRANCH   5  16
BRANCH  12  18
ATOM     18  O   UNL     1       4.828   6.933  16.077  0.00  0.00    +0.000 OA
ATOM     19  H   UNL     1       4.031   7.507  16.092  0.00  0.00    +0.000 HD
ENDBRANCH  12  18
TORSDOF 3
ENDMDL
MODEL 4
REMARK VINA RESULT:      -6.6      1.419      4.720
REMARK  Name = 
REMARK  6 active torsions:
REMARK  status: ('A' for Active; 'I' for Inactive)
REMARK    1  A    between atoms: C_5  and  O_6
REMARK    2  A    between atoms: C_7  and  C_8
REMARK    3  A    between atoms: C_11  and  C_12
REMARK    4  A    between atoms: C_12  and  C_13
REMARK    5  A    between atoms: C_12  and  C_14
REMARK    6  A    between atoms: C_16  and  O_17
REMARK                            x       y       z     vdW  Elec       q    Type
REMARK                         _______ _______ _______ _____ _____    ______ ____
ROOT
ATOM      1  C   UNL     1       6.008   3.964  14.245  0.00  0.00    +0.000 C 
ATOM      2  C   UNL     1       5.737   4.583  15.404  0.00  0.00    +0.000 C 
ATOM      3  C   UNL     1       5.969   6.058  15.578  0.00  0.00    +0.000 C 
ATOM      4  C   UNL     1       4.729   6.753  16.134  0.00  0.00    +0.000 C 
ATOM      5  C   UNL     1       4.111   6.057  17.367  0.00  0.00    +0.000 C 
ATOM      6  C   UNL     1       2.783   6.761  17.766  0.00  0.00    +0.000 C 
ATOM      7  C   UNL     1       2.955   8.244  18.118  0.00  0.00    +0.000 C 
ATOM      8  C   UNL     1       2.087   6.059  18.937  0.00  0.00    +0.000 C 
ATOM      9  C   UNL     1       1.898   4.571  18.682  0.00  0.00    +0.000 C 
ATOM     10  C   UNL     1       3.216   3.837  18.349  0.00  0.00    +0.000 C 
ATOM     11  C   UNL     1       3.866   4.530  17.095  0.00  0.00    +0.000 C 
ATOM     12  C   UNL     1       5.174   3.858  16.610  0.00  0.00    +0.000 C 
ENDROOT
BRANCH  10  13
ATOM     13  C   UNL     1       2.990   2.291  18.223  0.00  0.00    +0.000 C 
ATOM     14  C   UNL     1       3.991   1.485  19.073  0.00  0.00    +0.000 C 
ATOM     15  C   UNL     1       1.566   1.837  18.550  0.00  0.00    +0.000 C 
ENDBRANCH  10  13
BRANCH   5  16
ATOM     16  O   UNL     1       5.080   6.198  18.424  0.00  0.00    +0.000 OA
ATOM     17  H   UNL     1       4.785   5.682  19.195  0.00  0.00    +0.000 HD
ENDBRANCH   5  16
BRANCH  12  18
ATOM     18  O   UNL     1       6.157   3.844  17.640  0.00  0.00    +0.000 OA
ATOM     19  H   UNL     1       6.072   2.974  18.087  0.00  0.00    +0.000 HD
ENDBRANCH  12  18
TORSDOF 3
ENDMDL
MODEL 5
REMARK VINA RESULT:      -6.3      2.438      4.596
REMARK  Name = 
REMARK  6 active torsions:
REMARK  status: ('A' for Active; 'I' for Inactive)
REMARK    1  A    between atoms: C_5  and  O_6
REMARK    2  A    between atoms: C_7  and  C_8
REMARK    3  A    between atoms: C_11  and  C_12
REMARK    4  A    between atoms: C_12  and  C_13
REMARK    5  A    between atoms: C_12  and  C_14
REMARK    6  A    between atoms: C_16  and  O_17
REMARK                            x       y       z     vdW  Elec       q    Type
REMARK                         _______ _______ _______ _____ _____    ______ ____
ROOT
ATOM      1  C   UNL     1       5.304   4.062  12.770  0.00  0.00    +0.000 C 
ATOM      2  C   UNL     1       5.818   4.084  14.008  0.00  0.00    +0.000 C 
ATOM      3  C   UNL     1       7.181   4.656  14.281  0.00  0.00    +0.000 C 
ATOM      4  C   UNL     1       7.139   5.673  15.418  0.00  0.00    +0.000 C 
ATOM      5  C   UNL     1       6.391   5.184  16.679  0.00  0.00    +0.000 C 
ATOM      6  C   UNL     1       6.286   6.338  17.717  0.00  0.00    +0.000 C 
ATOM      7  C   UNL     1       7.647   6.878  18.175  0.00  0.00    +0.000 C 
ATOM      8  C   UNL     1       5.481   5.927  18.955  0.00  0.00    +0.000 C 
ATOM      9  C   UNL     1       4.120   5.353  18.590  0.00  0.00    +0.000 C 
ATOM     10  C   UNL     1       4.205   4.162  17.610  0.00  0.00    +0.000 C 
ATOM     11  C   UNL     1       4.964   4.636  16.317  0.00  0.00    +0.000 C 
ATOM     12  C   UNL     1       5.073   3.552  15.216  0.00  0.00    +0.000 C 
ENDROOT
BRANCH  10  13
ATOM     13  C   UNL     1       2.793   3.525  17.366  0.00  0.00    +0.000 C 
ATOM     14  C   UNL     1       2.669   2.126  18.000  0.00  0.00    +0.000 C 
ATOM     15  C   UNL     1       1.624   4.397  17.829  0.00  0.00    +0.000 C 
ENDBRANCH  10  13
BRANCH   5  16
ATOM     16  O   UNL     1       7.187   4.109  17.215  0.00  0.00    +0.000 OA
ATOM     17  H   UNL     1       7.793   4.469  17.887  0.00  0.00    +0.000 HD
ENDBRANCH   5  16
BRANCH  12  18
ATOM     18  O   UNL     1       5.746   2.394  15.700  0.00  0.00    +0.000 OA
ATOM     19  H   UNL     1       5.244   2.096  16.489  0.00  0.00    +0.000 HD
ENDBRANCH  12  18
TORSDOF 3
ENDMDL
MODEL 6
REMARK VINA RESULT:      -6.2      1.353      4.424
REMARK  Name = 
REMARK  6 active torsions:
REMARK  status: ('A' for Active; 'I' for Inactive)
REMARK    1  A    between atoms: C_5  and  O_6
REMARK    2  A    between atoms: C_7  and  C_8
REMARK    3  A    between atoms: C_11  and  C_12
REMARK    4  A    between atoms: C_12  and  C_13
REMARK    5  A    between atoms: C_12  and  C_14
REMARK    6  A    between atoms: C_16  and  O_17
REMARK                            x       y       z     vdW  Elec       q    Type
REMARK                         _______ _______ _______ _____ _____    ______ ____
ROOT
ATOM      1  C   UNL     1       5.853   3.387  15.162  0.00  0.00    +0.000 C 
ATOM      2  C   UNL     1       5.635   4.290  16.129  0.00  0.00    +0.000 C 
ATOM      3  C   UNL     1       5.804   5.762  15.879  0.00  0.00    +0.000 C 
ATOM      4  C   UNL     1       4.573   6.547  16.326  0.00  0.00    +0.000 C 
ATOM      5  C   UNL     1       4.080   6.196  17.748  0.00  0.00    +0.000 C 
ATOM      6  C   UNL     1       2.750   6.943  18.049  0.00  0.00    +0.000 C 
ATOM      7  C   UNL     1       2.871   8.470  17.973  0.00  0.00    +0.000 C 
ATOM      8  C   UNL     1       2.175   6.566  19.419  0.00  0.00    +0.000 C 
ATOM      9  C   UNL     1       2.043   5.060  19.592  0.00  0.00    +0.000 C 
ATOM     10  C   UNL     1       3.370   4.303  19.362  0.00  0.00    +0.000 C 
ATOM     11  C   UNL     1       3.893   4.645  17.919  0.00  0.00    +0.000 C 
ATOM     12  C   UNL     1       5.196   3.905  17.527  0.00  0.00    +0.000 C 
ENDROOT
BRANCH  10  13
ATOM     13  C   UNL     1       3.214   2.775  19.677  0.00  0.00    +0.000 C 
ATOM     14  C   UNL     1       2.849   2.519  21.152  0.00  0.00    +0.000 C 
ATOM     15  C   UNL     1       2.215   2.048  18.773  0.00  0.00    +0.000 C 
ENDBRANCH  10  13
BRANCH   5  16
ATOM     16  O   UNL     1       5.113   6.647  18.644  0.00  0.00    +0.000 OA
ATOM     17  H   UNL     1       5.981   6.493  18.230  0.00  0.00    +0.000 HD
ENDBRANCH   5  16
BRANCH  12  18
ATOM     18  O   UNL     1       6.249   4.201  18.439  0.00  0.00    +0.000 OA
ATOM     19  H   UNL     1       6.746   3.364  18.564  0.00  0.00    +0.000 HD
ENDBRANCH  12  18
TORSDOF 3
ENDMDL
MODEL 7
REMARK VINA RESULT:      -6.1      2.203      3.526
REMARK  Name = 
REMARK  6 active torsions:
REMARK  status: ('A' for Active; 'I' for Inactive)
REMARK    1  A    between atoms: C_5  and  O_6
REMARK    2  A    between atoms: C_7  and  C_8
REMARK    3  A    between atoms: C_11  and  C_12
REMARK    4  A    between atoms: C_12  and  C_13
REMARK    5  A    between atoms: C_12  and  C_14
REMARK    6  A    between atoms: C_16  and  O_17
REMARK                            x       y       z     vdW  Elec       q    Type
REMARK                         _______ _______ _______ _____ _____    ______ ____
ROOT
ATOM      1  C   UNL     1       2.401   4.861  19.652  0.00  0.00    +0.000 C 
ATOM      2  C   UNL     1       3.284   4.320  18.799  0.00  0.00    +0.000 C 
ATOM      3  C   UNL     1       2.839   3.450  17.658  0.00  0.00    +0.000 C 
ATOM      4  C   UNL     1       3.443   3.915  16.336  0.00  0.00    +0.000 C 
ATOM      5  C   UNL     1       4.968   4.164  16.388  0.00  0.00    +0.000 C 
ATOM      6  C   UNL     1       5.455   4.765  15.039  0.00  0.00    +0.000 C 
ATOM      7  C   UNL     1       5.183   3.861  13.830  0.00  0.00    +0.000 C 
ATOM      8  C   UNL     1       6.949   5.106  15.067  0.00  0.00    +0.000 C 
ATOM      9  C   UNL     1       7.315   5.983  16.256  0.00  0.00    +0.000 C 
ATOM     10  C   UNL     1       6.899   5.374  17.613  0.00  0.00    +0.000 C 
ATOM     11  C   UNL     1       5.349   5.110  17.583  0.00  0.00    +0.000 C 
ATOM     12  C   UNL     1       4.777   4.550  18.909  0.00  0.00    +0.000 C 
ENDROOT
BRANCH  10  13
ATOM     13  C   UNL     1       7.410   6.249  18.809  0.00  0.00    +0.000 C 
ATOM     14  C   UNL     1       8.278   5.440  19.792  0.00  0.00    +0.000 C 
ATOM     15  C   UNL     1       8.164   7.511  18.385  0.00  0.00    +0.000 C 
ENDBRANCH  10  13
BRANCH   5  16
ATOM     16  O   UNL     1       5.569   2.873  16.600  0.00  0.00    +0.000 OA
ATOM     17  H   UNL     1       6.327   2.774  15.997  0.00  0.00    +0.000 HD
ENDBRANCH   5  16
BRANCH  12  18
ATOM     18  O   UNL     1       5.408   3.322  19.262  0.00  0.00    +0.000 OA
ATOM     19  H   UNL     1       6.029   3.114  18.530  0.00  0.00    +0.000 HD
ENDBRANCH  12  18
TORSDOF 3
ENDMDL
MODEL 8
REMARK VINA RESULT:      -6.1      1.200      4.867
REMARK  Name = 
REMARK  6 active torsions:
REMARK  status: ('A' for Active; 'I' for Inactive)
REMARK    1  A    between atoms: C_5  and  O_6
REMARK    2  A    between atoms: C_7  and  C_8
REMARK    3  A    between atoms: C_11  and  C_12
REMARK    4  A    between atoms: C_12  and  C_13
REMARK    5  A    between atoms: C_12  and  C_14
REMARK    6  A    between atoms: C_16  and  O_17
REMARK                            x       y       z     vdW  Elec       q    Type
REMARK                         _______ _______ _______ _____ _____    ______ ____
ROOT
ATOM      1  C   UNL     1       5.416   5.041  14.922  0.00  0.00    +0.000 C 
ATOM      2  C   UNL     1       5.151   5.280  16.215  0.00  0.00    +0.000 C 
ATOM      3  C   UNL     1       5.294   6.655  16.803  0.00  0.00    +0.000 C 
ATOM      4  C   UNL     1       4.034   7.070  17.559  0.00  0.00    +0.000 C 
ATOM      5  C   UNL     1       3.510   6.005  18.550  0.00  0.00    +0.000 C 
ATOM      6  C   UNL     1       2.156   6.466  19.160  0.00  0.00    +0.000 C 
ATOM      7  C   UNL     1       2.245   7.794  19.923  0.00  0.00    +0.000 C 
ATOM      8  C   UNL     1       1.553   5.407  20.090  0.00  0.00    +0.000 C 
ATOM      9  C   UNL     1       1.451   4.045  19.420  0.00  0.00    +0.000 C 
ATOM     10  C   UNL     1       2.800   3.537  18.865  0.00  0.00    +0.000 C 
ATOM     11  C   UNL     1       3.354   4.606  17.853  0.00  0.00    +0.000 C 
ATOM     12  C   UNL     1       4.684   4.200  17.170  0.00  0.00    +0.000 C 
ENDROOT
BRANCH  10  13
ATOM     13  C   UNL     1       2.670   2.080  18.301  0.00  0.00    +0.000 C 
ATOM     14  C   UNL     1       3.804   1.162  18.796  0.00  0.00    +0.000 C 
ATOM     15  C   UNL     1       1.320   1.418  18.583  0.00  0.00    +0.000 C 
ENDBRANCH  10  13
BRANCH   5  16
ATOM     16  O   UNL     1       4.509   5.907  19.584  0.00  0.00    +0.000 OA
ATOM     17  H   UNL     1       4.642   4.969  19.807  0.00  0.00    +0.000 HD
ENDBRANCH   5  16
BRANCH  12  18
ATOM     18  O   UNL     1       5.705   3.963  18.134  0.00  0.00    +0.000 OA
ATOM     19  H   UNL     1       5.445   4.466  18.936  0.00  0.00    +0.000 HD
ENDBRANCH  12  18
TORSDOF 3
ENDMDL
MODEL 9
REMARK VINA RESULT:      -6.1      1.462      4.691
REMARK  Name = 
REMARK  6 active torsions:
REMARK  status: ('A' for Active; 'I' for Inactive)
REMARK    1  A    between atoms: C_5  and  O_6
REMARK    2  A    between atoms: C_7  and  C_8
REMARK    3  A    between atoms: C_11  and  C_12
REMARK    4  A    between atoms: C_12  and  C_13
REMARK    5  A    between atoms: C_12  and  C_14
REMARK    6  A    between atoms: C_16  and  O_17
REMARK                            x       y       z     vdW  Elec       q    Type
REMARK                         _______ _______ _______ _____ _____    ______ ____
ROOT
ATOM      1  C   UNL     1       6.017   3.636  15.013  0.00  0.00    +0.000 C 
ATOM      2  C   UNL     1       5.729   4.441  16.046  0.00  0.00    +0.000 C 
ATOM      3  C   UNL     1       5.786   5.937  15.914  0.00  0.00    +0.000 C 
ATOM      4  C   UNL     1       4.498   6.588  16.413  0.00  0.00    +0.000 C 
ATOM      5  C   UNL     1       4.032   6.090  17.800  0.00  0.00    +0.000 C 
ATOM      6  C   UNL     1       2.649   6.708  18.149  0.00  0.00    +0.000 C 
ATOM      7  C   UNL     1       2.654   8.241  18.194  0.00  0.00    +0.000 C 
ATOM      8  C   UNL     1       2.103   6.182  19.481  0.00  0.00    +0.000 C 
ATOM      9  C   UNL     1       2.086   4.661  19.535  0.00  0.00    +0.000 C 
ATOM     10  C   UNL     1       3.467   4.027  19.255  0.00  0.00    +0.000 C 
ATOM     11  C   UNL     1       3.964   4.521  17.847  0.00  0.00    +0.000 C 
ATOM     12  C   UNL     1       5.320   3.915  17.407  0.00  0.00    +0.000 C 
ENDROOT
BRANCH  10  13
ATOM     13  C   UNL     1       3.428   2.472  19.448  0.00  0.00    +0.000 C 
ATOM     14  C   UNL     1       3.298   1.722  18.108  0.00  0.00    +0.000 C 
ATOM     15  C   UNL     1       4.614   1.908  20.233  0.00  0.00    +0.000 C 
ENDBRANCH  10  13
BRANCH   5  16
ATOM     16  O   UNL     1       5.027   6.547  18.735  0.00  0.00    +0.000 OA
ATOM     17  H   UNL     1       4.909   6.076  19.579  0.00  0.00    +0.000 HD
ENDBRANCH   5  16
BRANCH  12  18
ATOM     18  O   UNL     1       6.347   4.218  18.347  0.00  0.00    +0.000 OA
ATOM     19  H   UNL     1       7.101   3.629  18.126  0.00  0.00    +0.000 HD
ENDBRANCH  12  18
TORSDOF 3
ENDMDL
