MODEL 1
REMARK VINA RESULT:      -6.7      0.000      0.000
REMARK  Name = 
REMARK  4 active torsions:
REMARK  status: ('A' for Active; 'I' for Inactive)
REMARK    1  A    between atoms: N_2  and  C_4
REMARK    2  A    between atoms: C_7  and  C_8
REMARK    3  A    between atoms: C_8  and  C_9
REMARK    4  A    between atoms: C_9  and  N_10
REMARK                            x       y       z     vdW  Elec       q    Type
REMARK                         _______ _______ _______ _____ _____    ______ ____
ROOT
ATOM      1  C   UNL     1       5.901   4.968  16.675  0.00  0.00    +0.000 A 
ATOM      2  C   UNL     1       5.021   3.881  16.635  0.00  0.00    +0.000 A 
ATOM      3  C   UNL     1       3.747   4.003  17.194  0.00  0.00    +0.000 A 
ATOM      4  C   UNL     1       3.347   5.200  17.807  0.00  0.00    +0.000 A 
ATOM      5  C   UNL     1       4.238   6.284  17.834  0.00  0.00    +0.000 A 
ATOM      6  C   UNL     1       5.512   6.175  17.271  0.00  0.00    +0.000 A 
ENDROOT
BRANCH   1   8
ATOM      7  O   UNL     1       8.102   4.238  16.738  0.00  0.00    +0.000 OA
ATOM      8  N   UNL     1       7.238   4.845  16.087  0.00  0.00    +0.000 N 
ATOM      9  O   UNL     1       7.427   5.352  14.972  0.00  0.00    +0.000 OA
ENDBRANCH   1   8
BRANCH   4  10
ATOM     10  C   UNL     1       1.962   5.335  18.408  0.00  0.00    +0.000 C 
BRANCH  10  11
ATOM     11  C   UNL     1       1.976   5.412  19.947  0.00  0.00    +0.000 C 
BRANCH  11  12
ATOM     12  N   UNL     1       1.238   4.322  20.622  0.00  0.00    +0.000 NA
ATOM     13  C   UNL     1       2.030   3.596  21.626  0.00  0.00    +0.000 C 
ATOM     14  C   UNL     1       2.873   2.630  20.820  0.00  0.00    +0.000 C 
ATOM     15  C   UNL     1       1.906   2.167  19.744  0.00  0.00    +0.000 C 
ATOM     16  C   UNL     1       0.862   3.279  19.641  0.00  0.00    +0.000 C 
ENDBRANCH  11  12
ENDBRANCH  10  11
ENDBRANCH   4  10
TORSDOF 4
ENDMDL
MODEL 2
REMARK VINA RESULT:      -6.7      0.903      1.319
REMARK  Name = 
REMARK  4 active torsions:
REMARK  status: ('A' for Active; 'I' for Inactive)
REMARK    1  A    between atoms: N_2  and  C_4
REMARK    2  A    between atoms: C_7  and  C_8
REMARK    3  A    between atoms: C_8  and  C_9
REMARK    4  A    between atoms: C_9  and  N_10
REMARK                            x       y       z     vdW  Elec       q    Type
REMARK                         _______ _______ _______ _____ _____    ______ ____
ROOT
ATOM      1  C   UNL     1       5.763   5.064  17.020  0.00  0.00    +0.000 A 
ATOM      2  C   UNL     1       5.139   3.864  16.663  0.00  0.00    +0.000 A 
ATOM      3  C   UNL     1       3.775   3.696  16.914  0.00  0.00    +0.000 A 
ATOM      4  C   UNL     1       3.029   4.712  17.530  0.00  0.00    +0.000 A 
ATOM      5  C   UNL     1       3.669   5.913  17.876  0.00  0.00    +0.000 A 
ATOM      6  C   UNL     1       5.031   6.095  17.623  0.00  0.00    +0.000 A 
ENDROOT
BRANCH   1   8
ATOM      7  O   UNL     1       7.988   4.476  17.319  0.00  0.00    +0.000 OA
ATOM      8  N   UNL     1       7.194   5.246  16.758  0.00  0.00    +0.000 N 
ATOM      9  O   UNL     1       7.528   6.158  15.987  0.00  0.00    +0.000 OA
ENDBRANCH   1   8
BRANCH   4  10
ATOM     10  C   UNL     1       1.548   4.532  17.794  0.00  0.00    +0.000 C 
BRANCH  10  11
ATOM     11  C   UNL     1       1.233   3.291  18.653  0.00  0.00    +0.000 C 
BRANCH  11  12
ATOM     12  N   UNL     1       0.718   3.595  20.005  0.00  0.00    +0.000 NA
ATOM     13  C   UNL     1       1.218   4.861  20.564  0.00  0.00    +0.000 C 
ATOM     14  C   UNL     1       2.602   4.527  21.082  0.00  0.00    +0.000 C 
ATOM     15  C   UNL     1       2.406   3.146  21.682  0.00  0.00    +0.000 C 
ATOM     16  C   UNL     1       1.183   2.572  20.968  0.00  0.00    +0.000 C 
ENDBRANCH  11  12
ENDBRANCH  10  11
ENDBRANCH   4  10
TORSDOF 4
ENDMDL
MODEL 3
REMARK VINA RESULT:      -6.5      1.620      2.243
REMARK  Name = 
REMARK  4 active torsions:
REMARK  status: ('A' for Active; 'I' for Inactive)
REMARK    1  A    between atoms: N_2  and  C_4
REMARK    2  A    between atoms: C_7  and  C_8
REMARK    3  A    between atoms: C_8  and  C_9
REMARK    4  A    between atoms: C_9  and  N_10
REMARK                            x       y       z     vdW  Elec       q    Type
REMARK                         _______ _______ _______ _____ _____    ______ ____
ROOT
ATOM      1  C   UNL     1       6.463   5.037  15.444  0.00  0.00    +0.000 A 
ATOM      2  C   UNL     1       5.229   5.683  15.572  0.00  0.00    +0.000 A 
ATOM      3  C   UNL     1       4.631   5.785  16.830  0.00  0.00    +0.000 A 
ATOM      4  C   UNL     1       5.249   5.235  17.963  0.00  0.00    +0.000 A 
ATOM      5  C   UNL     1       6.491   4.596  17.820  0.00  0.00    +0.000 A 
ATOM      6  C   UNL     1       7.102   4.495  16.568  0.00  0.00    +0.000 A 
ENDROOT
BRANCH   1   8
ATOM      7  O   UNL     1       6.596   4.143  13.307  0.00  0.00    +0.000 OA
ATOM      8  N   UNL     1       7.096   4.929  14.127  0.00  0.00    +0.000 N 
ATOM      9  O   UNL     1       8.093   5.632  13.906  0.00  0.00    +0.000 OA
ENDBRANCH   1   8
BRANCH   4  10
ATOM     10  C   UNL     1       4.604   5.352  19.330  0.00  0.00    +0.000 C 
BRANCH  10  11
ATOM     11  C   UNL     1       3.082   5.105  19.303  0.00  0.00    +0.000 C 
BRANCH  11  12
ATOM     12  N   UNL     1       2.695   3.681  19.200  0.00  0.00    +0.000 NA
ATOM     13  C   UNL     1       1.272   3.428  19.476  0.00  0.00    +0.000 C 
ATOM     14  C   UNL     1       1.172   3.426  20.988  0.00  0.00    +0.000 C 
ATOM     15  C   UNL     1       2.442   2.705  21.402  0.00  0.00    +0.000 C 
ATOM     16  C   UNL     1       3.405   2.886  20.228  0.00  0.00    +0.000 C 
ENDBRANCH  11  12
ENDBRANCH  10  11
ENDBRANCH   4  10
TORSDOF 4
ENDMDL
MODEL 4
REMARK VINA RESULT:      -6.5      1.270      1.604
REMARK  Name = 
REMARK  4 active torsions:
REMARK  status: ('A' for Active; 'I' for Inactive)
REMARK    1  A    between atoms: N_2  and  C_4
REMARK    2  A    between atoms: C_7  and  C_8
REMARK    3  A    between atoms: C_8  and  C_9
REMARK    4  A    between atoms: C_9  and  N_10
REMARK                            x       y       z     vdW  Elec       q    Type
REMARK                         _______ _______ _______ _____ _____    ______ ____
ROOT
ATOM      1  C   UNL     1       6.018   5.775  17.516  0.00  0.00    +0.000 A 
ATOM      2  C   UNL     1       5.011   6.560  16.944  0.00  0.00    +0.000 A 
ATOM      3  C   UNL     1       3.782   6.687  17.596  0.00  0.00    +0.000 A 
ATOM      4  C   UNL     1       3.544   6.027  18.810  0.00  0.00    +0.000 A 
ATOM      5  C   UNL     1       4.567   5.249  19.375  0.00  0.00    +0.000 A 
ATOM      6  C   UNL     1       5.802   5.120  18.736  0.00  0.00    +0.000 A 
ENDROOT
BRANCH   1   8
ATOM      7  O   UNL     1       7.782   6.647  16.286  0.00  0.00    +0.000 OA
ATOM      8  N   UNL     1       7.310   5.640  16.837  0.00  0.00    +0.000 N 
ATOM      9  O   UNL     1       7.858   4.529  16.854  0.00  0.00    +0.000 OA
ENDBRANCH   1   8
BRANCH   4  10
ATOM     10  C   UNL     1       2.213   6.171  19.521  0.00  0.00    +0.000 C 
BRANCH  10  11
ATOM     11  C   UNL     1       2.093   5.271  20.767  0.00  0.00    +0.000 C 
BRANCH  11  12
ATOM     12  N   UNL     1       1.149   4.143  20.619  0.00  0.00    +0.000 NA
ATOM     13  C   UNL     1       1.546   2.930  21.351  0.00  0.00    +0.000 C 
ATOM     14  C   UNL     1       2.588   2.276  20.467  0.00  0.00    +0.000 C 
ATOM     15  C   UNL     1       2.024   2.494  19.075  0.00  0.00    +0.000 C 
ATOM     16  C   UNL     1       1.098   3.704  19.205  0.00  0.00    +0.000 C 
ENDBRANCH  11  12
ENDBRANCH  10  11
ENDBRANCH   4  10
TORSDOF 4
ENDMDL
MODEL 5
REMARK VINA RESULT:      -6.4      1.467      2.035
REMARK  Name = 
REMARK  4 active torsions:
REMARK  status: ('A' for Active; 'I' for Inactive)
REMARK    1  A    between atoms: N_2  and  C_4
REMARK    2  A    between atoms: C_7  and  C_8
REMARK    3  A    between atoms: C_8  and  C_9
REMARK    4  A    between atoms: C_9  and  N_10
REMARK                            x       y       z     vdW  Elec       q    Type
REMARK                         _______ _______ _______ _____ _____    ______ ____
ROOT
ATOM      1  C   UNL     1       6.342   4.805  15.699  0.00  0.00    +0.000 A 
ATOM      2  C   UNL     1       7.152   4.885  16.836  0.00  0.00    +0.000 A 
ATOM      3  C   UNL     1       6.562   4.989  18.098  0.00  0.00    +0.000 A 
ATOM      4  C   UNL     1       5.166   5.026  18.234  0.00  0.00    +0.000 A 
ATOM      5  C   UNL     1       4.366   4.938  17.084  0.00  0.00    +0.000 A 
ATOM      6  C   UNL     1       4.946   4.826  15.818  0.00  0.00    +0.000 A 
ENDROOT
BRANCH   1   8
ATOM      7  O   UNL     1       6.500   3.844  13.593  0.00  0.00    +0.000 OA
ATOM      8  N   UNL     1       6.956   4.694  14.373  0.00  0.00    +0.000 N 
ATOM      9  O   UNL     1       7.895   5.458  14.106  0.00  0.00    +0.000 OA
ENDBRANCH   1   8
BRANCH   4  10
ATOM     10  C   UNL     1       4.525   5.131  19.603  0.00  0.00    +0.000 C 
BRANCH  10  11
ATOM     11  C   UNL     1       2.988   5.023  19.561  0.00  0.00    +0.000 C 
BRANCH  11  12
ATOM     12  N   UNL     1       2.432   3.884  20.322  0.00  0.00    +0.000 NA
ATOM     13  C   UNL     1       3.029   2.585  19.977  0.00  0.00    +0.000 C 
ATOM     14  C   UNL     1       2.327   2.173  18.699  0.00  0.00    +0.000 C 
ATOM     15  C   UNL     1       0.896   2.609  18.952  0.00  0.00    +0.000 C 
ATOM     16  C   UNL     1       0.996   3.713  20.005  0.00  0.00    +0.000 C 
ENDBRANCH  11  12
ENDBRANCH  10  11
ENDBRANCH   4  10
TORSDOF 4
ENDMDL
MODEL 6
REMARK VINA RESULT:      -6.4      3.375      5.996
REMARK  Name = 
REMARK  4 active torsions:
REMARK  status: ('A' for Active; 'I' for Inactive)
REMARK    1  A    between atoms: N_2  and  C_4
REMARK    2  A    between atoms: C_7  and  C_8
REMARK    3  A    between atoms: C_8  and  C_9
REMARK    4  A    between atoms: C_9  and  N_10
REMARK                            x       y       z     vdW  Elec       q    Type
REMARK                         _______ _______ _______ _____ _____    ______ ____
ROOT
ATOM      1  C   UNL     1       1.852   3.955  19.190  0.00  0.00    +0.000 A 
ATOM      2  C   UNL     1       2.044   5.192  19.816  0.00  0.00    +0.000 A 
ATOM      3  C   UNL     1       2.877   6.143  19.221  0.00  0.00    +0.000 A 
ATOM      4  C   UNL     1       3.531   5.866  18.012  0.00  0.00    +0.000 A 
ATOM      5  C   UNL     1       3.323   4.623  17.393  0.00  0.00    +0.000 A 
ATOM      6  C   UNL     1       2.487   3.668  17.974  0.00  0.00    +0.000 A 
ENDROOT
BRANCH   1   8
ATOM      7  O   UNL     1       0.246   2.286  19.062  0.00  0.00    +0.000 OA
ATOM      8  N   UNL     1       0.978   2.955  19.808  0.00  0.00    +0.000 N 
ATOM      9  O   UNL     1       1.022   2.832  21.041  0.00  0.00    +0.000 OA
ENDBRANCH   1   8
BRANCH   4  10
ATOM     10  C   UNL     1       4.429   6.901  17.363  0.00  0.00    +0.000 C 
BRANCH  10  11
ATOM     11  C   UNL     1       5.128   6.382  16.091  0.00  0.00    +0.000 C 
BRANCH  11  12
ATOM     12  N   UNL     1       6.603   6.485  16.117  0.00  0.00    +0.000 NA
ATOM     13  C   UNL     1       7.295   5.201  15.929  0.00  0.00    +0.000 C 
ATOM     14  C   UNL     1       7.240   4.536  17.289  0.00  0.00    +0.000 C 
ATOM     15  C   UNL     1       7.476   5.700  18.235  0.00  0.00    +0.000 C 
ATOM     16  C   UNL     1       7.057   6.943  17.450  0.00  0.00    +0.000 C 
ENDBRANCH  11  12
ENDBRANCH  10  11
ENDBRANCH   4  10
TORSDOF 4
ENDMDL
MODEL 7
REMARK VINA RESULT:      -6.4      0.565      1.327
REMARK  Name = 
REMARK  4 active torsions:
REMARK  status: ('A' for Active; 'I' for Inactive)
REMARK    1  A    between atoms: N_2  and  C_4
REMARK    2  A    between atoms: C_7  and  C_8
REMARK    3  A    between atoms: C_8  and  C_9
REMARK    4  A    between atoms: C_9  and  N_10
REMARK                            x       y       z     vdW  Elec       q    Type
REMARK                         _______ _______ _______ _____ _____    ______ ____
ROOT
ATOM      1  C   UNL     1       5.837   5.280  16.954  0.00  0.00    +0.000 A 
ATOM      2  C   UNL     1       5.244   6.344  17.641  0.00  0.00    +0.000 A 
ATOM      3  C   UNL     1       3.916   6.239  18.062  0.00  0.00    +0.000 A 
ATOM      4  C   UNL     1       3.169   5.083  17.791  0.00  0.00    +0.000 A 
ATOM      5  C   UNL     1       3.781   4.021  17.107  0.00  0.00    +0.000 A 
ATOM      6  C   UNL     1       5.110   4.112  16.688  0.00  0.00    +0.000 A 
ENDROOT
BRANCH   1   8
ATOM      7  O   UNL     1       7.918   4.351  16.516  0.00  0.00    +0.000 OA
ATOM      8  N   UNL     1       7.231   5.384  16.513  0.00  0.00    +0.000 N 
ATOM      9  O   UNL     1       7.643   6.499  16.158  0.00  0.00    +0.000 OA
ENDBRANCH   1   8
BRANCH   4  10
ATOM     10  C   UNL     1       1.731   4.966  18.254  0.00  0.00    +0.000 C 
BRANCH  10  11
ATOM     11  C   UNL     1       1.571   5.136  19.778  0.00  0.00    +0.000 C 
BRANCH  11  12
ATOM     12  N   UNL     1       1.026   3.951  20.473  0.00  0.00    +0.000 NA
ATOM     13  C   UNL     1       1.906   3.416  21.523  0.00  0.00    +0.000 C 
ATOM     14  C   UNL     1       2.938   2.598  20.774  0.00  0.00    +0.000 C 
ATOM     15  C   UNL     1       2.108   1.930  19.692  0.00  0.00    +0.000 C 
ATOM     16  C   UNL     1       0.880   2.825  19.522  0.00  0.00    +0.000 C 
ENDBRANCH  11  12
ENDBRANCH  10  11
ENDBRANCH   4  10
TORSDOF 4
ENDMDL
MODEL 8
REMARK VINA RESULT:      -6.4      1.601      2.131
REMARK  Name = 
REMARK  4 active torsions:
REMARK  status: ('A' for Active; 'I' for Inactive)
REMARK    1  A    between atoms: N_2  and  C_4
REMARK    2  A    between atoms: C_7  and  C_8
REMARK    3  A    between atoms: C_8  and  C_9
REMARK    4  A    between atoms: C_9  and  N_10
REMARK                            x       y       z     vdW  Elec       q    Type
REMARK                         _______ _______ _______ _____ _____    ______ ____
ROOT
ATOM      1  C   UNL     1       6.549   4.847  15.369  0.00  0.00    +0.000 A 
ATOM      2  C   UNL     1       5.176   5.011  15.579  0.00  0.00    +0.000 A 
ATOM      3  C   UNL     1       4.676   5.036  16.883  0.00  0.00    +0.000 A 
ATOM      4  C   UNL     1       5.535   4.885  17.982  0.00  0.00    +0.000 A 
ATOM      5  C   UNL     1       6.911   4.728  17.755  0.00  0.00    +0.000 A 
ATOM      6  C   UNL     1       7.423   4.709  16.455  0.00  0.00    +0.000 A 
ENDROOT
BRANCH   1   8
ATOM      7  O   UNL     1       6.552   4.044  13.192  0.00  0.00    +0.000 OA
ATOM      8  N   UNL     1       7.078   4.823  14.002  0.00  0.00    +0.000 N 
ATOM      9  O   UNL     1       8.020   5.583  13.734  0.00  0.00    +0.000 OA
ENDBRANCH   1   8
BRANCH   4  10
ATOM     10  C   UNL     1       4.994   4.920  19.397  0.00  0.00    +0.000 C 
BRANCH  10  11
ATOM     11  C   UNL     1       3.873   3.890  19.641  0.00  0.00    +0.000 C 
BRANCH  11  12
ATOM     12  N   UNL     1       2.583   4.477  20.063  0.00  0.00    +0.000 NA
ATOM     13  C   UNL     1       2.109   4.000  21.372  0.00  0.00    +0.000 C 
ATOM     14  C   UNL     1       1.488   2.649  21.082  0.00  0.00    +0.000 C 
ATOM     15  C   UNL     1       0.782   2.887  19.760  0.00  0.00    +0.000 C 
ATOM     16  C   UNL     1       1.510   4.073  19.127  0.00  0.00    +0.000 C 
ENDBRANCH  11  12
ENDBRANCH  10  11
ENDBRANCH   4  10
TORSDOF 4
ENDMDL
MODEL 9
REMARK VINA RESULT:      -6.4      1.768      2.321
REMARK  Name = 
REMARK  4 active torsions:
REMARK  status: ('A' for Active; 'I' for Inactive)
REMARK    1  A    between atoms: N_2  and  C_4
REMARK    2  A    between atoms: C_7  and  C_8
REMARK    3  A    between atoms: C_8  and  C_9
REMARK    4  A    between atoms: C_9  and  N_10
REMARK                            x       y       z     vdW  Elec       q    Type
REMARK                         _______ _______ _______ _____ _____    ______ ____
ROOT
ATOM      1  C   UNL     1       6.418   6.076  17.775  0.00  0.00    +0.000 A 
ATOM      2  C   UNL     1       6.150   5.198  18.831  0.00  0.00    +0.000 A 
ATOM      3  C   UNL     1       5.071   4.316  18.738  0.00  0.00    +0.000 A 
ATOM      4  C   UNL     1       4.246   4.311  17.603  0.00  0.00    +0.000 A 
ATOM      5  C   UNL     1       4.531   5.193  16.549  0.00  0.00    +0.000 A 
ATOM      6  C   UNL     1       5.612   6.075  16.628  0.00  0.00    +0.000 A 
ENDROOT
BRANCH   1   8
ATOM      7  O   UNL     1       7.698   7.827  16.951  0.00  0.00    +0.000 OA
ATOM      8  N   UNL     1       7.550   7.002  17.866  0.00  0.00    +0.000 N 
ATOM      9  O   UNL     1       8.293   6.911  18.854  0.00  0.00    +0.000 OA
ENDBRANCH   1   8
BRANCH   4  10
ATOM     10  C   UNL     1       3.080   3.349  17.499  0.00  0.00    +0.000 C 
BRANCH  10  11
ATOM     11  C   UNL     1       1.759   3.941  18.029  0.00  0.00    +0.000 C 
BRANCH  11  12
ATOM     12  N   UNL     1       1.133   3.162  19.119  0.00  0.00    +0.000 NA
ATOM     13  C   UNL     1       0.767   3.967  20.295  0.00  0.00    +0.000 C 
ATOM     14  C   UNL     1       2.064   4.137  21.058  0.00  0.00    +0.000 C 
ATOM     15  C   UNL     1       2.715   2.773  20.910  0.00  0.00    +0.000 C 
ATOM     16  C   UNL     1       2.093   2.169  19.652  0.00  0.00    +0.000 C 
ENDBRANCH  11  12
ENDBRANCH  10  11
ENDBRANCH   4  10
TORSDOF 4
ENDMDL
