MODEL 1
REMARK VINA RESULT:      -8.3      0.000      0.000
REMARK  Name = 
REMARK  8 active torsions:
REMARK  status: ('A' for Active; 'I' for Inactive)
REMARK    1  A    between atoms: N_3  and  C_4
REMARK    2  A    between atoms: C_4  and  C_5
REMARK    3  A    between atoms: C_5  and  C_6
REMARK    4  A    between atoms: C_6  and  C_7
REMARK    5  A    between atoms: C_7  and  C_8
REMARK    6  A    between atoms: C_8  and  C_9
REMARK    7  A    between atoms: N_16  and  C_17
REMARK    8  A    between atoms: C_22  and  C_23
REMARK                            x       y       z     vdW  Elec       q    Type
REMARK                         _______ _______ _______ _____ _____    ______ ____
ROOT
ATOM      1  O   UNL     1       8.593   7.357  18.864  0.00  0.00    +0.000 OA
ATOM      2  C   UNL     1       8.044   7.961  17.946  0.00  0.00    +0.000 C 
ATOM      3  N   UNL     1       7.231   7.311  17.042  0.00  0.00    +0.000 N 
ATOM      4  N   UNL     1       8.131   9.313  17.684  0.00  0.00    +0.000 N 
ATOM      5  H   UNL     1       7.202   7.716  16.118  0.00  0.00    +0.000 HD
ATOM      6  H   UNL     1       7.476   9.674  17.005  0.00  0.00    +0.000 HD
ENDROOT
BRANCH   4   7
ATOM      7  C   UNL     1       8.907  10.257  18.397  0.00  0.00    +0.000 A 
ATOM      8  C   UNL     1       9.024  10.252  19.785  0.00  0.00    +0.000 A 
ATOM      9  C   UNL     1       9.731  11.255  20.448  0.00  0.00    +0.000 A 
ATOM     10  C   UNL     1      10.360  12.271  19.732  0.00  0.00    +0.000 A 
ATOM     11 CL   UNL     1      11.149  13.480  20.681  0.00  0.00    +0.000 Cl
ATOM     12  C   UNL     1      10.318  12.279  18.334  0.00  0.00    +0.000 A 
ATOM     13  C   UNL     1       9.585  11.255  17.676  0.00  0.00    +0.000 A 
BRANCH  12  14
ATOM     14  C   UNL     1      11.016  13.316  17.488  0.00  0.00    +0.000 C 
ATOM     15  F   UNL     1      11.017  13.093  16.150  0.00  0.00    +0.000 F 
ATOM     16  F   UNL     1      10.468  14.554  17.649  0.00  0.00    +0.000 F 
ATOM     17  F   UNL     1      12.328  13.456  17.831  0.00  0.00    +0.000 F 
ENDBRANCH  12  14
ENDBRANCH   4   7
BRANCH   3  18
ATOM     18  C   UNL     1       7.080   5.864  17.109  0.00  0.00    +0.000 C 
BRANCH  18  19
ATOM     19  C   UNL     1       5.784   5.492  17.820  0.00  0.00    +0.000 C 
BRANCH  19  20
ATOM     20  C   UNL     1       4.547   5.942  17.041  0.00  0.00    +0.000 C 
BRANCH  20  21
ATOM     21  C   UNL     1       3.536   6.631  17.964  0.00  0.00    +0.000 C 
BRANCH  21  22
ATOM     22  C   UNL     1       2.164   5.955  17.889  0.00  0.00    +0.000 C 
BRANCH  22  23
ATOM     23  C   UNL     1       1.950   4.945  18.993  0.00  0.00    +0.000 A 
ATOM     24  C   UNL     1       2.382   5.226  20.298  0.00  0.00    +0.000 A 
ATOM     25  C   UNL     1       2.186   4.300  21.324  0.00  0.00    +0.000 A 
ATOM     26  C   UNL     1       1.556   3.093  21.048  0.00  0.00    +0.000 A 
ATOM     27  F   UNL     1       1.366   2.206  22.035  0.00  0.00    +0.000 F 
ATOM     28  C   UNL     1       1.127   2.791  19.762  0.00  0.00    +0.000 A 
ATOM     29  C   UNL     1       1.328   3.713  18.732  0.00  0.00    +0.000 A 
ENDBRANCH  22  23
ENDBRANCH  21  22
ENDBRANCH  20  21
ENDBRANCH  19  20
ENDBRANCH  18  19
ENDBRANCH   3  18
TORSDOF 8
ENDMDL
MODEL 2
REMARK VINA RESULT:      -8.1      3.410     11.132
REMARK  Name = 
REMARK  8 active torsions:
REMARK  status: ('A' for Active; 'I' for Inactive)
REMARK    1  A    between atoms: N_3  and  C_4
REMARK    2  A    between atoms: C_4  and  C_5
REMARK    3  A    between atoms: C_5  and  C_6
REMARK    4  A    between atoms: C_6  and  C_7
REMARK    5  A    between atoms: C_7  and  C_8
REMARK    6  A    between atoms: C_8  and  C_9
REMARK    7  A    between atoms: N_16  and  C_17
REMARK    8  A    between atoms: C_22  and  C_23
REMARK                            x       y       z     vdW  Elec       q    Type
REMARK                         _______ _______ _______ _____ _____    ______ ____
ROOT
ATOM      1  O   UNL     1       6.705   5.968  18.698  0.00  0.00    +0.000 OA
ATOM      2  C   UNL     1       6.198   6.529  17.730  0.00  0.00    +0.000 C 
ATOM      3  N   UNL     1       6.826   7.582  17.099  0.00  0.00    +0.000 N 
ATOM      4  N   UNL     1       4.995   6.212  17.134  0.00  0.00    +0.000 N 
ATOM      5  H   UNL     1       6.210   8.254  16.665  0.00  0.00    +0.000 HD
ATOM      6  H   UNL     1       4.816   6.651  16.241  0.00  0.00    +0.000 HD
ENDROOT
BRANCH   4   7
ATOM      7  C   UNL     1       4.090   5.209  17.553  0.00  0.00    +0.000 A 
ATOM      8  C   UNL     1       3.859   4.042  16.830  0.00  0.00    +0.000 A 
ATOM      9  C   UNL     1       2.894   3.122  17.241  0.00  0.00    +0.000 A 
ATOM     10  C   UNL     1       2.158   3.340  18.403  0.00  0.00    +0.000 A 
ATOM     11 CL   UNL     1       0.955   2.152  18.763  0.00  0.00    +0.000 Cl
ATOM     12  C   UNL     1       2.401   4.469  19.192  0.00  0.00    +0.000 A 
ATOM     13  C   UNL     1       3.381   5.400  18.752  0.00  0.00    +0.000 A 
BRANCH  12  14
ATOM     14  C   UNL     1       1.681   4.748  20.488  0.00  0.00    +0.000 C 
ATOM     15  F   UNL     1       1.758   6.019  20.954  0.00  0.00    +0.000 F 
ATOM     16  F   UNL     1       0.348   4.475  20.397  0.00  0.00    +0.000 F 
ATOM     17  F   UNL     1       2.139   3.963  21.506  0.00  0.00    +0.000 F 
ENDBRANCH  12  14
ENDBRANCH   4   7
BRANCH   3  18
ATOM     18  C   UNL     1       8.072   8.113  17.634  0.00  0.00    +0.000 C 
BRANCH  18  19
ATOM     19  C   UNL     1       7.896   9.564  18.068  0.00  0.00    +0.000 C 
BRANCH  19  20
ATOM     20  C   UNL     1       9.227  10.313  18.134  0.00  0.00    +0.000 C 
BRANCH  20  21
ATOM     21  C   UNL     1       9.484  10.856  19.544  0.00  0.00    +0.000 C 
BRANCH  21  22
ATOM     22  C   UNL     1      10.865  11.510  19.645  0.00  0.00    +0.000 C 
BRANCH  22  23
ATOM     23  C   UNL     1      10.988  12.748  18.786  0.00  0.00    +0.000 A 
ATOM     24  C   UNL     1      11.505  12.653  17.484  0.00  0.00    +0.000 A 
ATOM     25  C   UNL     1      11.618  13.791  16.683  0.00  0.00    +0.000 A 
ATOM     26  C   UNL     1      11.216  15.024  17.180  0.00  0.00    +0.000 A 
ATOM     27  F   UNL     1      11.323  16.114  16.409  0.00  0.00    +0.000 F 
ATOM     28  C   UNL     1      10.708  15.142  18.469  0.00  0.00    +0.000 A 
ATOM     29  C   UNL     1      10.599  14.006  19.275  0.00  0.00    +0.000 A 
ENDBRANCH  22  23
ENDBRANCH  21  22
ENDBRANCH  20  21
ENDBRANCH  19  20
ENDBRANCH  18  19
ENDBRANCH   3  18
TORSDOF 8
ENDMDL
MODEL 3
REMARK VINA RESULT:      -8.1      6.241      7.982
REMARK  Name = 
REMARK  8 active torsions:
REMARK  status: ('A' for Active; 'I' for Inactive)
REMARK    1  A    between atoms: N_3  and  C_4
REMARK    2  A    between atoms: C_4  and  C_5
REMARK    3  A    between atoms: C_5  and  C_6
REMARK    4  A    between atoms: C_6  and  C_7
REMARK    5  A    between atoms: C_7  and  C_8
REMARK    6  A    between atoms: C_8  and  C_9
REMARK    7  A    between atoms: N_16  and  C_17
REMARK    8  A    between atoms: C_22  and  C_23
REMARK                            x       y       z     vdW  Elec       q    Type
REMARK                         _______ _______ _______ _____ _____    ______ ____
ROOT
ATOM      1  O   UNL     1       5.812   3.812  19.205  0.00  0.00    +0.000 OA
ATOM      2  C   UNL     1       4.848   3.328  18.617  0.00  0.00    +0.000 C 
ATOM      3  N   UNL     1       3.817   2.722  19.304  0.00  0.00    +0.000 N 
ATOM      4  N   UNL     1       4.636   3.319  17.254  0.00  0.00    +0.000 N 
ATOM      5  H   UNL     1       3.341   1.985  18.806  0.00  0.00    +0.000 HD
ATOM      6  H   UNL     1       3.711   3.046  16.953  0.00  0.00    +0.000 HD
ENDROOT
BRANCH   4   7
ATOM      7  C   UNL     1       5.513   3.826  16.266  0.00  0.00    +0.000 A 
ATOM      8  C   UNL     1       6.556   4.703  16.552  0.00  0.00    +0.000 A 
ATOM      9  C   UNL     1       7.339   5.242  15.532  0.00  0.00    +0.000 A 
ATOM     10  C   UNL     1       7.111   4.893  14.203  0.00  0.00    +0.000 A 
ATOM     11 CL   UNL     1       8.115   5.681  13.037  0.00  0.00    +0.000 Cl
ATOM     12  C   UNL     1       6.113   3.970  13.877  0.00  0.00    +0.000 A 
ATOM     13  C   UNL     1       5.318   3.438  14.929  0.00  0.00    +0.000 A 
BRANCH  12  14
ATOM     14  C   UNL     1       5.839   3.504  12.469  0.00  0.00    +0.000 C 
ATOM     15  F   UNL     1       6.621   4.040  11.499  0.00  0.00    +0.000 F 
ATOM     16  F   UNL     1       5.983   2.153  12.345  0.00  0.00    +0.000 F 
ATOM     17  F   UNL     1       4.558   3.765  12.084  0.00  0.00    +0.000 F 
ENDBRANCH  12  14
ENDBRANCH   4   7
BRANCH   3  18
ATOM     18  C   UNL     1       3.900   2.564  20.750  0.00  0.00    +0.000 C 
BRANCH  18  19
ATOM     19  C   UNL     1       2.533   2.771  21.392  0.00  0.00    +0.000 C 
BRANCH  19  20
ATOM     20  C   UNL     1       1.423   2.924  20.351  0.00  0.00    +0.000 C 
BRANCH  20  21
ATOM     21  C   UNL     1       0.882   4.358  20.331  0.00  0.00    +0.000 C 
BRANCH  21  22
ATOM     22  C   UNL     1       1.946   5.361  20.785  0.00  0.00    +0.000 C 
BRANCH  22  23
ATOM     23  C   UNL     1       2.005   6.589  19.905  0.00  0.00    +0.000 A 
ATOM     24  C   UNL     1       2.604   6.519  18.637  0.00  0.00    +0.000 A 
ATOM     25  C   UNL     1       2.658   7.648  17.817  0.00  0.00    +0.000 A 
ATOM     26  C   UNL     1       2.114   8.846  18.261  0.00  0.00    +0.000 A 
ATOM     27  F   UNL     1       2.164   9.927  17.471  0.00  0.00    +0.000 F 
ATOM     28  C   UNL     1       1.523   8.939  19.515  0.00  0.00    +0.000 A 
ATOM     29  C   UNL     1       1.472   7.813  20.340  0.00  0.00    +0.000 A 
ENDBRANCH  22  23
ENDBRANCH  21  22
ENDBRANCH  20  21
ENDBRANCH  19  20
ENDBRANCH  18  19
ENDBRANCH   3  18
TORSDOF 8
ENDMDL
MODEL 4
REMARK VINA RESULT:      -8.1      3.658     11.281
REMARK  Name = 
REMARK  8 active torsions:
REMARK  status: ('A' for Active; 'I' for Inactive)
REMARK    1  A    between atoms: N_3  and  C_4
REMARK    2  A    between atoms: C_4  and  C_5
REMARK    3  A    between atoms: C_5  and  C_6
REMARK    4  A    between atoms: C_6  and  C_7
REMARK    5  A    between atoms: C_7  and  C_8
REMARK    6  A    between atoms: C_8  and  C_9
REMARK    7  A    between atoms: N_16  and  C_17
REMARK    8  A    between atoms: C_22  and  C_23
REMARK                            x       y       z     vdW  Elec       q    Type
REMARK                         _______ _______ _______ _____ _____    ______ ____
ROOT
ATOM      1  O   UNL     1       5.111   6.864  17.558  0.00  0.00    +0.000 OA
ATOM      2  C   UNL     1       5.990   6.076  17.898  0.00  0.00    +0.000 C 
ATOM      3  N   UNL     1       7.321   6.438  17.893  0.00  0.00    +0.000 N 
ATOM      4  N   UNL     1       5.809   4.778  18.329  0.00  0.00    +0.000 N 
ATOM      5  H   UNL     1       7.972   5.685  17.727  0.00  0.00    +0.000 HD
ATOM      6  H   UNL     1       6.616   4.334  18.742  0.00  0.00    +0.000 HD
ENDROOT
BRANCH   4   7
ATOM      7  C   UNL     1       4.576   4.090  18.420  0.00  0.00    +0.000 A 
ATOM      8  C   UNL     1       4.124   3.208  17.441  0.00  0.00    +0.000 A 
ATOM      9  C   UNL     1       2.863   2.619  17.535  0.00  0.00    +0.000 A 
ATOM     10  C   UNL     1       2.038   2.880  18.627  0.00  0.00    +0.000 A 
ATOM     11 CL   UNL     1       0.481   2.132  18.587  0.00  0.00    +0.000 Cl
ATOM     12  C   UNL     1       2.478   3.711  19.662  0.00  0.00    +0.000 A 
ATOM     13  C   UNL     1       3.763   4.310  19.544  0.00  0.00    +0.000 A 
BRANCH  12  14
ATOM     14  C   UNL     1       1.665   4.000  20.899  0.00  0.00    +0.000 C 
ATOM     15  F   UNL     1       0.501   4.670  20.707  0.00  0.00    +0.000 F 
ATOM     16  F   UNL     1       1.321   2.856  21.558  0.00  0.00    +0.000 F 
ATOM     17  F   UNL     1       2.362   4.742  21.807  0.00  0.00    +0.000 F 
ENDBRANCH  12  14
ENDBRANCH   4   7
BRANCH   3  18
ATOM     18  C   UNL     1       7.717   7.746  17.392  0.00  0.00    +0.000 C 
BRANCH  18  19
ATOM     19  C   UNL     1       8.465   8.529  18.466  0.00  0.00    +0.000 C 
BRANCH  19  20
ATOM     20  C   UNL     1       8.648   9.999  18.087  0.00  0.00    +0.000 C 
BRANCH  20  21
ATOM     21  C   UNL     1       9.642  10.690  19.028  0.00  0.00    +0.000 C 
BRANCH  21  22
ATOM     22  C   UNL     1      10.724  11.437  18.243  0.00  0.00    +0.000 C 
BRANCH  22  23
ATOM     23  C   UNL     1      10.716  12.925  18.511  0.00  0.00    +0.000 A 
ATOM     24  C   UNL     1      11.748  13.511  19.261  0.00  0.00    +0.000 A 
ATOM     25  C   UNL     1      11.750  14.885  19.510  0.00  0.00    +0.000 A 
ATOM     26  C   UNL     1      10.722  15.675  19.010  0.00  0.00    +0.000 A 
ATOM     27  F   UNL     1      10.727  16.994  19.247  0.00  0.00    +0.000 F 
ATOM     28  C   UNL     1       9.687  15.114  18.271  0.00  0.00    +0.000 A 
ATOM     29  C   UNL     1       9.679  13.739  18.026  0.00  0.00    +0.000 A 
ENDBRANCH  22  23
ENDBRANCH  21  22
ENDBRANCH  20  21
ENDBRANCH  19  20
ENDBRANCH  18  19
ENDBRANCH   3  18
TORSDOF 8
ENDMDL
MODEL 5
REMARK VINA RESULT:      -8.0      7.673     10.464
REMARK  Name = 
REMARK  8 active torsions:
REMARK  status: ('A' for Active; 'I' for Inactive)
REMARK    1  A    between atoms: N_3  and  C_4
REMARK    2  A    between atoms: C_4  and  C_5
REMARK    3  A    between atoms: C_5  and  C_6
REMARK    4  A    between atoms: C_6  and  C_7
REMARK    5  A    between atoms: C_7  and  C_8
REMARK    6  A    between atoms: C_8  and  C_9
REMARK    7  A    between atoms: N_16  and  C_17
REMARK    8  A    between atoms: C_22  and  C_23
REMARK                            x       y       z     vdW  Elec       q    Type
REMARK                         _______ _______ _______ _____ _____    ______ ____
ROOT
ATOM      1  O   UNL     1       0.816   9.400  19.282  0.00  0.00    +0.000 OA
ATOM      2  C   UNL     1       1.097   9.094  20.437  0.00  0.00    +0.000 C 
ATOM      3  N   UNL     1       0.886   9.966  21.484  0.00  0.00    +0.000 N 
ATOM      4  N   UNL     1       1.627   7.894  20.865  0.00  0.00    +0.000 N 
ATOM      5  H   UNL     1       1.520   9.867  22.263  0.00  0.00    +0.000 HD
ATOM      6  H   UNL     1       1.626   7.741  21.863  0.00  0.00    +0.000 HD
ENDROOT
BRANCH   4   7
ATOM      7  C   UNL     1       1.992   6.800  20.045  0.00  0.00    +0.000 A 
ATOM      8  C   UNL     1       2.748   6.938  18.884  0.00  0.00    +0.000 A 
ATOM      9  C   UNL     1       3.010   5.841  18.063  0.00  0.00    +0.000 A 
ATOM     10  C   UNL     1       2.540   4.574  18.404  0.00  0.00    +0.000 A 
ATOM     11 CL   UNL     1       2.885   3.317  17.269  0.00  0.00    +0.000 Cl
ATOM     12  C   UNL     1       1.829   4.380  19.592  0.00  0.00    +0.000 A 
ATOM     13  C   UNL     1       1.564   5.512  20.410  0.00  0.00    +0.000 A 
BRANCH  12  14
ATOM     14  C   UNL     1       1.333   3.032  20.053  0.00  0.00    +0.000 C 
ATOM     15  F   UNL     1       2.235   2.019  20.019  0.00  0.00    +0.000 F 
ATOM     16  F   UNL     1       0.881   3.071  21.339  0.00  0.00    +0.000 F 
ATOM     17  F   UNL     1       0.274   2.596  19.313  0.00  0.00    +0.000 F 
ENDBRANCH  12  14
ENDBRANCH   4   7
BRANCH   3  18
ATOM     18  C   UNL     1       0.405  11.316  21.221  0.00  0.00    +0.000 C 
BRANCH  18  19
ATOM     19  C   UNL     1      -0.547  11.771  22.322  0.00  0.00    +0.000 C 
BRANCH  19  20
ATOM     20  C   UNL     1      -1.976  11.956  21.810  0.00  0.00    +0.000 C 
BRANCH  20  21
ATOM     21  C   UNL     1      -1.982  12.577  20.408  0.00  0.00    +0.000 C 
BRANCH  21  22
ATOM     22  C   UNL     1      -3.317  12.334  19.698  0.00  0.00    +0.000 C 
BRANCH  22  23
ATOM     23  C   UNL     1      -3.162  11.544  18.419  0.00  0.00    +0.000 A 
ATOM     24  C   UNL     1      -4.114  11.665  17.396  0.00  0.00    +0.000 A 
ATOM     25  C   UNL     1      -3.977  10.941  16.210  0.00  0.00    +0.000 A 
ATOM     26  C   UNL     1      -2.887  10.096  16.045  0.00  0.00    +0.000 A 
ATOM     27  F   UNL     1      -2.754   9.404  14.905  0.00  0.00    +0.000 F 
ATOM     28  C   UNL     1      -1.935   9.955  17.048  0.00  0.00    +0.000 A 
ATOM     29  C   UNL     1      -2.074  10.674  18.238  0.00  0.00    +0.000 A 
ENDBRANCH  22  23
ENDBRANCH  21  22
ENDBRANCH  20  21
ENDBRANCH  19  20
ENDBRANCH  18  19
ENDBRANCH   3  18
TORSDOF 8
ENDMDL
MODEL 6
REMARK VINA RESULT:      -8.0      7.837     10.585
REMARK  Name = 
REMARK  8 active torsions:
REMARK  status: ('A' for Active; 'I' for Inactive)
REMARK    1  A    between atoms: N_3  and  C_4
REMARK    2  A    between atoms: C_4  and  C_5
REMARK    3  A    between atoms: C_5  and  C_6
REMARK    4  A    between atoms: C_6  and  C_7
REMARK    5  A    between atoms: C_7  and  C_8
REMARK    6  A    between atoms: C_8  and  C_9
REMARK    7  A    between atoms: N_16  and  C_17
REMARK    8  A    between atoms: C_22  and  C_23
REMARK                            x       y       z     vdW  Elec       q    Type
REMARK                         _______ _______ _______ _____ _____    ______ ____
ROOT
ATOM      1  O   UNL     1      -0.669   7.879  21.343  0.00  0.00    +0.000 OA
ATOM      2  C   UNL     1       0.408   8.393  21.634  0.00  0.00    +0.000 C 
ATOM      3  N   UNL     1       0.482   9.478  22.482  0.00  0.00    +0.000 N 
ATOM      4  N   UNL     1       1.655   7.990  21.202  0.00  0.00    +0.000 N 
ATOM      5  H   UNL     1       1.258  10.101  22.318  0.00  0.00    +0.000 HD
ATOM      6  H   UNL     1       2.442   8.404  21.679  0.00  0.00    +0.000 HD
ENDROOT
BRANCH   4   7
ATOM      7  C   UNL     1       1.928   6.933  20.301  0.00  0.00    +0.000 A 
ATOM      8  C   UNL     1       2.490   7.133  19.043  0.00  0.00    +0.000 A 
ATOM      9  C   UNL     1       2.661   6.069  18.157  0.00  0.00    +0.000 A 
ATOM     10  C   UNL     1       2.297   4.775  18.525  0.00  0.00    +0.000 A 
ATOM     11 CL   UNL     1       2.507   3.563  17.311  0.00  0.00    +0.000 Cl
ATOM     12  C   UNL     1       1.785   4.522  19.801  0.00  0.00    +0.000 A 
ATOM     13  C   UNL     1       1.609   5.620  20.686  0.00  0.00    +0.000 A 
BRANCH  12  14
ATOM     14  C   UNL     1       1.416   3.143  20.289  0.00  0.00    +0.000 C 
ATOM     15  F   UNL     1       2.421   2.233  20.327  0.00  0.00    +0.000 F 
ATOM     16  F   UNL     1       0.907   3.173  21.554  0.00  0.00    +0.000 F 
ATOM     17  F   UNL     1       0.443   2.573  19.523  0.00  0.00    +0.000 F 
ENDBRANCH  12  14
ENDBRANCH   4   7
BRANCH   3  18
ATOM     18  C   UNL     1      -0.739  10.097  22.980  0.00  0.00    +0.000 C 
BRANCH  18  19
ATOM     19  C   UNL     1      -0.734  11.595  22.699  0.00  0.00    +0.000 C 
BRANCH  19  20
ATOM     20  C   UNL     1      -0.302  11.913  21.267  0.00  0.00    +0.000 C 
BRANCH  20  21
ATOM     21  C   UNL     1      -1.154  11.143  20.251  0.00  0.00    +0.000 C 
BRANCH  21  22
ATOM     22  C   UNL     1      -2.215  12.046  19.617  0.00  0.00    +0.000 C 
BRANCH  22  23
ATOM     23  C   UNL     1      -2.729  11.506  18.301  0.00  0.00    +0.000 A 
ATOM     24  C   UNL     1      -4.032  11.808  17.876  0.00  0.00    +0.000 A 
ATOM     25  C   UNL     1      -4.513  11.317  16.661  0.00  0.00    +0.000 A 
ATOM     26  C   UNL     1      -3.692  10.525  15.868  0.00  0.00    +0.000 A 
ATOM     27  F   UNL     1      -4.153  10.056  14.700  0.00  0.00    +0.000 F 
ATOM     28  C   UNL     1      -2.400  10.208  16.273  0.00  0.00    +0.000 A 
ATOM     29  C   UNL     1      -1.919  10.693  17.491  0.00  0.00    +0.000 A 
ENDBRANCH  22  23
ENDBRANCH  21  22
ENDBRANCH  20  21
ENDBRANCH  19  20
ENDBRANCH  18  19
ENDBRANCH   3  18
TORSDOF 8
ENDMDL
MODEL 7
REMARK VINA RESULT:      -8.0      6.011      8.131
REMARK  Name = 
REMARK  8 active torsions:
REMARK  status: ('A' for Active; 'I' for Inactive)
REMARK    1  A    between atoms: N_3  and  C_4
REMARK    2  A    between atoms: C_4  and  C_5
REMARK    3  A    between atoms: C_5  and  C_6
REMARK    4  A    between atoms: C_6  and  C_7
REMARK    5  A    between atoms: C_7  and  C_8
REMARK    6  A    between atoms: C_8  and  C_9
REMARK    7  A    between atoms: N_16  and  C_17
REMARK    8  A    between atoms: C_22  and  C_23
REMARK                            x       y       z     vdW  Elec       q    Type
REMARK                         _______ _______ _______ _____ _____    ______ ____
ROOT
ATOM      1  O   UNL     1       2.813   3.840  16.731  0.00  0.00    +0.000 OA
ATOM      2  C   UNL     1       3.533   3.050  17.335  0.00  0.00    +0.000 C 
ATOM      3  N   UNL     1       3.046   2.282  18.373  0.00  0.00    +0.000 N 
ATOM      4  N   UNL     1       4.867   2.798  17.088  0.00  0.00    +0.000 N 
ATOM      5  H   UNL     1       3.722   2.036  19.081  0.00  0.00    +0.000 HD
ATOM      6  H   UNL     1       5.257   1.991  17.554  0.00  0.00    +0.000 HD
ENDROOT
BRANCH   4   7
ATOM      7  C   UNL     1       5.675   3.437  16.119  0.00  0.00    +0.000 A 
ATOM      8  C   UNL     1       6.695   4.327  16.445  0.00  0.00    +0.000 A 
ATOM      9  C   UNL     1       7.407   4.997  15.450  0.00  0.00    +0.000 A 
ATOM     10  C   UNL     1       7.130   4.769  14.104  0.00  0.00    +0.000 A 
ATOM     11 CL   UNL     1       8.045   5.710  12.980  0.00  0.00    +0.000 Cl
ATOM     12  C   UNL     1       6.155   3.839  13.732  0.00  0.00    +0.000 A 
ATOM     13  C   UNL     1       5.433   3.172  14.760  0.00  0.00    +0.000 A 
BRANCH  12  14
ATOM     14  C   UNL     1       5.834   3.500  12.298  0.00  0.00    +0.000 C 
ATOM     15  F   UNL     1       6.628   4.068  11.356  0.00  0.00    +0.000 F 
ATOM     16  F   UNL     1       5.901   2.158  12.066  0.00  0.00    +0.000 F 
ATOM     17  F   UNL     1       4.562   3.859  11.960  0.00  0.00    +0.000 F 
ENDBRANCH  12  14
ENDBRANCH   4   7
BRANCH   3  18
ATOM     18  C   UNL     1       1.677   2.465  18.833  0.00  0.00    +0.000 C 
BRANCH  18  19
ATOM     19  C   UNL     1       1.575   2.206  20.332  0.00  0.00    +0.000 C 
BRANCH  19  20
ATOM     20  C   UNL     1       1.667   3.496  21.149  0.00  0.00    +0.000 C 
BRANCH  20  21
ATOM     21  C   UNL     1       1.022   4.668  20.401  0.00  0.00    +0.000 C 
BRANCH  21  22
ATOM     22  C   UNL     1       1.774   5.976  20.662  0.00  0.00    +0.000 C 
BRANCH  22  23
ATOM     23  C   UNL     1       2.720   6.339  19.541  0.00  0.00    +0.000 A 
ATOM     24  C   UNL     1       4.008   5.783  19.497  0.00  0.00    +0.000 A 
ATOM     25  C   UNL     1       4.887   6.110  18.463  0.00  0.00    +0.000 A 
ATOM     26  C   UNL     1       4.480   6.993  17.470  0.00  0.00    +0.000 A 
ATOM     27  F   UNL     1       5.324   7.304  16.477  0.00  0.00    +0.000 F 
ATOM     28  C   UNL     1       3.213   7.562  17.498  0.00  0.00    +0.000 A 
ATOM     29  C   UNL     1       2.333   7.240  18.535  0.00  0.00    +0.000 A 
ENDBRANCH  22  23
ENDBRANCH  21  22
ENDBRANCH  20  21
ENDBRANCH  19  20
ENDBRANCH  18  19
ENDBRANCH   3  18
TORSDOF 8
ENDMDL
MODEL 8
REMARK VINA RESULT:      -8.0      5.928      8.321
REMARK  Name = 
REMARK  8 active torsions:
REMARK  status: ('A' for Active; 'I' for Inactive)
REMARK    1  A    between atoms: N_3  and  C_4
REMARK    2  A    between atoms: C_4  and  C_5
REMARK    3  A    between atoms: C_5  and  C_6
REMARK    4  A    between atoms: C_6  and  C_7
REMARK    5  A    between atoms: C_7  and  C_8
REMARK    6  A    between atoms: C_8  and  C_9
REMARK    7  A    between atoms: N_16  and  C_17
REMARK    8  A    between atoms: C_22  and  C_23
REMARK                            x       y       z     vdW  Elec       q    Type
REMARK                         _______ _______ _______ _____ _____    ______ ____
ROOT
ATOM      1  O   UNL     1       0.926   5.126  19.892  0.00  0.00    +0.000 OA
ATOM      2  C   UNL     1       1.849   5.484  20.619  0.00  0.00    +0.000 C 
ATOM      3  N   UNL     1       2.587   4.574  21.346  0.00  0.00    +0.000 N 
ATOM      4  N   UNL     1       2.289   6.778  20.812  0.00  0.00    +0.000 N 
ATOM      5  H   UNL     1       2.971   4.923  22.212  0.00  0.00    +0.000 HD
ATOM      6  H   UNL     1       3.170   6.877  21.297  0.00  0.00    +0.000 HD
ENDROOT
BRANCH   4   7
ATOM      7  C   UNL     1       1.731   7.947  20.243  0.00  0.00    +0.000 A 
ATOM      8  C   UNL     1       1.872   8.281  18.899  0.00  0.00    +0.000 A 
ATOM      9  C   UNL     1       1.376   9.487  18.404  0.00  0.00    +0.000 A 
ATOM     10  C   UNL     1       0.702  10.373  19.242  0.00  0.00    +0.000 A 
ATOM     11 CL   UNL     1       0.194  11.855  18.512  0.00  0.00    +0.000 Cl
ATOM     12  C   UNL     1       0.485  10.049  20.584  0.00  0.00    +0.000 A 
ATOM     13  C   UNL     1       1.007   8.820  21.073  0.00  0.00    +0.000 A 
BRANCH  12  14
ATOM     14  C   UNL     1      -0.278  10.932  21.540  0.00  0.00    +0.000 C 
ATOM     15  F   UNL     1      -0.439  10.454  22.799  0.00  0.00    +0.000 F 
ATOM     16  F   UNL     1       0.316  12.151  21.688  0.00  0.00    +0.000 F 
ATOM     17  F   UNL     1      -1.538  11.199  21.093  0.00  0.00    +0.000 F 
ENDBRANCH  12  14
ENDBRANCH   4   7
BRANCH   3  18
ATOM     18  C   UNL     1       2.220   3.165  21.334  0.00  0.00    +0.000 C 
BRANCH  18  19
ATOM     19  C   UNL     1       3.002   2.416  20.260  0.00  0.00    +0.000 C 
BRANCH  19  20
ATOM     20  C   UNL     1       2.111   1.980  19.096  0.00  0.00    +0.000 C 
BRANCH  20  21
ATOM     21  C   UNL     1       2.812   2.206  17.751  0.00  0.00    +0.000 C 
BRANCH  21  22
ATOM     22  C   UNL     1       2.622   3.644  17.260  0.00  0.00    +0.000 C 
BRANCH  22  23
ATOM     23  C   UNL     1       3.928   4.394  17.132  0.00  0.00    +0.000 A 
ATOM     24  C   UNL     1       5.038   3.779  16.533  0.00  0.00    +0.000 A 
ATOM     25  C   UNL     1       6.247   4.466  16.408  0.00  0.00    +0.000 A 
ATOM     26  C   UNL     1       6.349   5.768  16.880  0.00  0.00    +0.000 A 
ATOM     27  F   UNL     1       7.508   6.428  16.757  0.00  0.00    +0.000 F 
ATOM     28  C   UNL     1       5.264   6.394  17.484  0.00  0.00    +0.000 A 
ATOM     29  C   UNL     1       4.055   5.707  17.615  0.00  0.00    +0.000 A 
ENDBRANCH  22  23
ENDBRANCH  21  22
ENDBRANCH  20  21
ENDBRANCH  19  20
ENDBRANCH  18  19
ENDBRANCH   3  18
TORSDOF 8
ENDMDL
MODEL 9
REMARK VINA RESULT:      -7.9      6.582      8.150
REMARK  Name = 
REMARK  8 active torsions:
REMARK  status: ('A' for Active; 'I' for Inactive)
REMARK    1  A    between atoms: N_3  and  C_4
REMARK    2  A    between atoms: C_4  and  C_5
REMARK    3  A    between atoms: C_5  and  C_6
REMARK    4  A    between atoms: C_6  and  C_7
REMARK    5  A    between atoms: C_7  and  C_8
REMARK    6  A    between atoms: C_8  and  C_9
REMARK    7  A    between atoms: N_16  and  C_17
REMARK    8  A    between atoms: C_22  and  C_23
REMARK                            x       y       z     vdW  Elec       q    Type
REMARK                         _______ _______ _______ _____ _____    ______ ____
ROOT
ATOM      1  O   UNL     1       2.722   3.599  16.478  0.00  0.00    +0.000 OA
ATOM      2  C   UNL     1       3.479   3.060  17.281  0.00  0.00    +0.000 C 
ATOM      3  N   UNL     1       2.998   2.400  18.392  0.00  0.00    +0.000 N 
ATOM      4  N   UNL     1       4.856   3.012  17.208  0.00  0.00    +0.000 N 
ATOM      5  H   UNL     1       3.613   2.399  19.193  0.00  0.00    +0.000 HD
ATOM      6  H   UNL     1       5.310   2.376  17.847  0.00  0.00    +0.000 HD
ENDROOT
BRANCH   4   7
ATOM      7  C   UNL     1       5.664   3.616  16.215  0.00  0.00    +0.000 A 
ATOM      8  C   UNL     1       6.617   4.590  16.500  0.00  0.00    +0.000 A 
ATOM      9  C   UNL     1       7.329   5.217  15.477  0.00  0.00    +0.000 A 
ATOM     10  C   UNL     1       7.119   4.861  14.146  0.00  0.00    +0.000 A 
ATOM     11 CL   UNL     1       8.023   5.758  12.978  0.00  0.00    +0.000 Cl
ATOM     12  C   UNL     1       6.215   3.845  13.822  0.00  0.00    +0.000 A 
ATOM     13  C   UNL     1       5.492   3.224  14.877  0.00  0.00    +0.000 A 
BRANCH  12  14
ATOM     14  C   UNL     1       5.972   3.369  12.411  0.00  0.00    +0.000 C 
ATOM     15  F   UNL     1       5.664   2.055  12.268  0.00  0.00    +0.000 F 
ATOM     16  F   UNL     1       4.949   4.047  11.816  0.00  0.00    +0.000 F 
ATOM     17  F   UNL     1       7.054   3.575  11.608  0.00  0.00    +0.000 F 
ENDBRANCH  12  14
ENDBRANCH   4   7
BRANCH   3  18
ATOM     18  C   UNL     1       1.571   2.410  18.684  0.00  0.00    +0.000 C 
BRANCH  18  19
ATOM     19  C   UNL     1       1.137   3.780  19.192  0.00  0.00    +0.000 C 
BRANCH  19  20
ATOM     20  C   UNL     1       1.323   3.921  20.704  0.00  0.00    +0.000 C 
BRANCH  20  21
ATOM     21  C   UNL     1       2.221   5.117  21.039  0.00  0.00    +0.000 C 
BRANCH  21  22
ATOM     22  C   UNL     1       2.850   5.711  19.775  0.00  0.00    +0.000 C 
BRANCH  22  23
ATOM     23  C   UNL     1       2.298   7.076  19.435  0.00  0.00    +0.000 A 
ATOM     24  C   UNL     1       1.633   7.831  20.415  0.00  0.00    +0.000 A 
ATOM     25  C   UNL     1       1.123   9.095  20.110  0.00  0.00    +0.000 A 
ATOM     26  C   UNL     1       1.277   9.606  18.828  0.00  0.00    +0.000 A 
ATOM     27  F   UNL     1       0.789  10.820  18.538  0.00  0.00    +0.000 F 
ATOM     28  C   UNL     1       1.925   8.873  17.841  0.00  0.00    +0.000 A 
ATOM     29  C   UNL     1       2.431   7.606  18.141  0.00  0.00    +0.000 A 
ENDBRANCH  22  23
ENDBRANCH  21  22
ENDBRANCH  20  21
ENDBRANCH  19  20
ENDBRANCH  18  19
ENDBRANCH   3  18
TORSDOF 8
ENDMDL
