MODEL 1
REMARK VINA RESULT:      -7.6      0.000      0.000
REMARK  Name = 
REMARK  8 active torsions:
REMARK  status: ('A' for Active; 'I' for Inactive)
REMARK    1  A    between atoms: C_2  and  C_3
REMARK    2  A    between atoms: C_3  and  O_4
REMARK    3  A    between atoms: O_4  and  C_5
REMARK    4  A    between atoms: C_5  and  C_7
REMARK    5  A    between atoms: C_12  and  S_13
REMARK    6  A    between atoms: S_13  and  C_14
REMARK    7  A    between atoms: C_14  and  C_15
REMARK    8  A    between atoms: N_22  and  C_23
REMARK                            x       y       z     vdW  Elec       q    Type
REMARK                         _______ _______ _______ _____ _____    ______ ____
ROOT
ATOM      1  C   UNL     1       4.000   5.998  18.771  0.00  0.00    +0.000 C 
ATOM      2  O   UNL     1       3.911   5.517  19.891  0.00  0.00    +0.000 OA
ENDROOT
BRANCH   1   3
ATOM      3  C   UNL     1       4.998   5.535  17.775  0.00  0.00    +0.000 A 
ATOM      4  C   UNL     1       6.160   6.332  17.702  0.00  0.00    +0.000 A 
ATOM      5  C   UNL     1       7.173   6.033  16.796  0.00  0.00    +0.000 A 
ATOM      6  C   UNL     1       7.032   4.941  15.951  0.00  0.00    +0.000 A 
ATOM      7  C   UNL     1       5.885   4.137  16.020  0.00  0.00    +0.000 A 
ATOM      8  C   UNL     1       4.857   4.407  16.942  0.00  0.00    +0.000 A 
BRANCH   8   9
ATOM      9  S   UNL     1       3.363   3.409  16.892  0.00  0.00    +0.000 S 
BRANCH   9  10
ATOM     10  C   UNL     1       3.818   1.914  17.842  0.00  0.00    +0.000 C 
BRANCH  10  11
ATOM     11  C   UNL     1       3.946   2.125  19.348  0.00  0.00    +0.000 C 
ATOM     12  O   UNL     1       4.995   1.949  19.974  0.00  0.00    +0.000 OA
ATOM     13  N   UNL     1       2.779   2.500  20.004  0.00  0.00    +0.000 N 
ATOM     14  C   UNL     1       1.458   2.667  19.425  0.00  0.00    +0.000 C 
ATOM     15  C   UNL     1       0.623   3.312  20.520  0.00  0.00    +0.000 C 
ATOM     16  C   UNL     1       1.302   2.917  21.825  0.00  0.00    +0.000 C 
ATOM     17  C   UNL     1       2.727   2.529  21.452  0.00  0.00    +0.000 C 
ENDBRANCH  10  11
ENDBRANCH   9  10
ENDBRANCH   8   9
ENDBRANCH   1   3
BRANCH   1  18
ATOM     18  O   UNL     1       3.090   6.809  18.185  0.00  0.00    +0.000 OA
BRANCH  18  19
ATOM     19  C   UNL     1       2.328   7.611  19.100  0.00  0.00    +0.000 C 
BRANCH  19  21
ATOM     20  O   UNL     1       2.116   9.161  17.230  0.00  0.00    +0.000 OA
ATOM     21  C   UNL     1       1.804   8.853  18.375  0.00  0.00    +0.000 C 
ATOM     22  N   UNL     1       0.898   9.570  19.133  0.00  0.00    +0.000 N 
ATOM     23  H   UNL     1       0.741   9.215  20.079  0.00  0.00    +0.000 HD
BRANCH  22  24
ATOM     24  C   UNL     1       0.358  10.862  18.739  0.00  0.00    +0.000 C 
ATOM     25  C   UNL     1       1.285  11.979  19.236  0.00  0.00    +0.000 C 
ATOM     26  C   UNL     1       1.071  12.034  20.742  0.00  0.00    +0.000 C 
ATOM     27  S   UNL     1      -0.695  11.889  20.931  0.00  0.00    +0.000 S 
ATOM     28  O   UNL     1      -1.253  13.232  20.939  0.00  0.00    +0.000 OA
ATOM     29  O   UNL     1      -0.975  10.941  21.986  0.00  0.00    +0.000 OA
ATOM     30  C   UNL     1      -1.020  11.148  19.344  0.00  0.00    +0.000 C 
ENDBRANCH  22  24
ENDBRANCH  19  21
ENDBRANCH  18  19
ENDBRANCH   1  18
TORSDOF 8
ENDMDL
MODEL 2
REMARK VINA RESULT:      -7.5      3.220      9.442
REMARK  Name = 
REMARK  8 active torsions:
REMARK  status: ('A' for Active; 'I' for Inactive)
REMARK    1  A    between atoms: C_2  and  C_3
REMARK    2  A    between atoms: C_3  and  O_4
REMARK    3  A    between atoms: O_4  and  C_5
REMARK    4  A    between atoms: C_5  and  C_7
REMARK    5  A    between atoms: C_12  and  S_13
REMARK    6  A    between atoms: S_13  and  C_14
REMARK    7  A    between atoms: C_14  and  C_15
REMARK    8  A    between atoms: N_22  and  C_23
REMARK                            x       y       z     vdW  Elec       q    Type
REMARK                         _______ _______ _______ _____ _____    ______ ____
ROOT
ATOM      1  C   UNL     1       1.066   9.400  18.942  0.00  0.00    +0.000 C 
ATOM      2  O   UNL     1       0.497   9.593  17.877  0.00  0.00    +0.000 OA
ENDROOT
BRANCH   1   3
ATOM      3  C   UNL     1       0.470   9.769  20.250  0.00  0.00    +0.000 A 
ATOM      4  C   UNL     1       0.468   8.729  21.203  0.00  0.00    +0.000 A 
ATOM      5  C   UNL     1      -0.080   8.922  22.467  0.00  0.00    +0.000 A 
ATOM      6  C   UNL     1      -0.638  10.152  22.788  0.00  0.00    +0.000 A 
ATOM      7  C   UNL     1      -0.634  11.195  21.852  0.00  0.00    +0.000 A 
ATOM      8  C   UNL     1      -0.068  11.031  20.574  0.00  0.00    +0.000 A 
BRANCH   8   9
ATOM      9  S   UNL     1      -0.208  12.369  19.384  0.00  0.00    +0.000 S 
BRANCH   9  10
ATOM     10  C   UNL     1      -2.005  12.709  19.335  0.00  0.00    +0.000 C 
BRANCH  10  11
ATOM     11  C   UNL     1      -2.811  11.768  18.444  0.00  0.00    +0.000 C 
ATOM     12  O   UNL     1      -2.314  11.096  17.536  0.00  0.00    +0.000 OA
ATOM     13  N   UNL     1      -4.179  11.733  18.689  0.00  0.00    +0.000 N 
ATOM     14  C   UNL     1      -4.921  12.518  19.660  0.00  0.00    +0.000 C 
ATOM     15  C   UNL     1      -6.316  11.915  19.676  0.00  0.00    +0.000 C 
ATOM     16  C   UNL     1      -6.481  11.253  18.314  0.00  0.00    +0.000 C 
ATOM     17  C   UNL     1      -5.071  11.039  17.781  0.00  0.00    +0.000 C 
ENDBRANCH  10  11
ENDBRANCH   9  10
ENDBRANCH   8   9
ENDBRANCH   1   3
BRANCH   1  18
ATOM     18  O   UNL     1       2.160   8.626  19.123  0.00  0.00    +0.000 OA
BRANCH  18  19
ATOM     19  C   UNL     1       2.597   7.925  17.950  0.00  0.00    +0.000 C 
BRANCH  19  21
ATOM     20  O   UNL     1       2.482   5.850  19.225  0.00  0.00    +0.000 OA
ATOM     21  C   UNL     1       3.011   6.501  18.331  0.00  0.00    +0.000 C 
ATOM     22  N   UNL     1       4.017   6.004  17.523  0.00  0.00    +0.000 N 
ATOM     23  H   UNL     1       4.383   6.658  16.828  0.00  0.00    +0.000 HD
BRANCH  22  24
ATOM     24  C   UNL     1       4.689   4.736  17.758  0.00  0.00    +0.000 C 
ATOM     25  C   UNL     1       5.466   4.803  19.079  0.00  0.00    +0.000 C 
ATOM     26  C   UNL     1       6.660   5.703  18.794  0.00  0.00    +0.000 C 
ATOM     27  S   UNL     1       7.232   5.166  17.193  0.00  0.00    +0.000 S 
ATOM     28  O   UNL     1       8.233   4.132  17.404  0.00  0.00    +0.000 OA
ATOM     29  O   UNL     1       7.497   6.329  16.377  0.00  0.00    +0.000 OA
ATOM     30  C   UNL     1       5.714   4.389  16.674  0.00  0.00    +0.000 C 
ENDBRANCH  22  24
ENDBRANCH  19  21
ENDBRANCH  18  19
ENDBRANCH   1  18
TORSDOF 8
ENDMDL
MODEL 3
REMARK VINA RESULT:      -7.5      3.248      9.869
REMARK  Name = 
REMARK  8 active torsions:
REMARK  status: ('A' for Active; 'I' for Inactive)
REMARK    1  A    between atoms: C_2  and  C_3
REMARK    2  A    between atoms: C_3  and  O_4
REMARK    3  A    between atoms: O_4  and  C_5
REMARK    4  A    between atoms: C_5  and  C_7
REMARK    5  A    between atoms: C_12  and  S_13
REMARK    6  A    between atoms: S_13  and  C_14
REMARK    7  A    between atoms: C_14  and  C_15
REMARK    8  A    between atoms: N_22  and  C_23
REMARK                            x       y       z     vdW  Elec       q    Type
REMARK                         _______ _______ _______ _____ _____    ______ ____
ROOT
ATOM      1  C   UNL     1       0.994   9.427  19.167  0.00  0.00    +0.000 C 
ATOM      2  O   UNL     1       0.525   9.786  18.097  0.00  0.00    +0.000 OA
ENDROOT
BRANCH   1   3
ATOM      3  C   UNL     1       0.393   9.796  20.473  0.00  0.00    +0.000 A 
ATOM      4  C   UNL     1       0.338   8.739  21.407  0.00  0.00    +0.000 A 
ATOM      5  C   UNL     1      -0.222   8.931  22.666  0.00  0.00    +0.000 A 
ATOM      6  C   UNL     1      -0.738  10.176  23.001  0.00  0.00    +0.000 A 
ATOM      7  C   UNL     1      -0.681  11.234  22.084  0.00  0.00    +0.000 A 
ATOM      8  C   UNL     1      -0.101  11.071  20.812  0.00  0.00    +0.000 A 
BRANCH   8   9
ATOM      9  S   UNL     1      -0.173  12.434  19.644  0.00  0.00    +0.000 S 
BRANCH   9  10
ATOM     10  C   UNL     1       1.330  13.402  20.027  0.00  0.00    +0.000 C 
BRANCH  10  11
ATOM     11  C   UNL     1       2.249  13.659  18.836  0.00  0.00    +0.000 C 
ATOM     12  O   UNL     1       2.936  12.781  18.304  0.00  0.00    +0.000 OA
ATOM     13  N   UNL     1       2.305  14.974  18.390  0.00  0.00    +0.000 N 
ATOM     14  C   UNL     1       1.625  16.126  18.958  0.00  0.00    +0.000 C 
ATOM     15  C   UNL     1       1.836  17.246  17.953  0.00  0.00    +0.000 C 
ATOM     16  C   UNL     1       3.107  16.874  17.200  0.00  0.00    +0.000 C 
ATOM     17  C   UNL     1       3.290  15.376  17.406  0.00  0.00    +0.000 C 
ENDBRANCH  10  11
ENDBRANCH   9  10
ENDBRANCH   8   9
ENDBRANCH   1   3
BRANCH   1  18
ATOM     18  O   UNL     1       1.938   8.472  19.335  0.00  0.00    +0.000 OA
BRANCH  18  19
ATOM     19  C   UNL     1       2.474   7.941  18.114  0.00  0.00    +0.000 C 
BRANCH  19  21
ATOM     20  O   UNL     1       2.194   5.684  18.993  0.00  0.00    +0.000 OA
ATOM     21  C   UNL     1       2.849   6.471  18.318  0.00  0.00    +0.000 C 
ATOM     22  N   UNL     1       3.983   6.108  17.617  0.00  0.00    +0.000 N 
ATOM     23  H   UNL     1       4.446   6.865  17.109  0.00  0.00    +0.000 HD
BRANCH  22  24
ATOM     24  C   UNL     1       4.633   4.813  17.747  0.00  0.00    +0.000 C 
ATOM     25  C   UNL     1       5.416   4.761  19.065  0.00  0.00    +0.000 C 
ATOM     26  C   UNL     1       6.626   5.660  18.846  0.00  0.00    +0.000 C 
ATOM     27  S   UNL     1       7.182   5.241  17.205  0.00  0.00    +0.000 S 
ATOM     28  O   UNL     1       8.165   4.177  17.328  0.00  0.00    +0.000 OA
ATOM     29  O   UNL     1       7.464   6.461  16.483  0.00  0.00    +0.000 OA
ATOM     30  C   UNL     1       5.649   4.535  16.633  0.00  0.00    +0.000 C 
ENDBRANCH  22  24
ENDBRANCH  19  21
ENDBRANCH  18  19
ENDBRANCH   1  18
TORSDOF 8
ENDMDL
MODEL 4
REMARK VINA RESULT:      -7.4      5.177      6.465
REMARK  Name = 
REMARK  8 active torsions:
REMARK  status: ('A' for Active; 'I' for Inactive)
REMARK    1  A    between atoms: C_2  and  C_3
REMARK    2  A    between atoms: C_3  and  O_4
REMARK    3  A    between atoms: O_4  and  C_5
REMARK    4  A    between atoms: C_5  and  C_7
REMARK    5  A    between atoms: C_12  and  S_13
REMARK    6  A    between atoms: S_13  and  C_14
REMARK    7  A    between atoms: C_14  and  C_15
REMARK    8  A    between atoms: N_22  and  C_23
REMARK                            x       y       z     vdW  Elec       q    Type
REMARK                         _______ _______ _______ _____ _____    ______ ____
ROOT
ATOM      1  C   UNL     1       7.468   6.293  18.095  0.00  0.00    +0.000 C 
ATOM      2  O   UNL     1       7.534   5.877  19.242  0.00  0.00    +0.000 OA
ENDROOT
BRANCH   1   3
ATOM      3  C   UNL     1       6.682   5.611  17.036  0.00  0.00    +0.000 A 
ATOM      4  C   UNL     1       7.455   4.840  16.144  0.00  0.00    +0.000 A 
ATOM      5  C   UNL     1       6.857   4.163  15.085  0.00  0.00    +0.000 A 
ATOM      6  C   UNL     1       5.483   4.255  14.906  0.00  0.00    +0.000 A 
ATOM      7  C   UNL     1       4.704   5.012  15.792  0.00  0.00    +0.000 A 
ATOM      8  C   UNL     1       5.283   5.689  16.881  0.00  0.00    +0.000 A 
BRANCH   8   9
ATOM      9  S   UNL     1       4.243   6.739  17.903  0.00  0.00    +0.000 S 
BRANCH   9  10
ATOM     10  C   UNL     1       4.050   5.774  19.445  0.00  0.00    +0.000 C 
BRANCH  10  11
ATOM     11  C   UNL     1       2.613   5.387  19.784  0.00  0.00    +0.000 C 
ATOM     12  O   UNL     1       1.864   6.085  20.475  0.00  0.00    +0.000 OA
ATOM     13  N   UNL     1       2.189   4.158  19.293  0.00  0.00    +0.000 N 
ATOM     14  C   UNL     1       2.971   3.193  18.540  0.00  0.00    +0.000 C 
ATOM     15  C   UNL     1       1.967   2.160  18.055  0.00  0.00    +0.000 C 
ATOM     16  C   UNL     1       0.810   2.233  19.043  0.00  0.00    +0.000 C 
ATOM     17  C   UNL     1       0.924   3.593  19.719  0.00  0.00    +0.000 C 
ENDBRANCH  10  11
ENDBRANCH   9  10
ENDBRANCH   8   9
ENDBRANCH   1   3
BRANCH   1  18
ATOM     18  O   UNL     1       7.862   7.517  17.675  0.00  0.00    +0.000 OA
BRANCH  18  19
ATOM     19  C   UNL     1       8.483   8.324  18.686  0.00  0.00    +0.000 C 
BRANCH  19  21
ATOM     20  O   UNL     1       7.739  10.310  17.484  0.00  0.00    +0.000 OA
ATOM     21  C   UNL     1       8.578   9.771  18.197  0.00  0.00    +0.000 C 
ATOM     22  N   UNL     1       9.692  10.428  18.687  0.00  0.00    +0.000 N 
ATOM     23  H   UNL     1      10.322   9.857  19.254  0.00  0.00    +0.000 HD
BRANCH  22  24
ATOM     24  C   UNL     1      10.094  11.760  18.266  0.00  0.00    +0.000 C 
ATOM     25  C   UNL     1      11.613  11.910  18.413  0.00  0.00    +0.000 C 
ATOM     26  C   UNL     1      11.862  12.003  19.912  0.00  0.00    +0.000 C 
ATOM     27  S   UNL     1      10.576  13.092  20.494  0.00  0.00    +0.000 S 
ATOM     28  O   UNL     1      11.096  14.450  20.460  0.00  0.00    +0.000 OA
ATOM     29  O   UNL     1       9.993  12.529  21.690  0.00  0.00    +0.000 OA
ATOM     30  C   UNL     1       9.469  12.873  19.114  0.00  0.00    +0.000 C 
ENDBRANCH  22  24
ENDBRANCH  19  21
ENDBRANCH  18  19
ENDBRANCH   1  18
TORSDOF 8
ENDMDL
MODEL 5
REMARK VINA RESULT:      -7.4      2.935      6.425
REMARK  Name = 
REMARK  8 active torsions:
REMARK  status: ('A' for Active; 'I' for Inactive)
REMARK    1  A    between atoms: C_2  and  C_3
REMARK    2  A    between atoms: C_3  and  O_4
REMARK    3  A    between atoms: O_4  and  C_5
REMARK    4  A    between atoms: C_5  and  C_7
REMARK    5  A    between atoms: C_12  and  S_13
REMARK    6  A    between atoms: S_13  and  C_14
REMARK    7  A    between atoms: C_14  and  C_15
REMARK    8  A    between atoms: N_22  and  C_23
REMARK                            x       y       z     vdW  Elec       q    Type
REMARK                         _______ _______ _______ _____ _____    ______ ____
ROOT
ATOM      1  C   UNL     1       7.348   5.939  18.192  0.00  0.00    +0.000 C 
ATOM      2  O   UNL     1       8.131   6.873  18.279  0.00  0.00    +0.000 OA
ENDROOT
BRANCH   1   3
ATOM      3  C   UNL     1       6.673   5.573  16.921  0.00  0.00    +0.000 A 
ATOM      4  C   UNL     1       7.205   4.429  16.289  0.00  0.00    +0.000 A 
ATOM      5  C   UNL     1       6.688   3.981  15.077  0.00  0.00    +0.000 A 
ATOM      6  C   UNL     1       5.642   4.673  14.483  0.00  0.00    +0.000 A 
ATOM      7  C   UNL     1       5.100   5.806  15.107  0.00  0.00    +0.000 A 
ATOM      8  C   UNL     1       5.592   6.267  16.342  0.00  0.00    +0.000 A 
BRANCH   8   9
ATOM      9  S   UNL     1       4.933   7.794  17.023  0.00  0.00    +0.000 S 
BRANCH   9  10
ATOM     10  C   UNL     1       3.344   7.278  17.765  0.00  0.00    +0.000 C 
BRANCH  10  11
ATOM     11  C   UNL     1       2.356   8.414  18.020  0.00  0.00    +0.000 C 
ATOM     12  O   UNL     1       2.127   9.313  17.205  0.00  0.00    +0.000 OA
ATOM     13  N   UNL     1       1.739   8.407  19.265  0.00  0.00    +0.000 N 
ATOM     14  C   UNL     1       1.963   7.471  20.354  0.00  0.00    +0.000 C 
ATOM     15  C   UNL     1       0.870   7.771  21.366  0.00  0.00    +0.000 C 
ATOM     16  C   UNL     1       0.478   9.221  21.113  0.00  0.00    +0.000 C 
ATOM     17  C   UNL     1       0.944   9.538  19.698  0.00  0.00    +0.000 C 
ENDBRANCH  10  11
ENDBRANCH   9  10
ENDBRANCH   8   9
ENDBRANCH   1   3
BRANCH   1  18
ATOM     18  O   UNL     1       7.165   4.971  19.119  0.00  0.00    +0.000 OA
BRANCH  18  19
ATOM     19  C   UNL     1       5.890   5.006  19.776  0.00  0.00    +0.000 C 
BRANCH  19  21
ATOM     20  O   UNL     1       5.212   2.679  20.042  0.00  0.00    +0.000 OA
ATOM     21  C   UNL     1       5.104   3.739  19.433  0.00  0.00    +0.000 C 
ATOM     22  N   UNL     1       4.217   3.927  18.390  0.00  0.00    +0.000 N 
ATOM     23  H   UNL     1       4.241   4.852  17.957  0.00  0.00    +0.000 HD
BRANCH  22  24
ATOM     24  C   UNL     1       3.454   2.852  17.774  0.00  0.00    +0.000 C 
ATOM     25  C   UNL     1       2.426   3.444  16.803  0.00  0.00    +0.000 C 
ATOM     26  C   UNL     1       1.358   4.074  17.686  0.00  0.00    +0.000 C 
ATOM     27  S   UNL     1       1.105   2.872  18.978  0.00  0.00    +0.000 S 
ATOM     28  O   UNL     1       0.035   1.983  18.553  0.00  0.00    +0.000 OA
ATOM     29  O   UNL     1       1.067   3.555  20.251  0.00  0.00    +0.000 OA
ATOM     30  C   UNL     1       2.659   2.022  18.788  0.00  0.00    +0.000 C 
ENDBRANCH  22  24
ENDBRANCH  19  21
ENDBRANCH  18  19
ENDBRANCH   1  18
TORSDOF 8
ENDMDL
MODEL 6
REMARK VINA RESULT:      -7.4      2.420      4.909
REMARK  Name = 
REMARK  8 active torsions:
REMARK  status: ('A' for Active; 'I' for Inactive)
REMARK    1  A    between atoms: C_2  and  C_3
REMARK    2  A    between atoms: C_3  and  O_4
REMARK    3  A    between atoms: O_4  and  C_5
REMARK    4  A    between atoms: C_5  and  C_7
REMARK    5  A    between atoms: C_12  and  S_13
REMARK    6  A    between atoms: S_13  and  C_14
REMARK    7  A    between atoms: C_14  and  C_15
REMARK    8  A    between atoms: N_22  and  C_23
REMARK                            x       y       z     vdW  Elec       q    Type
REMARK                         _______ _______ _______ _____ _____    ______ ____
ROOT
ATOM      1  C   UNL     1       2.241   6.291  19.224  0.00  0.00    +0.000 C 
ATOM      2  O   UNL     1       2.087   6.543  20.409  0.00  0.00    +0.000 OA
ENDROOT
BRANCH   1   3
ATOM      3  C   UNL     1       2.342   4.904  18.703  0.00  0.00    +0.000 A 
ATOM      4  C   UNL     1       1.334   4.034  19.169  0.00  0.00    +0.000 A 
ATOM      5  C   UNL     1       1.315   2.697  18.784  0.00  0.00    +0.000 A 
ATOM      6  C   UNL     1       2.305   2.216  17.938  0.00  0.00    +0.000 A 
ATOM      7  C   UNL     1       3.306   3.073  17.463  0.00  0.00    +0.000 A 
ATOM      8  C   UNL     1       3.335   4.434  17.821  0.00  0.00    +0.000 A 
BRANCH   8   9
ATOM      9  S   UNL     1       4.716   5.446  17.275  0.00  0.00    +0.000 S 
BRANCH   9  10
ATOM     10  C   UNL     1       5.774   4.265  16.363  0.00  0.00    +0.000 C 
BRANCH  10  11
ATOM     11  C   UNL     1       6.850   4.908  15.493  0.00  0.00    +0.000 C 
ATOM     12  O   UNL     1       7.674   5.724  15.919  0.00  0.00    +0.000 OA
ATOM     13  N   UNL     1       6.833   4.548  14.150  0.00  0.00    +0.000 N 
ATOM     14  C   UNL     1       5.885   3.671  13.485  0.00  0.00    +0.000 C 
ATOM     15  C   UNL     1       6.467   3.434  12.101  0.00  0.00    +0.000 C 
ATOM     16  C   UNL     1       7.355   4.641  11.829  0.00  0.00    +0.000 C 
ATOM     17  C   UNL     1       7.669   5.244  13.192  0.00  0.00    +0.000 C 
ENDBRANCH  10  11
ENDBRANCH   9  10
ENDBRANCH   8   9
ENDBRANCH   1   3
BRANCH   1  18
ATOM     18  O   UNL     1       2.096   7.168  18.204  0.00  0.00    +0.000 OA
BRANCH  18  19
ATOM     19  C   UNL     1       2.413   8.527  18.536  0.00  0.00    +0.000 C 
BRANCH  19  21
ATOM     20  O   UNL     1       0.374   9.231  17.399  0.00  0.00    +0.000 OA
ATOM     21  C   UNL     1       1.183   9.409  18.303  0.00  0.00    +0.000 C 
ATOM     22  N   UNL     1       1.052  10.403  19.254  0.00  0.00    +0.000 N 
ATOM     23  H   UNL     1       1.807  10.453  19.942  0.00  0.00    +0.000 HD
BRANCH  22  24
ATOM     24  C   UNL     1       0.056  11.460  19.186  0.00  0.00    +0.000 C 
ATOM     25  C   UNL     1       0.733  12.820  19.397  0.00  0.00    +0.000 C 
ATOM     26  C   UNL     1       1.087  12.864  20.878  0.00  0.00    +0.000 C 
ATOM     27  S   UNL     1      -0.360  12.205  21.685  0.00  0.00    +0.000 S 
ATOM     28  O   UNL     1      -1.238  13.320  22.000  0.00  0.00    +0.000 OA
ATOM     29  O   UNL     1       0.059  11.256  22.691  0.00  0.00    +0.000 OA
ATOM     30  C   UNL     1      -1.020  11.344  20.272  0.00  0.00    +0.000 C 
ENDBRANCH  22  24
ENDBRANCH  19  21
ENDBRANCH  18  19
ENDBRANCH   1  18
TORSDOF 8
ENDMDL
MODEL 7
REMARK VINA RESULT:      -7.3      4.999      6.936
REMARK  Name = 
REMARK  8 active torsions:
REMARK  status: ('A' for Active; 'I' for Inactive)
REMARK    1  A    between atoms: C_2  and  C_3
REMARK    2  A    between atoms: C_3  and  O_4
REMARK    3  A    between atoms: O_4  and  C_5
REMARK    4  A    between atoms: C_5  and  C_7
REMARK    5  A    between atoms: C_12  and  S_13
REMARK    6  A    between atoms: S_13  and  C_14
REMARK    7  A    between atoms: C_14  and  C_15
REMARK    8  A    between atoms: N_22  and  C_23
REMARK                            x       y       z     vdW  Elec       q    Type
REMARK                         _______ _______ _______ _____ _____    ______ ____
ROOT
ATOM      1  C   UNL     1       7.422   5.915  18.510  0.00  0.00    +0.000 C 
ATOM      2  O   UNL     1       7.780   5.440  19.577  0.00  0.00    +0.000 OA
ENDROOT
BRANCH   1   3
ATOM      3  C   UNL     1       6.614   5.157  17.523  0.00  0.00    +0.000 A 
ATOM      4  C   UNL     1       7.295   4.854  16.324  0.00  0.00    +0.000 A 
ATOM      5  C   UNL     1       6.656   4.167  15.297  0.00  0.00    +0.000 A 
ATOM      6  C   UNL     1       5.331   3.783  15.454  0.00  0.00    +0.000 A 
ATOM      7  C   UNL     1       4.648   4.071  16.643  0.00  0.00    +0.000 A 
ATOM      8  C   UNL     1       5.278   4.747  17.705  0.00  0.00    +0.000 A 
BRANCH   8   9
ATOM      9  S   UNL     1       4.308   5.191  19.150  0.00  0.00    +0.000 S 
BRANCH   9  10
ATOM     10  C   UNL     1       3.021   6.301  18.473  0.00  0.00    +0.000 C 
BRANCH  10  11
ATOM     11  C   UNL     1       2.229   7.079  19.521  0.00  0.00    +0.000 C 
ATOM     12  O   UNL     1       1.876   6.599  20.603  0.00  0.00    +0.000 OA
ATOM     13  N   UNL     1       1.884   8.379  19.172  0.00  0.00    +0.000 N 
ATOM     14  C   UNL     1       2.153   9.054  17.914  0.00  0.00    +0.000 C 
ATOM     15  C   UNL     1       1.783  10.508  18.158  0.00  0.00    +0.000 C 
ATOM     16  C   UNL     1       0.766  10.477  19.290  0.00  0.00    +0.000 C 
ATOM     17  C   UNL     1       0.963   9.140  19.992  0.00  0.00    +0.000 C 
ENDBRANCH  10  11
ENDBRANCH   9  10
ENDBRANCH   8   9
ENDBRANCH   1   3
BRANCH   1  18
ATOM     18  O   UNL     1       7.473   7.224  18.172  0.00  0.00    +0.000 OA
BRANCH  18  19
ATOM     19  C   UNL     1       8.513   7.969  18.822  0.00  0.00    +0.000 C 
BRANCH  19  21
ATOM     20  O   UNL     1       7.734   9.830  17.454  0.00  0.00    +0.000 OA
ATOM     21  C   UNL     1       8.534   9.399  18.277  0.00  0.00    +0.000 C 
ATOM     22  N   UNL     1       9.524  10.174  18.851  0.00  0.00    +0.000 N 
ATOM     23  H   UNL     1      10.136   9.686  19.509  0.00  0.00    +0.000 HD
BRANCH  22  24
ATOM     24  C   UNL     1       9.851  11.522  18.412  0.00  0.00    +0.000 C 
ATOM     25  C   UNL     1      11.364  11.747  18.528  0.00  0.00    +0.000 C 
ATOM     26  C   UNL     1      11.636  11.866  20.021  0.00  0.00    +0.000 C 
ATOM     27  S   UNL     1      10.309  12.895  20.619  0.00  0.00    +0.000 S 
ATOM     28  O   UNL     1      10.760  14.277  20.565  0.00  0.00    +0.000 OA
ATOM     29  O   UNL     1       9.778  12.314  21.831  0.00  0.00    +0.000 OA
ATOM     30  C   UNL     1       9.189  12.610  19.263  0.00  0.00    +0.000 C 
ENDBRANCH  22  24
ENDBRANCH  19  21
ENDBRANCH  18  19
ENDBRANCH   1  18
TORSDOF 8
ENDMDL
MODEL 8
REMARK VINA RESULT:      -7.2      2.993      9.522
REMARK  Name = 
REMARK  8 active torsions:
REMARK  status: ('A' for Active; 'I' for Inactive)
REMARK    1  A    between atoms: C_2  and  C_3
REMARK    2  A    between atoms: C_3  and  O_4
REMARK    3  A    between atoms: O_4  and  C_5
REMARK    4  A    between atoms: C_5  and  C_7
REMARK    5  A    between atoms: C_12  and  S_13
REMARK    6  A    between atoms: S_13  and  C_14
REMARK    7  A    between atoms: C_14  and  C_15
REMARK    8  A    between atoms: N_22  and  C_23
REMARK                            x       y       z     vdW  Elec       q    Type
REMARK                         _______ _______ _______ _____ _____    ______ ____
ROOT
ATOM      1  C   UNL     1       1.084   9.477  18.875  0.00  0.00    +0.000 C 
ATOM      2  O   UNL     1       0.472   9.668  17.835  0.00  0.00    +0.000 OA
ENDROOT
BRANCH   1   3
ATOM      3  C   UNL     1       0.562   9.888  20.202  0.00  0.00    +0.000 A 
ATOM      4  C   UNL     1       0.105   8.820  21.003  0.00  0.00    +0.000 A 
ATOM      5  C   UNL     1      -0.433   9.057  22.264  0.00  0.00    +0.000 A 
ATOM      6  C   UNL     1      -0.527  10.360  22.733  0.00  0.00    +0.000 A 
ATOM      7  C   UNL     1      -0.068  11.427  21.949  0.00  0.00    +0.000 A 
ATOM      8  C   UNL     1       0.499  11.212  20.679  0.00  0.00    +0.000 A 
BRANCH   8   9
ATOM      9  S   UNL     1       0.952  12.635  19.679  0.00  0.00    +0.000 S 
BRANCH   9  10
ATOM     10  C   UNL     1      -0.556  12.961  18.696  0.00  0.00    +0.000 C 
BRANCH  10  11
ATOM     11  C   UNL     1      -1.839  12.372  19.274  0.00  0.00    +0.000 C 
ATOM     12  O   UNL     1      -2.319  11.294  18.909  0.00  0.00    +0.000 OA
ATOM     13  N   UNL     1      -2.479  13.148  20.233  0.00  0.00    +0.000 N 
ATOM     14  C   UNL     1      -2.087  14.465  20.705  0.00  0.00    +0.000 C 
ATOM     15  C   UNL     1      -2.978  14.737  21.906  0.00  0.00    +0.000 C 
ATOM     16  C   UNL     1      -4.217  13.879  21.686  0.00  0.00    +0.000 C 
ATOM     17  C   UNL     1      -3.803  12.793  20.702  0.00  0.00    +0.000 C 
ENDBRANCH  10  11
ENDBRANCH   9  10
ENDBRANCH   8   9
ENDBRANCH   1   3
BRANCH   1  18
ATOM     18  O   UNL     1       2.162   8.672  19.020  0.00  0.00    +0.000 OA
BRANCH  18  19
ATOM     19  C   UNL     1       2.507   7.919  17.848  0.00  0.00    +0.000 C 
BRANCH  19  21
ATOM     20  O   UNL     1       2.250   5.792  19.012  0.00  0.00    +0.000 OA
ATOM     21  C   UNL     1       2.906   6.499  18.254  0.00  0.00    +0.000 C 
ATOM     22  N   UNL     1       4.067   6.073  17.635  0.00  0.00    +0.000 N 
ATOM     23  H   UNL     1       4.527   6.768  17.043  0.00  0.00    +0.000 HD
BRANCH  22  24
ATOM     24  C   UNL     1       4.740   4.823  17.952  0.00  0.00    +0.000 C 
ATOM     25  C   UNL     1       5.627   5.016  19.188  0.00  0.00    +0.000 C 
ATOM     26  C   UNL     1       6.805   5.853  18.707  0.00  0.00    +0.000 C 
ATOM     27  S   UNL     1       7.231   5.132  17.133  0.00  0.00    +0.000 S 
ATOM     28  O   UNL     1       8.233   4.106  17.373  0.00  0.00    +0.000 OA
ATOM     29  O   UNL     1       7.440   6.193  16.175  0.00  0.00    +0.000 OA
ATOM     30  C   UNL     1       5.665   4.337  16.831  0.00  0.00    +0.000 C 
ENDBRANCH  22  24
ENDBRANCH  19  21
ENDBRANCH  18  19
ENDBRANCH   1  18
TORSDOF 8
ENDMDL
MODEL 9
REMARK VINA RESULT:      -7.2      3.453      9.624
REMARK  Name = 
REMARK  8 active torsions:
REMARK  status: ('A' for Active; 'I' for Inactive)
REMARK    1  A    between atoms: C_2  and  C_3
REMARK    2  A    between atoms: C_3  and  O_4
REMARK    3  A    between atoms: O_4  and  C_5
REMARK    4  A    between atoms: C_5  and  C_7
REMARK    5  A    between atoms: C_12  and  S_13
REMARK    6  A    between atoms: S_13  and  C_14
REMARK    7  A    between atoms: C_14  and  C_15
REMARK    8  A    between atoms: N_22  and  C_23
REMARK                            x       y       z     vdW  Elec       q    Type
REMARK                         _______ _______ _______ _____ _____    ______ ____
ROOT
ATOM      1  C   UNL     1       1.414   9.811  18.840  0.00  0.00    +0.000 C 
ATOM      2  O   UNL     1       1.679  10.817  18.200  0.00  0.00    +0.000 OA
ENDROOT
BRANCH   1   3
ATOM      3  C   UNL     1       0.781   9.854  20.182  0.00  0.00    +0.000 A 
ATOM      4  C   UNL     1       1.411   9.042  21.148  0.00  0.00    +0.000 A 
ATOM      5  C   UNL     1       0.914   8.964  22.446  0.00  0.00    +0.000 A 
ATOM      6  C   UNL     1      -0.218   9.690  22.788  0.00  0.00    +0.000 A 
ATOM      7  C   UNL     1      -0.847  10.507  21.838  0.00  0.00    +0.000 A 
ATOM      8  C   UNL     1      -0.352  10.619  20.525  0.00  0.00    +0.000 A 
BRANCH   8   9
ATOM      9  S   UNL     1      -1.277  11.587  19.328  0.00  0.00    +0.000 S 
BRANCH   9  10
ATOM     10  C   UNL     1      -2.049  12.896  20.345  0.00  0.00    +0.000 C 
BRANCH  10  11
ATOM     11  C   UNL     1      -3.550  12.735  20.567  0.00  0.00    +0.000 C 
ATOM     12  O   UNL     1      -4.367  12.621  19.648  0.00  0.00    +0.000 OA
ATOM     13  N   UNL     1      -3.969  12.761  21.893  0.00  0.00    +0.000 N 
ATOM     14  C   UNL     1      -3.146  12.968  23.072  0.00  0.00    +0.000 C 
ATOM     15  C   UNL     1      -4.057  12.659  24.250  0.00  0.00    +0.000 C 
ATOM     16  C   UNL     1      -5.470  12.899  23.735  0.00  0.00    +0.000 C 
ATOM     17  C   UNL     1      -5.380  12.823  22.217  0.00  0.00    +0.000 C 
ENDBRANCH  10  11
ENDBRANCH   9  10
ENDBRANCH   8   9
ENDBRANCH   1   3
BRANCH   1  18
ATOM     18  O   UNL     1       1.410   8.547  18.357  0.00  0.00    +0.000 OA
BRANCH  18  19
ATOM     19  C   UNL     1       2.648   8.130  17.764  0.00  0.00    +0.000 C 
BRANCH  19  21
ATOM     20  O   UNL     1       2.494   6.225  19.278  0.00  0.00    +0.000 OA
ATOM     21  C   UNL     1       3.050   6.765  18.327  0.00  0.00    +0.000 C 
ATOM     22  N   UNL     1       4.080   6.177  17.617  0.00  0.00    +0.000 N 
ATOM     23  H   UNL     1       4.467   6.743  16.859  0.00  0.00    +0.000 HD
BRANCH  22  24
ATOM     24  C   UNL     1       4.744   4.949  18.025  0.00  0.00    +0.000 C 
ATOM     25  C   UNL     1       5.680   5.238  19.205  0.00  0.00    +0.000 C 
ATOM     26  C   UNL     1       6.852   6.004  18.606  0.00  0.00    +0.000 C 
ATOM     27  S   UNL     1       7.207   5.132  17.092  0.00  0.00    +0.000 S 
ATOM     28  O   UNL     1       8.201   4.113  17.390  0.00  0.00    +0.000 OA
ATOM     29  O   UNL     1       7.397   6.095  16.032  0.00  0.00    +0.000 OA
ATOM     30  C   UNL     1       5.618   4.343  16.922  0.00  0.00    +0.000 C 
ENDBRANCH  22  24
ENDBRANCH  19  21
ENDBRANCH  18  19
ENDBRANCH   1  18
TORSDOF 8
ENDMDL
