MODEL 1
REMARK VINA RESULT:      -7.6      0.000      0.000
REMARK  Name = 
REMARK  6 active torsions:
REMARK  status: ('A' for Active; 'I' for Inactive)
REMARK    1  A    between atoms: C_1  and  N_2
REMARK    2  A    between atoms: N_2  and  C_19
REMARK    3  A    between atoms: C_3  and  C_5
REMARK    4  A    between atoms: C_5  and  C_6
REMARK    5  A    between atoms: C_6  and  C_7
REMARK    6  A    between atoms: C_7  and  N_8
REMARK                            x       y       z     vdW  Elec       q    Type
REMARK                         _______ _______ _______ _____ _____    ______ ____
ROOT
ATOM      1  C   UNL     1       4.778   6.794  17.751  0.00  0.00    +0.000 C 
ENDROOT
BRANCH   1   2
ATOM      2  C   UNL     1       5.156   5.358  17.378  0.00  0.00    +0.000 C 
BRANCH   2   5
ATOM      3  C   UNL     1       4.714   2.749  20.135  0.00  0.00    +0.000 C 
ATOM      4  N   UNL     1       4.518   3.445  18.867  0.00  0.00    +0.000 N 
ATOM      5  C   UNL     1       5.393   4.506  18.622  0.00  0.00    +0.000 C 
ATOM      6  O   UNL     1       6.311   4.791  19.398  0.00  0.00    +0.000 OA
BRANCH   4   7
ATOM      7  C   UNL     1       3.668   2.833  17.810  0.00  0.00    +0.000 C 
ATOM      8  C   UNL     1       3.027   1.516  18.281  0.00  0.00    +0.000 C 
ATOM      9  C   UNL     1       1.877   1.736  19.254  0.00  0.00    +0.000 C 
ATOM     10  C   UNL     1       0.804   2.651  18.672  0.00  0.00    +0.000 C 
ATOM     11  C   UNL     1       1.345   3.945  18.078  0.00  0.00    +0.000 C 
ATOM     12  C   UNL     1       2.579   3.736  17.196  0.00  0.00    +0.000 C 
ENDBRANCH   4   7
ENDBRANCH   2   5
ENDBRANCH   1   2
BRANCH   1  13
ATOM     13  C   UNL     1       3.362   7.147  17.299  0.00  0.00    +0.000 C 
BRANCH  13  14
ATOM     14  N   UNL     1       2.617   7.796  18.361  0.00  0.00    +0.000 N 
ATOM     15  C   UNL     1       2.005   9.015  18.233  0.00  0.00    +0.000 C 
ATOM     16  O   UNL     1       2.008   9.778  17.292  0.00  0.00    +0.000 OA
ATOM     17  C   UNL     1       1.298   9.258  19.490  0.00  0.00    +0.000 A 
ATOM     18  C   UNL     1       0.520  10.326  19.887  0.00  0.00    +0.000 A 
ATOM     19  C   UNL     1      -0.055  10.261  21.161  0.00  0.00    +0.000 A 
ATOM     20  C   UNL     1       0.161   9.145  21.996  0.00  0.00    +0.000 A 
ATOM     21  C   UNL     1       0.957   8.076  21.572  0.00  0.00    +0.000 A 
ATOM     22  C   UNL     1       1.511   8.162  20.308  0.00  0.00    +0.000 A 
ATOM     23  C   UNL     1       2.357   7.221  19.577  0.00  0.00    +0.000 C 
ATOM     24  O   UNL     1       2.719   6.146  20.011  0.00  0.00    +0.000 OA
ENDBRANCH  13  14
ENDBRANCH   1  13
TORSDOF 5
ENDMDL
MODEL 2
REMARK VINA RESULT:      -7.3      5.826      8.946
REMARK  Name = 
REMARK  6 active torsions:
REMARK  status: ('A' for Active; 'I' for Inactive)
REMARK    1  A    between atoms: C_1  and  N_2
REMARK    2  A    between atoms: N_2  and  C_19
REMARK    3  A    between atoms: C_3  and  C_5
REMARK    4  A    between atoms: C_5  and  C_6
REMARK    5  A    between atoms: C_6  and  C_7
REMARK    6  A    between atoms: C_7  and  N_8
REMARK                            x       y       z     vdW  Elec       q    Type
REMARK                         _______ _______ _______ _____ _____    ______ ____
ROOT
ATOM      1  C   UNL     1       8.324   8.317  18.596  0.00  0.00    +0.000 C 
ENDROOT
BRANCH   1   2
ATOM      2  C   UNL     1       8.632   9.776  18.250  0.00  0.00    +0.000 C 
BRANCH   2   5
ATOM      3  C   UNL     1      11.132  11.911  20.198  0.00  0.00    +0.000 C 
ATOM      4  N   UNL     1      10.380  11.375  19.067  0.00  0.00    +0.000 N 
ATOM      5  C   UNL     1       9.365  10.474  19.393  0.00  0.00    +0.000 C 
ATOM      6  O   UNL     1       9.081  10.202  20.563  0.00  0.00    +0.000 OA
BRANCH   4   7
ATOM      7  C   UNL     1      10.499  12.015  17.728  0.00  0.00    +0.000 C 
ATOM      8  C   UNL     1       9.356  13.012  17.466  0.00  0.00    +0.000 C 
ATOM      9  C   UNL     1       9.519  14.312  18.242  0.00  0.00    +0.000 C 
ATOM     10  C   UNL     1      10.860  14.982  17.958  0.00  0.00    +0.000 C 
ATOM     11  C   UNL     1      12.060  14.050  18.086  0.00  0.00    +0.000 C 
ATOM     12  C   UNL     1      11.846  12.694  17.409  0.00  0.00    +0.000 C 
ENDBRANCH   4   7
ENDBRANCH   2   5
ENDBRANCH   1   2
BRANCH   1  13
ATOM     13  C   UNL     1       7.897   7.517  17.366  0.00  0.00    +0.000 C 
BRANCH  13  14
ATOM     14  N   UNL     1       6.821   6.597  17.684  0.00  0.00    +0.000 N 
ATOM     15  C   UNL     1       5.684   6.461  16.932  0.00  0.00    +0.000 C 
ATOM     16  O   UNL     1       5.338   7.077  15.948  0.00  0.00    +0.000 OA
ATOM     17  C   UNL     1       4.912   5.379  17.541  0.00  0.00    +0.000 A 
ATOM     18  C   UNL     1       3.698   4.832  17.180  0.00  0.00    +0.000 A 
ATOM     19  C   UNL     1       3.216   3.772  17.955  0.00  0.00    +0.000 A 
ATOM     20  C   UNL     1       3.950   3.292  19.061  0.00  0.00    +0.000 A 
ATOM     21  C   UNL     1       5.177   3.866  19.410  0.00  0.00    +0.000 A 
ATOM     22  C   UNL     1       5.633   4.910  18.626  0.00  0.00    +0.000 A 
ATOM     23  C   UNL     1       6.863   5.694  18.712  0.00  0.00    +0.000 C 
ATOM     24  O   UNL     1       7.726   5.523  19.550  0.00  0.00    +0.000 OA
ENDBRANCH  13  14
ENDBRANCH   1  13
TORSDOF 5
ENDMDL
MODEL 3
REMARK VINA RESULT:      -7.3      3.047      6.570
REMARK  Name = 
REMARK  6 active torsions:
REMARK  status: ('A' for Active; 'I' for Inactive)
REMARK    1  A    between atoms: C_1  and  N_2
REMARK    2  A    between atoms: N_2  and  C_19
REMARK    3  A    between atoms: C_3  and  C_5
REMARK    4  A    between atoms: C_5  and  C_6
REMARK    5  A    between atoms: C_6  and  C_7
REMARK    6  A    between atoms: C_7  and  N_8
REMARK                            x       y       z     vdW  Elec       q    Type
REMARK                         _______ _______ _______ _____ _____    ______ ____
ROOT
ATOM      1  C   UNL     1       4.960   6.757  17.884  0.00  0.00    +0.000 C 
ENDROOT
BRANCH   1   2
ATOM      2  C   UNL     1       3.460   6.576  17.636  0.00  0.00    +0.000 C 
BRANCH   2   5
ATOM      3  C   UNL     1       1.343   6.195  20.794  0.00  0.00    +0.000 C 
ATOM      4  N   UNL     1       2.224   5.836  19.687  0.00  0.00    +0.000 N 
ATOM      5  C   UNL     1       2.648   6.899  18.887  0.00  0.00    +0.000 C 
ATOM      6  O   UNL     1       2.349   8.070  19.142  0.00  0.00    +0.000 OA
BRANCH   4   7
ATOM      7  C   UNL     1       2.858   4.490  19.651  0.00  0.00    +0.000 C 
ATOM      8  C   UNL     1       2.713   3.751  20.994  0.00  0.00    +0.000 C 
ATOM      9  C   UNL     1       1.305   3.221  21.225  0.00  0.00    +0.000 C 
ATOM     10  C   UNL     1       0.843   2.314  20.088  0.00  0.00    +0.000 C 
ATOM     11  C   UNL     1       1.042   2.909  18.699  0.00  0.00    +0.000 C 
ATOM     12  C   UNL     1       2.417   3.553  18.509  0.00  0.00    +0.000 C 
ENDBRANCH   4   7
ENDBRANCH   2   5
ENDBRANCH   1   2
BRANCH   1  13
ATOM     13  C   UNL     1       5.709   5.426  17.844  0.00  0.00    +0.000 C 
BRANCH  13  14
ATOM     14  N   UNL     1       6.033   5.045  16.482  0.00  0.00    +0.000 N 
ATOM     15  C   UNL     1       5.304   4.152  15.743  0.00  0.00    +0.000 C 
ATOM     16  O   UNL     1       4.339   3.496  16.068  0.00  0.00    +0.000 OA
ATOM     17  C   UNL     1       5.910   4.122  14.413  0.00  0.00    +0.000 A 
ATOM     18  C   UNL     1       5.566   3.401  13.288  0.00  0.00    +0.000 A 
ATOM     19  C   UNL     1       6.332   3.607  12.135  0.00  0.00    +0.000 A 
ATOM     20  C   UNL     1       7.413   4.514  12.137  0.00  0.00    +0.000 A 
ATOM     21  C   UNL     1       7.745   5.230  13.292  0.00  0.00    +0.000 A 
ATOM     22  C   UNL     1       6.970   5.013  14.416  0.00  0.00    +0.000 A 
ATOM     23  C   UNL     1       7.044   5.608  15.749  0.00  0.00    +0.000 C 
ATOM     24  O   UNL     1       7.860   6.445  16.080  0.00  0.00    +0.000 OA
ENDBRANCH  13  14
ENDBRANCH   1  13
TORSDOF 5
ENDMDL
MODEL 4
REMARK VINA RESULT:      -7.3      2.285      4.387
REMARK  Name = 
REMARK  6 active torsions:
REMARK  status: ('A' for Active; 'I' for Inactive)
REMARK    1  A    between atoms: C_1  and  N_2
REMARK    2  A    between atoms: N_2  and  C_19
REMARK    3  A    between atoms: C_3  and  C_5
REMARK    4  A    between atoms: C_5  and  C_6
REMARK    5  A    between atoms: C_6  and  C_7
REMARK    6  A    between atoms: C_7  and  N_8
REMARK                            x       y       z     vdW  Elec       q    Type
REMARK                         _______ _______ _______ _____ _____    ______ ____
ROOT
ATOM      1  C   UNL     1       1.617   8.652  17.913  0.00  0.00    +0.000 C 
ENDROOT
BRANCH   1   2
ATOM      2  C   UNL     1       3.023   8.069  17.747  0.00  0.00    +0.000 C 
BRANCH   2   5
ATOM      3  C   UNL     1       3.763   4.321  17.649  0.00  0.00    +0.000 C 
ATOM      4  N   UNL     1       3.872   5.745  17.346  0.00  0.00    +0.000 N 
ATOM      5  C   UNL     1       3.055   6.586  18.104  0.00  0.00    +0.000 C 
ATOM      6  O   UNL     1       2.338   6.156  19.014  0.00  0.00    +0.000 OA
BRANCH   4   7
ATOM      7  C   UNL     1       5.011   6.243  16.527  0.00  0.00    +0.000 C 
ATOM      8  C   UNL     1       6.204   6.670  17.402  0.00  0.00    +0.000 C 
ATOM      9  C   UNL     1       6.969   5.485  17.974  0.00  0.00    +0.000 C 
ATOM     10  C   UNL     1       7.448   4.534  16.881  0.00  0.00    +0.000 C 
ATOM     11  C   UNL     1       6.364   4.129  15.889  0.00  0.00    +0.000 C 
ATOM     12  C   UNL     1       5.514   5.308  15.409  0.00  0.00    +0.000 C 
ENDBRANCH   4   7
ENDBRANCH   2   5
ENDBRANCH   1   2
BRANCH   1  13
ATOM     13  C   UNL     1       1.652  10.143  18.240  0.00  0.00    +0.000 C 
BRANCH  13  14
ATOM     14  N   UNL     1       0.754  10.463  19.334  0.00  0.00    +0.000 N 
ATOM     15  C   UNL     1       0.781   9.841  20.554  0.00  0.00    +0.000 C 
ATOM     16  O   UNL     1       1.472   8.919  20.928  0.00  0.00    +0.000 OA
ATOM     17  C   UNL     1      -0.214  10.516  21.386  0.00  0.00    +0.000 A 
ATOM     18  C   UNL     1      -0.586  10.294  22.695  0.00  0.00    +0.000 A 
ATOM     19  C   UNL     1      -1.567  11.133  23.235  0.00  0.00    +0.000 A 
ATOM     20  C   UNL     1      -2.147  12.160  22.460  0.00  0.00    +0.000 A 
ATOM     21  C   UNL     1      -1.756  12.362  21.132  0.00  0.00    +0.000 A 
ATOM     22  C   UNL     1      -0.783  11.523  20.623  0.00  0.00    +0.000 A 
ATOM     23  C   UNL     1      -0.154  11.488  19.305  0.00  0.00    +0.000 C 
ATOM     24  O   UNL     1      -0.419  12.255  18.400  0.00  0.00    +0.000 OA
ENDBRANCH  13  14
ENDBRANCH   1  13
TORSDOF 5
ENDMDL
MODEL 5
REMARK VINA RESULT:      -7.2      1.364      1.961
REMARK  Name = 
REMARK  6 active torsions:
REMARK  status: ('A' for Active; 'I' for Inactive)
REMARK    1  A    between atoms: C_1  and  N_2
REMARK    2  A    between atoms: N_2  and  C_19
REMARK    3  A    between atoms: C_3  and  C_5
REMARK    4  A    between atoms: C_5  and  C_6
REMARK    5  A    between atoms: C_6  and  C_7
REMARK    6  A    between atoms: C_7  and  N_8
REMARK                            x       y       z     vdW  Elec       q    Type
REMARK                         _______ _______ _______ _____ _____    ______ ____
ROOT
ATOM      1  C   UNL     1       3.131   7.883  18.501  0.00  0.00    +0.000 C 
ENDROOT
BRANCH   1   2
ATOM      2  C   UNL     1       3.659   7.041  17.337  0.00  0.00    +0.000 C 
BRANCH   2   5
ATOM      3  C   UNL     1       5.011   3.759  18.751  0.00  0.00    +0.000 C 
ATOM      4  N   UNL     1       4.073   4.713  18.168  0.00  0.00    +0.000 N 
ATOM      5  C   UNL     1       4.612   5.954  17.825  0.00  0.00    +0.000 C 
ATOM      6  O   UNL     1       5.816   6.201  17.947  0.00  0.00    +0.000 OA
BRANCH   4   7
ATOM      7  C   UNL     1       2.743   4.246  17.690  0.00  0.00    +0.000 C 
ATOM      8  C   UNL     1       2.717   2.724  17.461  0.00  0.00    +0.000 C 
ATOM      9  C   UNL     1       2.668   1.934  18.761  0.00  0.00    +0.000 C 
ATOM     10  C   UNL     1       1.484   2.342  19.633  0.00  0.00    +0.000 C 
ATOM     11  C   UNL     1       1.352   3.847  19.837  0.00  0.00    +0.000 C 
ATOM     12  C   UNL     1       1.525   4.650  18.546  0.00  0.00    +0.000 C 
ENDBRANCH   4   7
ENDBRANCH   2   5
ENDBRANCH   1   2
BRANCH   1  13
ATOM     13  C   UNL     1       1.819   8.582  18.151  0.00  0.00    +0.000 C 
BRANCH  13  14
ATOM     14  N   UNL     1       1.213   9.183  19.324  0.00  0.00    +0.000 N 
ATOM     15  C   UNL     1       0.676  10.443  19.348  0.00  0.00    +0.000 C 
ATOM     16  O   UNL     1       0.649  11.280  18.474  0.00  0.00    +0.000 OA
ATOM     17  C   UNL     1       0.097  10.622  20.679  0.00  0.00    +0.000 A 
ATOM     18  C   UNL     1      -0.570  11.697  21.228  0.00  0.00    +0.000 A 
ATOM     19  C   UNL     1      -1.037  11.561  22.540  0.00  0.00    +0.000 A 
ATOM     20  C   UNL     1      -0.825  10.367  23.263  0.00  0.00    +0.000 A 
ATOM     21  C   UNL     1      -0.142   9.292  22.685  0.00  0.00    +0.000 A 
ATOM     22  C   UNL     1       0.306   9.450  21.387  0.00  0.00    +0.000 A 
ATOM     23  C   UNL     1       1.021   8.525  20.510  0.00  0.00    +0.000 C 
ATOM     24  O   UNL     1       1.346   7.397  20.824  0.00  0.00    +0.000 OA
ENDBRANCH  13  14
ENDBRANCH   1  13
TORSDOF 5
ENDMDL
MODEL 6
REMARK VINA RESULT:      -7.2      1.642      3.031
REMARK  Name = 
REMARK  6 active torsions:
REMARK  status: ('A' for Active; 'I' for Inactive)
REMARK    1  A    between atoms: C_1  and  N_2
REMARK    2  A    between atoms: N_2  and  C_19
REMARK    3  A    between atoms: C_3  and  C_5
REMARK    4  A    between atoms: C_5  and  C_6
REMARK    5  A    between atoms: C_6  and  C_7
REMARK    6  A    between atoms: C_7  and  N_8
REMARK                            x       y       z     vdW  Elec       q    Type
REMARK                         _______ _______ _______ _____ _____    ______ ____
ROOT
ATOM      1  C   UNL     1       2.752   8.262  18.421  0.00  0.00    +0.000 C 
ENDROOT
BRANCH   1   2
ATOM      2  C   UNL     1       3.194   7.287  17.327  0.00  0.00    +0.000 C 
BRANCH   2   5
ATOM      3  C   UNL     1       4.521   4.306  19.316  0.00  0.00    +0.000 C 
ATOM      4  N   UNL     1       3.567   5.229  18.708  0.00  0.00    +0.000 N 
ATOM      5  C   UNL     1       4.122   6.210  17.884  0.00  0.00    +0.000 C 
ATOM      6  O   UNL     1       5.331   6.250  17.636  0.00  0.00    +0.000 OA
BRANCH   4   7
ATOM      7  C   UNL     1       2.114   4.910  18.726  0.00  0.00    +0.000 C 
ATOM      8  C   UNL     1       1.735   3.901  17.626  0.00  0.00    +0.000 C 
ATOM      9  C   UNL     1       2.179   2.482  17.951  0.00  0.00    +0.000 C 
ATOM     10  C   UNL     1       1.633   2.007  19.294  0.00  0.00    +0.000 C 
ATOM     11  C   UNL     1       1.861   2.985  20.440  0.00  0.00    +0.000 C 
ATOM     12  C   UNL     1       1.531   4.434  20.072  0.00  0.00    +0.000 C 
ENDBRANCH   4   7
ENDBRANCH   2   5
ENDBRANCH   1   2
BRANCH   1  13
ATOM     13  C   UNL     1       1.499   9.038  18.020  0.00  0.00    +0.000 C 
BRANCH  13  14
ATOM     14  N   UNL     1       0.774   9.505  19.187  0.00  0.00    +0.000 N 
ATOM     15  C   UNL     1       0.822   8.895  20.413  0.00  0.00    +0.000 C 
ATOM     16  O   UNL     1       1.392   7.878  20.741  0.00  0.00    +0.000 OA
ATOM     17  C   UNL     1       0.031   9.726  21.320  0.00  0.00    +0.000 A 
ATOM     18  C   UNL     1      -0.242   9.575  22.664  0.00  0.00    +0.000 A 
ATOM     19  C   UNL     1      -1.020  10.563  23.276  0.00  0.00    +0.000 A 
ATOM     20  C   UNL     1      -1.505  11.663  22.536  0.00  0.00    +0.000 A 
ATOM     21  C   UNL     1      -1.219  11.792  21.173  0.00  0.00    +0.000 A 
ATOM     22  C   UNL     1      -0.444  10.805  20.593  0.00  0.00    +0.000 A 
ATOM     23  C   UNL     1       0.040  10.661  19.221  0.00  0.00    +0.000 C 
ATOM     24  O   UNL     1      -0.188  11.453  18.329  0.00  0.00    +0.000 OA
ENDBRANCH  13  14
ENDBRANCH   1  13
TORSDOF 5
ENDMDL
MODEL 7
REMARK VINA RESULT:      -7.1      5.905      9.121
REMARK  Name = 
REMARK  6 active torsions:
REMARK  status: ('A' for Active; 'I' for Inactive)
REMARK    1  A    between atoms: C_1  and  N_2
REMARK    2  A    between atoms: N_2  and  C_19
REMARK    3  A    between atoms: C_3  and  C_5
REMARK    4  A    between atoms: C_5  and  C_6
REMARK    5  A    between atoms: C_6  and  C_7
REMARK    6  A    between atoms: C_7  and  N_8
REMARK                            x       y       z     vdW  Elec       q    Type
REMARK                         _______ _______ _______ _____ _____    ______ ____
ROOT
ATOM      1  C   UNL     1       8.302   8.453  18.507  0.00  0.00    +0.000 C 
ENDROOT
BRANCH   1   2
ATOM      2  C   UNL     1       8.653   9.910  18.193  0.00  0.00    +0.000 C 
BRANCH   2   5
ATOM      3  C   UNL     1      11.239  11.920  20.162  0.00  0.00    +0.000 C 
ATOM      4  N   UNL     1      10.457  11.436  19.028  0.00  0.00    +0.000 N 
ATOM      5  C   UNL     1       9.421  10.556  19.343  0.00  0.00    +0.000 C 
ATOM      6  O   UNL     1       9.145  10.260  20.510  0.00  0.00    +0.000 OA
BRANCH   4   7
ATOM      7  C   UNL     1      10.576  12.109  17.705  0.00  0.00    +0.000 C 
ATOM      8  C   UNL     1       9.428  13.106  17.464  0.00  0.00    +0.000 C 
ATOM      9  C   UNL     1       9.582  14.388  18.272  0.00  0.00    +0.000 C 
ATOM     10  C   UNL     1      10.920  15.071  18.008  0.00  0.00    +0.000 C 
ATOM     11  C   UNL     1      12.124  14.144  18.116  0.00  0.00    +0.000 C 
ATOM     12  C   UNL     1      11.920  12.803  17.406  0.00  0.00    +0.000 C 
ENDBRANCH   4   7
ENDBRANCH   2   5
ENDBRANCH   1   2
BRANCH   1  13
ATOM     13  C   UNL     1       7.894   7.682  17.253  0.00  0.00    +0.000 C 
BRANCH  13  14
ATOM     14  N   UNL     1       6.883   6.685  17.554  0.00  0.00    +0.000 N 
ATOM     15  C   UNL     1       6.931   5.850  18.639  0.00  0.00    +0.000 C 
ATOM     16  O   UNL     1       7.793   5.738  19.481  0.00  0.00    +0.000 OA
ATOM     17  C   UNL     1       5.692   5.074  18.619  0.00  0.00    +0.000 A 
ATOM     18  C   UNL     1       5.230   4.102  19.483  0.00  0.00    +0.000 A 
ATOM     19  C   UNL     1       3.974   3.549  19.214  0.00  0.00    +0.000 A 
ATOM     20  C   UNL     1       3.219   3.975  18.099  0.00  0.00    +0.000 A 
ATOM     21  C   UNL     1       3.711   4.960  17.236  0.00  0.00    +0.000 A 
ATOM     22  C   UNL     1       4.953   5.493  17.526  0.00  0.00    +0.000 A 
ATOM     23  C   UNL     1       5.722   6.533  16.845  0.00  0.00    +0.000 C 
ATOM     24  O   UNL     1       5.345   7.122  15.851  0.00  0.00    +0.000 OA
ENDBRANCH  13  14
ENDBRANCH   1  13
TORSDOF 5
ENDMDL
MODEL 8
REMARK VINA RESULT:      -7.1      2.472      3.992
REMARK  Name = 
REMARK  6 active torsions:
REMARK  status: ('A' for Active; 'I' for Inactive)
REMARK    1  A    between atoms: C_1  and  N_2
REMARK    2  A    between atoms: N_2  and  C_19
REMARK    3  A    between atoms: C_3  and  C_5
REMARK    4  A    between atoms: C_5  and  C_6
REMARK    5  A    between atoms: C_6  and  C_7
REMARK    6  A    between atoms: C_7  and  N_8
REMARK                            x       y       z     vdW  Elec       q    Type
REMARK                         _______ _______ _______ _____ _____    ______ ____
ROOT
ATOM      1  C   UNL     1       1.013   9.203  18.278  0.00  0.00    +0.000 C 
ENDROOT
BRANCH   1   2
ATOM      2  C   UNL     1       2.237   8.290  18.387  0.00  0.00    +0.000 C 
BRANCH   2   5
ATOM      3  C   UNL     1       1.805   5.125  20.485  0.00  0.00    +0.000 C 
ATOM      4  N   UNL     1       2.049   5.971  19.321  0.00  0.00    +0.000 N 
ATOM      5  C   UNL     1       2.118   7.341  19.578  0.00  0.00    +0.000 C 
ATOM      6  O   UNL     1       2.042   7.798  20.723  0.00  0.00    +0.000 OA
BRANCH   4   7
ATOM      7  C   UNL     1       2.513   5.360  18.045  0.00  0.00    +0.000 C 
ATOM      8  C   UNL     1       4.036   5.140  18.034  0.00  0.00    +0.000 C 
ATOM      9  C   UNL     1       4.467   3.964  18.900  0.00  0.00    +0.000 C 
ATOM     10  C   UNL     1       3.758   2.673  18.503  0.00  0.00    +0.000 C 
ATOM     11  C   UNL     1       2.245   2.806  18.379  0.00  0.00    +0.000 C 
ATOM     12  C   UNL     1       1.810   4.058  17.612  0.00  0.00    +0.000 C 
ENDBRANCH   4   7
ENDBRANCH   2   5
ENDBRANCH   1   2
BRANCH   1  13
ATOM     13  C   UNL     1       1.331  10.635  18.703  0.00  0.00    +0.000 C 
BRANCH  13  14
ATOM     14  N   UNL     1       0.319  11.154  19.604  0.00  0.00    +0.000 N 
ATOM     15  C   UNL     1      -0.862  11.712  19.190  0.00  0.00    +0.000 C 
ATOM     16  O   UNL     1      -1.253  11.928  18.064  0.00  0.00    +0.000 OA
ATOM     17  C   UNL     1      -1.623  12.018  20.400  0.00  0.00    +0.000 A 
ATOM     18  C   UNL     1      -2.873  12.580  20.553  0.00  0.00    +0.000 A 
ATOM     19  C   UNL     1      -3.355  12.726  21.859  0.00  0.00    +0.000 A 
ATOM     20  C   UNL     1      -2.582  12.315  22.966  0.00  0.00    +0.000 A 
ATOM     21  C   UNL     1      -1.315  11.752  22.785  0.00  0.00    +0.000 A 
ATOM     22  C   UNL     1      -0.863  11.614  21.485  0.00  0.00    +0.000 A 
ATOM     23  C   UNL     1       0.384  11.055  20.968  0.00  0.00    +0.000 C 
ATOM     24  O   UNL     1       1.268  10.595  21.664  0.00  0.00    +0.000 OA
ENDBRANCH  13  14
ENDBRANCH   1  13
TORSDOF 5
ENDMDL
MODEL 9
REMARK VINA RESULT:      -7.0      2.493      4.331
REMARK  Name = 
REMARK  6 active torsions:
REMARK  status: ('A' for Active; 'I' for Inactive)
REMARK    1  A    between atoms: C_1  and  N_2
REMARK    2  A    between atoms: N_2  and  C_19
REMARK    3  A    between atoms: C_3  and  C_5
REMARK    4  A    between atoms: C_5  and  C_6
REMARK    5  A    between atoms: C_6  and  C_7
REMARK    6  A    between atoms: C_7  and  N_8
REMARK                            x       y       z     vdW  Elec       q    Type
REMARK                         _______ _______ _______ _____ _____    ______ ____
ROOT
ATOM      1  C   UNL     1       1.048   9.294  18.143  0.00  0.00    +0.000 C 
ENDROOT
BRANCH   1   2
ATOM      2  C   UNL     1       2.271   8.382  18.277  0.00  0.00    +0.000 C 
BRANCH   2   5
ATOM      3  C   UNL     1       1.895   5.239  20.417  0.00  0.00    +0.000 C 
ATOM      4  N   UNL     1       2.155   6.075  19.248  0.00  0.00    +0.000 N 
ATOM      5  C   UNL     1       2.140   7.451  19.479  0.00  0.00    +0.000 C 
ATOM      6  O   UNL     1       1.983   7.925  20.609  0.00  0.00    +0.000 OA
BRANCH   4   7
ATOM      7  C   UNL     1       2.712   5.465  18.010  0.00  0.00    +0.000 C 
ATOM      8  C   UNL     1       4.225   5.206  18.130  0.00  0.00    +0.000 C 
ATOM      9  C   UNL     1       4.550   4.011  19.015  0.00  0.00    +0.000 C 
ATOM     10  C   UNL     1       3.848   2.743  18.542  0.00  0.00    +0.000 C 
ATOM     11  C   UNL     1       2.355   2.916  18.288  0.00  0.00    +0.000 C 
ATOM     12  C   UNL     1       2.019   4.186  17.502  0.00  0.00    +0.000 C 
ENDBRANCH   4   7
ENDBRANCH   2   5
ENDBRANCH   1   2
BRANCH   1  13
ATOM     13  C   UNL     1       1.313  10.690  18.704  0.00  0.00    +0.000 C 
BRANCH  13  14
ATOM     14  N   UNL     1       0.244  11.113  19.589  0.00  0.00    +0.000 N 
ATOM     15  C   UNL     1       0.333  11.104  20.956  0.00  0.00    +0.000 C 
ATOM     16  O   UNL     1       1.236  10.713  21.662  0.00  0.00    +0.000 OA
ATOM     17  C   UNL     1      -0.912  11.685  21.456  0.00  0.00    +0.000 A 
ATOM     18  C   UNL     1      -1.337  11.917  22.748  0.00  0.00    +0.000 A 
ATOM     19  C   UNL     1      -2.588  12.520  22.914  0.00  0.00    +0.000 A 
ATOM     20  C   UNL     1      -3.376  12.869  21.796  0.00  0.00    +0.000 A 
ATOM     21  C   UNL     1      -2.926  12.620  20.496  0.00  0.00    +0.000 A 
ATOM     22  C   UNL     1      -1.684  12.027  20.359  0.00  0.00    +0.000 A 
ATOM     23  C   UNL     1      -0.934  11.661  19.159  0.00  0.00    +0.000 C 
ATOM     24  O   UNL     1      -1.329  11.843  18.024  0.00  0.00    +0.000 OA
ENDBRANCH  13  14
ENDBRANCH   1  13
TORSDOF 5
ENDMDL
