MODEL 1
REMARK VINA RESULT:      -8.2      0.000      0.000
REMARK  Name = 
REMARK  9 active torsions:
REMARK  status: ('A' for Active; 'I' for Inactive)
REMARK    1  A    between atoms: C_1  and  C_2
REMARK    2  A    between atoms: N_5  and  C_6
REMARK    3  A    between atoms: C_6  and  C_7
REMARK    4  A    between atoms: C_7  and  C_8
REMARK    5  A    between atoms: C_8  and  N_9
REMARK    6  A    between atoms: C_15  and  C_16
REMARK    7  A    between atoms: C_20  and  C_21
REMARK    8  A    between atoms: C_24  and  O_25
REMARK    9  A    between atoms: O_25  and  C_26
REMARK                            x       y       z     vdW  Elec       q    Type
REMARK                         _______ _______ _______ _____ _____    ______ ____
ROOT
ATOM      1  C   UNL     1      -0.010  10.194  22.345  0.00  0.00    +0.000 C 
ATOM      2  C   UNL     1       0.597   9.906  21.006  0.00  0.00    +0.000 A 
ATOM      3  N   UNL     1       0.718  10.917  20.129  0.00  0.00    +0.000 NA
ATOM      4  C   UNL     1       1.259  10.631  18.934  0.00  0.00    +0.000 A 
ATOM      5  N   UNL     1       1.507  11.639  17.990  0.00  0.00    +0.000 N 
ATOM      6  C   UNL     1       1.682   9.361  18.615  0.00  0.00    +0.000 A 
ATOM      7  C   UNL     1       1.598   8.395  19.596  0.00  0.00    +0.000 A 
ATOM      8  N   UNL     1       1.021   8.648  20.789  0.00  0.00    +0.000 NA
ATOM      9  H   UNL     1       1.035  11.441  17.111  0.00  0.00    +0.000 HD
ENDROOT
BRANCH   7  10
ATOM     10  C   UNL     1       2.204   7.065  19.444  0.00  0.00    +0.000 A 
ATOM     11  C   UNL     1       2.143   6.117  20.462  0.00  0.00    +0.000 A 
ATOM     12  N   UNL     1       2.706   4.888  20.400  0.00  0.00    +0.000 NA
ATOM     13  C   UNL     1       3.405   4.594  19.279  0.00  0.00    +0.000 A 
ATOM     14  C   UNL     1       3.569   5.447  18.186  0.00  0.00    +0.000 A 
ATOM     15  C   UNL     1       2.926   6.693  18.294  0.00  0.00    +0.000 A 
BRANCH  14  16
ATOM     16  C   UNL     1       4.405   5.088  17.019  0.00  0.00    +0.000 A 
ATOM     17  C   UNL     1       4.739   3.757  16.729  0.00  0.00    +0.000 A 
ATOM     18  C   UNL     1       5.580   3.434  15.658  0.00  0.00    +0.000 A 
ATOM     19  C   UNL     1       6.091   4.428  14.823  0.00  0.00    +0.000 A 
ATOM     20  C   UNL     1       5.789   5.755  15.100  0.00  0.00    +0.000 A 
ATOM     21  C   UNL     1       4.946   6.077  16.175  0.00  0.00    +0.000 A 
BRANCH  19  22
ATOM     22  O   UNL     1       6.910   3.980  13.836  0.00  0.00    +0.000 OA
BRANCH  22  23
ATOM     23  C   UNL     1       6.370   3.678  12.557  0.00  0.00    +0.000 C 
ATOM     24  F   UNL     1       6.610   2.421  12.132  0.00  0.00    +0.000 F 
ATOM     25  F   UNL     1       5.034   3.883  12.578  0.00  0.00    +0.000 F 
ATOM     26  F   UNL     1       6.911   4.528  11.655  0.00  0.00    +0.000 F 
ENDBRANCH  22  23
ENDBRANCH  19  22
ENDBRANCH  14  16
ENDBRANCH   7  10
BRANCH   5  27
ATOM     27  C   UNL     1       1.410  13.012  18.446  0.00  0.00    +0.000 C 
BRANCH  27  28
ATOM     28  C   UNL     1       2.819  13.550  18.701  0.00  0.00    +0.000 C 
BRANCH  28  29
ATOM     29  C   UNL     1       3.094  14.818  17.910  0.00  0.00    +0.000 C 
BRANCH  29  30
ATOM     30  N   UNL     1       3.057  15.990  18.762  0.00  0.00    +0.000 N 
ATOM     31  C   UNL     1       1.938  16.578  19.281  0.00  0.00    +0.000 A 
ATOM     32  C   UNL     1       2.410  17.632  20.028  0.00  0.00    +0.000 A 
ATOM     33  N   UNL     1       3.778  17.702  19.964  0.00  0.00    +0.000 NA
ATOM     34  C   UNL     1       4.139  16.704  19.188  0.00  0.00    +0.000 A 
ENDBRANCH  29  30
ENDBRANCH  28  29
ENDBRANCH  27  28
ENDBRANCH   5  27
TORSDOF 8
ENDMDL
MODEL 2
REMARK VINA RESULT:      -8.0      1.711      2.225
REMARK  Name = 
REMARK  9 active torsions:
REMARK  status: ('A' for Active; 'I' for Inactive)
REMARK    1  A    between atoms: C_1  and  C_2
REMARK    2  A    between atoms: N_5  and  C_6
REMARK    3  A    between atoms: C_6  and  C_7
REMARK    4  A    between atoms: C_7  and  C_8
REMARK    5  A    between atoms: C_8  and  N_9
REMARK    6  A    between atoms: C_15  and  C_16
REMARK    7  A    between atoms: C_20  and  C_21
REMARK    8  A    between atoms: C_24  and  O_25
REMARK    9  A    between atoms: O_25  and  C_26
REMARK                            x       y       z     vdW  Elec       q    Type
REMARK                         _______ _______ _______ _____ _____    ______ ____
ROOT
ATOM      1  C   UNL     1      -1.491  11.652  20.118  0.00  0.00    +0.000 C 
ATOM      2  C   UNL     1      -0.200  11.338  19.427  0.00  0.00    +0.000 A 
ATOM      3  N   UNL     1       0.488  12.348  18.868  0.00  0.00    +0.000 NA
ATOM      4  C   UNL     1       1.638  12.038  18.249  0.00  0.00    +0.000 A 
ATOM      5  N   UNL     1       2.466  13.037  17.716  0.00  0.00    +0.000 N 
ATOM      6  C   UNL     1       2.105  10.745  18.192  0.00  0.00    +0.000 A 
ATOM      7  C   UNL     1       1.384   9.776  18.859  0.00  0.00    +0.000 A 
ATOM      8  N   UNL     1       0.206  10.055  19.452  0.00  0.00    +0.000 NA
ATOM      9  H   UNL     1       2.632  12.884  16.724  0.00  0.00    +0.000 HD
ENDROOT
BRANCH   7  10
ATOM     10  C   UNL     1       1.889   8.408  19.043  0.00  0.00    +0.000 A 
ATOM     11  C   UNL     1       1.724   7.728  20.246  0.00  0.00    +0.000 A 
ATOM     12  N   UNL     1       2.190   6.481  20.492  0.00  0.00    +0.000 NA
ATOM     13  C   UNL     1       2.898   5.889  19.502  0.00  0.00    +0.000 A 
ATOM     14  C   UNL     1       3.160   6.453  18.252  0.00  0.00    +0.000 A 
ATOM     15  C   UNL     1       2.614   7.732  18.043  0.00  0.00    +0.000 A 
BRANCH  14  16
ATOM     16  C   UNL     1       4.000   5.777  17.238  0.00  0.00    +0.000 A 
ATOM     17  C   UNL     1       4.046   4.379  17.128  0.00  0.00    +0.000 A 
ATOM     18  C   UNL     1       4.890   3.750  16.206  0.00  0.00    +0.000 A 
ATOM     19  C   UNL     1       5.692   4.496  15.343  0.00  0.00    +0.000 A 
ATOM     20  C   UNL     1       5.678   5.881  15.445  0.00  0.00    +0.000 A 
ATOM     21  C   UNL     1       4.832   6.510  16.371  0.00  0.00    +0.000 A 
BRANCH  19  22
ATOM     22  O   UNL     1       6.479   3.760  14.514  0.00  0.00    +0.000 OA
BRANCH  22  23
ATOM     23  C   UNL     1       6.200   3.734  13.121  0.00  0.00    +0.000 C 
ATOM     24  F   UNL     1       6.951   4.578  12.384  0.00  0.00    +0.000 F 
ATOM     25  F   UNL     1       6.374   2.477  12.655  0.00  0.00    +0.000 F 
ATOM     26  F   UNL     1       4.903   4.073  12.941  0.00  0.00    +0.000 F 
ENDBRANCH  22  23
ENDBRANCH  19  22
ENDBRANCH  14  16
ENDBRANCH   7  10
BRANCH   5  27
ATOM     27  C   UNL     1       2.175  14.408  18.087  0.00  0.00    +0.000 C 
BRANCH  27  28
ATOM     28  C   UNL     1       3.451  15.241  17.948  0.00  0.00    +0.000 C 
BRANCH  28  29
ATOM     29  C   UNL     1       4.657  14.532  18.541  0.00  0.00    +0.000 C 
BRANCH  29  30
ATOM     30  N   UNL     1       5.856  15.338  18.419  0.00  0.00    +0.000 N 
ATOM     31  C   UNL     1       6.028  16.609  18.890  0.00  0.00    +0.000 A 
ATOM     32  C   UNL     1       7.320  16.937  18.552  0.00  0.00    +0.000 A 
ATOM     33  N   UNL     1       7.925  15.906  17.881  0.00  0.00    +0.000 NA
ATOM     34  C   UNL     1       7.017  14.959  17.809  0.00  0.00    +0.000 A 
ENDBRANCH  29  30
ENDBRANCH  28  29
ENDBRANCH  27  28
ENDBRANCH   5  27
TORSDOF 8
ENDMDL
MODEL 3
REMARK VINA RESULT:      -8.0      0.837      1.423
REMARK  Name = 
REMARK  9 active torsions:
REMARK  status: ('A' for Active; 'I' for Inactive)
REMARK    1  A    between atoms: C_1  and  C_2
REMARK    2  A    between atoms: N_5  and  C_6
REMARK    3  A    between atoms: C_6  and  C_7
REMARK    4  A    between atoms: C_7  and  C_8
REMARK    5  A    between atoms: C_8  and  N_9
REMARK    6  A    between atoms: C_15  and  C_16
REMARK    7  A    between atoms: C_20  and  C_21
REMARK    8  A    between atoms: C_24  and  O_25
REMARK    9  A    between atoms: O_25  and  C_26
REMARK                            x       y       z     vdW  Elec       q    Type
REMARK                         _______ _______ _______ _____ _____    ______ ____
ROOT
ATOM      1  C   UNL     1      -0.381  11.028  21.533  0.00  0.00    +0.000 C 
ATOM      2  C   UNL     1       0.505  10.680  20.376  0.00  0.00    +0.000 A 
ATOM      3  N   UNL     1       0.943  11.674  19.585  0.00  0.00    +0.000 NA
ATOM      4  C   UNL     1       1.729  11.334  18.552  0.00  0.00    +0.000 A 
ATOM      5  N   UNL     1       2.307  12.312  17.728  0.00  0.00    +0.000 N 
ATOM      6  C   UNL     1       2.085  10.027  18.310  0.00  0.00    +0.000 A 
ATOM      7  C   UNL     1       1.661   9.073  19.212  0.00  0.00    +0.000 A 
ATOM      8  N   UNL     1       0.837   9.384  20.234  0.00  0.00    +0.000 NA
ATOM      9  H   UNL     1       2.048  12.168  16.754  0.00  0.00    +0.000 HD
ENDROOT
BRANCH   7  10
ATOM     10  C   UNL     1       2.145   7.686  19.176  0.00  0.00    +0.000 A 
ATOM     11  C   UNL     1       1.898   6.801  20.221  0.00  0.00    +0.000 A 
ATOM     12  N   UNL     1       2.341   5.523  20.266  0.00  0.00    +0.000 NA
ATOM     13  C   UNL     1       3.108   5.109  19.231  0.00  0.00    +0.000 A 
ATOM     14  C   UNL     1       3.454   5.886  18.124  0.00  0.00    +0.000 A 
ATOM     15  C   UNL     1       2.930   7.190  18.117  0.00  0.00    +0.000 A 
BRANCH  14  16
ATOM     16  C   UNL     1       4.355   5.391  17.059  0.00  0.00    +0.000 A 
ATOM     17  C   UNL     1       4.955   6.258  16.133  0.00  0.00    +0.000 A 
ATOM     18  C   UNL     1       5.756   5.772  15.094  0.00  0.00    +0.000 A 
ATOM     19  C   UNL     1       6.010   4.407  14.963  0.00  0.00    +0.000 A 
ATOM     20  C   UNL     1       5.413   3.526  15.855  0.00  0.00    +0.000 A 
ATOM     21  C   UNL     1       4.609   4.015  16.897  0.00  0.00    +0.000 A 
BRANCH  19  22
ATOM     22  O   UNL     1       6.786   4.069  13.899  0.00  0.00    +0.000 OA
BRANCH  22  23
ATOM     23  C   UNL     1       6.173   3.668  12.682  0.00  0.00    +0.000 C 
ATOM     24  F   UNL     1       4.856   3.953  12.599  0.00  0.00    +0.000 F 
ATOM     25  F   UNL     1       6.811   4.255  11.646  0.00  0.00    +0.000 F 
ATOM     26  F   UNL     1       6.312   2.329  12.557  0.00  0.00    +0.000 F 
ENDBRANCH  22  23
ENDBRANCH  19  22
ENDBRANCH  14  16
ENDBRANCH   7  10
BRANCH   5  27
ATOM     27  C   UNL     1       2.243  13.686  18.185  0.00  0.00    +0.000 C 
BRANCH  27  28
ATOM     28  C   UNL     1       3.486  14.430  17.694  0.00  0.00    +0.000 C 
BRANCH  28  29
ATOM     29  C   UNL     1       3.267  15.933  17.650  0.00  0.00    +0.000 C 
BRANCH  29  30
ATOM     30  N   UNL     1       3.946  16.598  18.745  0.00  0.00    +0.000 N 
ATOM     31  C   UNL     1       3.357  17.130  19.858  0.00  0.00    +0.000 A 
ATOM     32  C   UNL     1       4.400  17.626  20.604  0.00  0.00    +0.000 A 
ATOM     33  N   UNL     1       5.597  17.419  19.967  0.00  0.00    +0.000 NA
ATOM     34  C   UNL     1       5.291  16.804  18.846  0.00  0.00    +0.000 A 
ENDBRANCH  29  30
ENDBRANCH  28  29
ENDBRANCH  27  28
ENDBRANCH   5  27
TORSDOF 8
ENDMDL
MODEL 4
REMARK VINA RESULT:      -7.9      0.750      1.169
REMARK  Name = 
REMARK  9 active torsions:
REMARK  status: ('A' for Active; 'I' for Inactive)
REMARK    1  A    between atoms: C_1  and  C_2
REMARK    2  A    between atoms: N_5  and  C_6
REMARK    3  A    between atoms: C_6  and  C_7
REMARK    4  A    between atoms: C_7  and  C_8
REMARK    5  A    between atoms: C_8  and  N_9
REMARK    6  A    between atoms: C_15  and  C_16
REMARK    7  A    between atoms: C_20  and  C_21
REMARK    8  A    between atoms: C_24  and  O_25
REMARK    9  A    between atoms: O_25  and  C_26
REMARK                            x       y       z     vdW  Elec       q    Type
REMARK                         _______ _______ _______ _____ _____    ______ ____
ROOT
ATOM      1  C   UNL     1      -0.148  10.081  22.535  0.00  0.00    +0.000 C 
ATOM      2  C   UNL     1       0.451   9.815  21.188  0.00  0.00    +0.000 A 
ATOM      3  N   UNL     1       0.547  10.836  20.319  0.00  0.00    +0.000 NA
ATOM      4  C   UNL     1       1.080  10.570  19.116  0.00  0.00    +0.000 A 
ATOM      5  N   UNL     1       1.303  11.590  18.180  0.00  0.00    +0.000 N 
ATOM      6  C   UNL     1       1.521   9.310  18.781  0.00  0.00    +0.000 A 
ATOM      7  C   UNL     1       1.462   8.334  19.754  0.00  0.00    +0.000 A 
ATOM      8  N   UNL     1       0.893   8.566  20.955  0.00  0.00    +0.000 NA
ATOM      9  H   UNL     1       0.825  11.393  17.303  0.00  0.00    +0.000 HD
ENDROOT
BRANCH   7  10
ATOM     10  C   UNL     1       2.088   7.015  19.584  0.00  0.00    +0.000 A 
ATOM     11  C   UNL     1       2.044   6.053  20.589  0.00  0.00    +0.000 A 
ATOM     12  N   UNL     1       2.625   4.834  20.510  0.00  0.00    +0.000 NA
ATOM     13  C   UNL     1       3.327   4.566  19.384  0.00  0.00    +0.000 A 
ATOM     14  C   UNL     1       3.475   5.436  18.302  0.00  0.00    +0.000 A 
ATOM     15  C   UNL     1       2.814   6.670  18.428  0.00  0.00    +0.000 A 
BRANCH  14  16
ATOM     16  C   UNL     1       4.315   5.105  17.129  0.00  0.00    +0.000 A 
ATOM     17  C   UNL     1       4.696   3.786  16.840  0.00  0.00    +0.000 A 
ATOM     18  C   UNL     1       5.540   3.492  15.762  0.00  0.00    +0.000 A 
ATOM     19  C   UNL     1       6.006   4.501  14.921  0.00  0.00    +0.000 A 
ATOM     20  C   UNL     1       5.658   5.817  15.197  0.00  0.00    +0.000 A 
ATOM     21  C   UNL     1       4.812   6.110  16.278  0.00  0.00    +0.000 A 
BRANCH  19  22
ATOM     22  O   UNL     1       6.834   4.082  13.928  0.00  0.00    +0.000 OA
BRANCH  22  23
ATOM     23  C   UNL     1       6.290   3.722  12.666  0.00  0.00    +0.000 C 
ATOM     24  F   UNL     1       4.958   3.909  12.557  0.00  0.00    +0.000 F 
ATOM     25  F   UNL     1       6.910   4.429  11.696  0.00  0.00    +0.000 F 
ATOM     26  F   UNL     1       6.540   2.410  12.454  0.00  0.00    +0.000 F 
ENDBRANCH  22  23
ENDBRANCH  19  22
ENDBRANCH  14  16
ENDBRANCH   7  10
BRANCH   5  27
ATOM     27  C   UNL     1       1.188  12.957  18.649  0.00  0.00    +0.000 C 
BRANCH  27  28
ATOM     28  C   UNL     1       2.494  13.356  19.338  0.00  0.00    +0.000 C 
BRANCH  28  29
ATOM     29  C   UNL     1       2.419  14.754  19.929  0.00  0.00    +0.000 C 
BRANCH  29  30
ATOM     30  N   UNL     1       3.578  15.545  19.565  0.00  0.00    +0.000 N 
ATOM     31  C   UNL     1       4.027  16.666  20.206  0.00  0.00    +0.000 A 
ATOM     32  C   UNL     1       5.152  17.042  19.510  0.00  0.00    +0.000 A 
ATOM     33  N   UNL     1       5.386  16.187  18.463  0.00  0.00    +0.000 NA
ATOM     34  C   UNL     1       4.418  15.299  18.518  0.00  0.00    +0.000 A 
ENDBRANCH  29  30
ENDBRANCH  28  29
ENDBRANCH  27  28
ENDBRANCH   5  27
TORSDOF 8
ENDMDL
MODEL 5
REMARK VINA RESULT:      -7.9      0.967      1.253
REMARK  Name = 
REMARK  9 active torsions:
REMARK  status: ('A' for Active; 'I' for Inactive)
REMARK    1  A    between atoms: C_1  and  C_2
REMARK    2  A    between atoms: N_5  and  C_6
REMARK    3  A    between atoms: C_6  and  C_7
REMARK    4  A    between atoms: C_7  and  C_8
REMARK    5  A    between atoms: C_8  and  N_9
REMARK    6  A    between atoms: C_15  and  C_16
REMARK    7  A    between atoms: C_20  and  C_21
REMARK    8  A    between atoms: C_24  and  O_25
REMARK    9  A    between atoms: O_25  and  C_26
REMARK                            x       y       z     vdW  Elec       q    Type
REMARK                         _______ _______ _______ _____ _____    ______ ____
ROOT
ATOM      1  C   UNL     1       0.312   9.542  23.019  0.00  0.00    +0.000 C 
ATOM      2  C   UNL     1       0.763   9.346  21.603  0.00  0.00    +0.000 A 
ATOM      3  N   UNL     1       0.749  10.405  20.776  0.00  0.00    +0.000 NA
ATOM      4  C   UNL     1       1.151  10.202  19.512  0.00  0.00    +0.000 A 
ATOM      5  N   UNL     1       1.256  11.266  18.604  0.00  0.00    +0.000 N 
ATOM      6  C   UNL     1       1.568   8.965  19.074  0.00  0.00    +0.000 A 
ATOM      7  C   UNL     1       1.629   7.947  20.002  0.00  0.00    +0.000 A 
ATOM      8  N   UNL     1       1.193   8.117  21.267  0.00  0.00    +0.000 NA
ATOM      9  H   UNL     1       0.687  11.098  17.777  0.00  0.00    +0.000 HD
ENDROOT
BRANCH   7  10
ATOM     10  C   UNL     1       2.250   6.649  19.705  0.00  0.00    +0.000 A 
ATOM     11  C   UNL     1       2.218   5.600  20.620  0.00  0.00    +0.000 A 
ATOM     12  N   UNL     1       2.796   4.392  20.424  0.00  0.00    +0.000 NA
ATOM     13  C   UNL     1       3.481   4.226  19.268  0.00  0.00    +0.000 A 
ATOM     14  C   UNL     1       3.615   5.189  18.267  0.00  0.00    +0.000 A 
ATOM     15  C   UNL     1       2.959   6.408  18.512  0.00  0.00    +0.000 A 
BRANCH  14  16
ATOM     16  C   UNL     1       4.438   4.964  17.056  0.00  0.00    +0.000 A 
ATOM     17  C   UNL     1       4.896   3.687  16.700  0.00  0.00    +0.000 A 
ATOM     18  C   UNL     1       5.723   3.496  15.587  0.00  0.00    +0.000 A 
ATOM     19  C   UNL     1       6.094   4.568  14.777  0.00  0.00    +0.000 A 
ATOM     20  C   UNL     1       5.668   5.845  15.119  0.00  0.00    +0.000 A 
ATOM     21  C   UNL     1       4.840   6.036  16.236  0.00  0.00    +0.000 A 
BRANCH  19  22
ATOM     22  O   UNL     1       6.916   4.247  13.743  0.00  0.00    +0.000 OA
BRANCH  22  23
ATOM     23  C   UNL     1       6.363   3.730  12.541  0.00  0.00    +0.000 C 
ATOM     24  F   UNL     1       6.666   2.437  12.298  0.00  0.00    +0.000 F 
ATOM     25  F   UNL     1       5.019   3.863  12.575  0.00  0.00    +0.000 F 
ATOM     26  F   UNL     1       6.832   4.464  11.507  0.00  0.00    +0.000 F 
ENDBRANCH  22  23
ENDBRANCH  19  22
ENDBRANCH  14  16
ENDBRANCH   7  10
BRANCH   5  27
ATOM     27  C   UNL     1       1.176  12.609  19.144  0.00  0.00    +0.000 C 
BRANCH  27  28
ATOM     28  C   UNL     1       0.001  13.337  18.488  0.00  0.00    +0.000 C 
BRANCH  28  29
ATOM     29  C   UNL     1      -0.274  14.678  19.148  0.00  0.00    +0.000 C 
BRANCH  29  30
ATOM     30  N   UNL     1       0.716  15.666  18.771  0.00  0.00    +0.000 N 
ATOM     31  C   UNL     1       0.500  17.005  18.600  0.00  0.00    +0.000 A 
ATOM     32  C   UNL     1       1.730  17.520  18.267  0.00  0.00    +0.000 A 
ATOM     33  N   UNL     1       2.678  16.530  18.222  0.00  0.00    +0.000 NA
ATOM     34  C   UNL     1       2.036  15.423  18.523  0.00  0.00    +0.000 A 
ENDBRANCH  29  30
ENDBRANCH  28  29
ENDBRANCH  27  28
ENDBRANCH   5  27
TORSDOF 8
ENDMDL
MODEL 6
REMARK VINA RESULT:      -7.8      1.057      1.212
REMARK  Name = 
REMARK  9 active torsions:
REMARK  status: ('A' for Active; 'I' for Inactive)
REMARK    1  A    between atoms: C_1  and  C_2
REMARK    2  A    between atoms: N_5  and  C_6
REMARK    3  A    between atoms: C_6  and  C_7
REMARK    4  A    between atoms: C_7  and  C_8
REMARK    5  A    between atoms: C_8  and  N_9
REMARK    6  A    between atoms: C_15  and  C_16
REMARK    7  A    between atoms: C_20  and  C_21
REMARK    8  A    between atoms: C_24  and  O_25
REMARK    9  A    between atoms: O_25  and  C_26
REMARK                            x       y       z     vdW  Elec       q    Type
REMARK                         _______ _______ _______ _____ _____    ______ ____
ROOT
ATOM      1  C   UNL     1      -0.163   9.550  22.729  0.00  0.00    +0.000 C 
ATOM      2  C   UNL     1       0.456   9.356  21.379  0.00  0.00    +0.000 A 
ATOM      3  N   UNL     1       0.531  10.413  20.553  0.00  0.00    +0.000 NA
ATOM      4  C   UNL     1       1.084  10.211  19.346  0.00  0.00    +0.000 A 
ATOM      5  N   UNL     1       1.287  11.274  18.454  0.00  0.00    +0.000 N 
ATOM      6  C   UNL     1       1.562   8.977  18.966  0.00  0.00    +0.000 A 
ATOM      7  C   UNL     1       1.521   7.962  19.898  0.00  0.00    +0.000 A 
ATOM      8  N   UNL     1       0.935   8.130  21.101  0.00  0.00    +0.000 NA
ATOM      9  H   UNL     1       0.823  11.099  17.565  0.00  0.00    +0.000 HD
ENDROOT
BRANCH   7  10
ATOM     10  C   UNL     1       2.186   6.669  19.682  0.00  0.00    +0.000 A 
ATOM     11  C   UNL     1       2.246   5.705  20.684  0.00  0.00    +0.000 A 
ATOM     12  N   UNL     1       2.868   4.509  20.562  0.00  0.00    +0.000 NA
ATOM     13  C   UNL     1       3.503   4.270  19.391  0.00  0.00    +0.000 A 
ATOM     14  C   UNL     1       3.545   5.146  18.305  0.00  0.00    +0.000 A 
ATOM     15  C   UNL     1       2.846   6.353  18.479  0.00  0.00    +0.000 A 
BRANCH  14  16
ATOM     16  C   UNL     1       4.317   4.849  17.077  0.00  0.00    +0.000 A 
ATOM     17  C   UNL     1       4.587   3.533  16.672  0.00  0.00    +0.000 A 
ATOM     18  C   UNL     1       5.369   3.265  15.543  0.00  0.00    +0.000 A 
ATOM     19  C   UNL     1       5.881   4.302  14.764  0.00  0.00    +0.000 A 
ATOM     20  C   UNL     1       5.644   5.613  15.154  0.00  0.00    +0.000 A 
ATOM     21  C   UNL     1       4.860   5.880  16.287  0.00  0.00    +0.000 A 
BRANCH  19  22
ATOM     22  O   UNL     1       6.641   3.904  13.709  0.00  0.00    +0.000 OA
BRANCH  22  23
ATOM     23  C   UNL     1       6.016   3.591  12.473  0.00  0.00    +0.000 C 
ATOM     24  F   UNL     1       6.055   2.283  12.142  0.00  0.00    +0.000 F 
ATOM     25  F   UNL     1       4.726   3.991  12.510  0.00  0.00    +0.000 F 
ATOM     26  F   UNL     1       6.642   4.281  11.493  0.00  0.00    +0.000 F 
ENDBRANCH  22  23
ENDBRANCH  19  22
ENDBRANCH  14  16
ENDBRANCH   7  10
BRANCH   5  27
ATOM     27  C   UNL     1       1.129  12.617  18.976  0.00  0.00    +0.000 C 
BRANCH  27  28
ATOM     28  C   UNL     1       2.052  13.560  18.202  0.00  0.00    +0.000 C 
BRANCH  28  29
ATOM     29  C   UNL     1       1.941  14.993  18.697  0.00  0.00    +0.000 C 
BRANCH  29  30
ATOM     30  N   UNL     1       2.615  15.167  19.968  0.00  0.00    +0.000 N 
ATOM     31  C   UNL     1       3.938  14.938  20.220  0.00  0.00    +0.000 A 
ATOM     32  C   UNL     1       4.104  15.258  21.547  0.00  0.00    +0.000 A 
ATOM     33  N   UNL     1       2.918  15.662  22.103  0.00  0.00    +0.000 NA
ATOM     34  C   UNL     1       2.037  15.590  21.130  0.00  0.00    +0.000 A 
ENDBRANCH  29  30
ENDBRANCH  28  29
ENDBRANCH  27  28
ENDBRANCH   5  27
TORSDOF 8
ENDMDL
MODEL 7
REMARK VINA RESULT:      -7.8      3.190      4.371
REMARK  Name = 
REMARK  9 active torsions:
REMARK  status: ('A' for Active; 'I' for Inactive)
REMARK    1  A    between atoms: C_1  and  C_2
REMARK    2  A    between atoms: N_5  and  C_6
REMARK    3  A    between atoms: C_6  and  C_7
REMARK    4  A    between atoms: C_7  and  C_8
REMARK    5  A    between atoms: C_8  and  N_9
REMARK    6  A    between atoms: C_15  and  C_16
REMARK    7  A    between atoms: C_20  and  C_21
REMARK    8  A    between atoms: C_24  and  O_25
REMARK    9  A    between atoms: O_25  and  C_26
REMARK                            x       y       z     vdW  Elec       q    Type
REMARK                         _______ _______ _______ _____ _____    ______ ____
ROOT
ATOM      1  C   UNL     1      -0.180  10.639  18.249  0.00  0.00    +0.000 C 
ATOM      2  C   UNL     1       0.280   9.856  19.441  0.00  0.00    +0.000 A 
ATOM      3  N   UNL     1      -0.102  10.268  20.662  0.00  0.00    +0.000 NA
ATOM      4  C   UNL     1       0.330   9.553  21.713  0.00  0.00    +0.000 A 
ATOM      5  N   UNL     1      -0.092   9.854  23.017  0.00  0.00    +0.000 N 
ATOM      6  C   UNL     1       1.123   8.439  21.556  0.00  0.00    +0.000 A 
ATOM      7  C   UNL     1       1.406   8.034  20.269  0.00  0.00    +0.000 A 
ATOM      8  N   UNL     1       1.019   8.758  19.198  0.00  0.00    +0.000 NA
ATOM      9  H   UNL     1       0.704  10.037  23.625  0.00  0.00    +0.000 HD
ENDROOT
BRANCH   7  10
ATOM     10  C   UNL     1       2.064   6.753  19.974  0.00  0.00    +0.000 A 
ATOM     11  C   UNL     1       2.059   5.705  20.890  0.00  0.00    +0.000 A 
ATOM     12  N   UNL     1       2.670   4.513  20.696  0.00  0.00    +0.000 NA
ATOM     13  C   UNL     1       3.364   4.366  19.542  0.00  0.00    +0.000 A 
ATOM     14  C   UNL     1       3.474   5.332  18.541  0.00  0.00    +0.000 A 
ATOM     15  C   UNL     1       2.783   6.532  18.784  0.00  0.00    +0.000 A 
BRANCH  14  16
ATOM     16  C   UNL     1       4.306   5.130  17.333  0.00  0.00    +0.000 A 
ATOM     17  C   UNL     1       4.789   3.863  16.970  0.00  0.00    +0.000 A 
ATOM     18  C   UNL     1       5.624   3.694  15.860  0.00  0.00    +0.000 A 
ATOM     19  C   UNL     1       5.981   4.779  15.060  0.00  0.00    +0.000 A 
ATOM     20  C   UNL     1       5.531   6.045  15.409  0.00  0.00    +0.000 A 
ATOM     21  C   UNL     1       4.694   6.214  16.523  0.00  0.00    +0.000 A 
BRANCH  19  22
ATOM     22  O   UNL     1       6.813   4.479  14.028  0.00  0.00    +0.000 OA
BRANCH  22  23
ATOM     23  C   UNL     1       6.287   3.885  12.850  0.00  0.00    +0.000 C 
ATOM     24  F   UNL     1       6.780   4.390  11.700  0.00  0.00    +0.000 F 
ATOM     25  F   UNL     1       6.524   2.555  12.877  0.00  0.00    +0.000 F 
ATOM     26  F   UNL     1       4.948   4.072  12.841  0.00  0.00    +0.000 F 
ENDBRANCH  22  23
ENDBRANCH  19  22
ENDBRANCH  14  16
ENDBRANCH   7  10
BRANCH   5  27
ATOM     27  C   UNL     1      -1.200  10.778  23.159  0.00  0.00    +0.000 C 
BRANCH  27  28
ATOM     28  C   UNL     1      -0.766  12.154  22.649  0.00  0.00    +0.000 C 
BRANCH  28  29
ATOM     29  C   UNL     1      -1.531  13.277  23.329  0.00  0.00    +0.000 C 
BRANCH  29  30
ATOM     30  N   UNL     1      -2.962  13.058  23.262  0.00  0.00    +0.000 N 
ATOM     31  C   UNL     1      -3.841  13.127  24.307  0.00  0.00    +0.000 A 
ATOM     32  C   UNL     1      -5.070  12.863  23.750  0.00  0.00    +0.000 A 
ATOM     33  N   UNL     1      -4.956  12.627  22.404  0.00  0.00    +0.000 NA
ATOM     34  C   UNL     1      -3.673  12.744  22.140  0.00  0.00    +0.000 A 
ENDBRANCH  29  30
ENDBRANCH  28  29
ENDBRANCH  27  28
ENDBRANCH   5  27
TORSDOF 8
ENDMDL
MODEL 8
REMARK VINA RESULT:      -7.7      0.969      1.533
REMARK  Name = 
REMARK  9 active torsions:
REMARK  status: ('A' for Active; 'I' for Inactive)
REMARK    1  A    between atoms: C_1  and  C_2
REMARK    2  A    between atoms: N_5  and  C_6
REMARK    3  A    between atoms: C_6  and  C_7
REMARK    4  A    between atoms: C_7  and  C_8
REMARK    5  A    between atoms: C_8  and  N_9
REMARK    6  A    between atoms: C_15  and  C_16
REMARK    7  A    between atoms: C_20  and  C_21
REMARK    8  A    between atoms: C_24  and  O_25
REMARK    9  A    between atoms: O_25  and  C_26
REMARK                            x       y       z     vdW  Elec       q    Type
REMARK                         _______ _______ _______ _____ _____    ______ ____
ROOT
ATOM      1  C   UNL     1       0.042   9.463  23.164  0.00  0.00    +0.000 C 
ATOM      2  C   UNL     1       0.502   9.293  21.748  0.00  0.00    +0.000 A 
ATOM      3  N   UNL     1       0.423  10.347  20.919  0.00  0.00    +0.000 NA
ATOM      4  C   UNL     1       0.835  10.166  19.655  0.00  0.00    +0.000 A 
ATOM      5  N   UNL     1       0.874  11.233  18.745  0.00  0.00    +0.000 N 
ATOM      6  C   UNL     1       1.328   8.957  19.219  0.00  0.00    +0.000 A 
ATOM      7  C   UNL     1       1.452   7.946  20.149  0.00  0.00    +0.000 A 
ATOM      8  N   UNL     1       1.007   8.091  21.413  0.00  0.00    +0.000 NA
ATOM      9  H   UNL     1       0.316  11.030  17.918  0.00  0.00    +0.000 HD
ENDROOT
BRANCH   7  10
ATOM     10  C   UNL     1       2.151   6.688  19.853  0.00  0.00    +0.000 A 
ATOM     11  C   UNL     1       2.153   5.627  20.755  0.00  0.00    +0.000 A 
ATOM     12  N   UNL     1       2.801   4.455  20.560  0.00  0.00    +0.000 NA
ATOM     13  C   UNL     1       3.525   4.343  19.421  0.00  0.00    +0.000 A 
ATOM     14  C   UNL     1       3.633   5.325  18.436  0.00  0.00    +0.000 A 
ATOM     15  C   UNL     1       2.904   6.503  18.678  0.00  0.00    +0.000 A 
BRANCH  14  16
ATOM     16  C   UNL     1       4.499   5.162  17.246  0.00  0.00    +0.000 A 
ATOM     17  C   UNL     1       4.750   6.222  16.362  0.00  0.00    +0.000 A 
ATOM     18  C   UNL     1       5.520   6.040  15.207  0.00  0.00    +0.000 A 
ATOM     19  C   UNL     1       6.090   4.802  14.914  0.00  0.00    +0.000 A 
ATOM     20  C   UNL     1       5.841   3.732  15.764  0.00  0.00    +0.000 A 
ATOM     21  C   UNL     1       5.068   3.916  16.921  0.00  0.00    +0.000 A 
BRANCH  19  22
ATOM     22  O   UNL     1       6.796   4.757  13.754  0.00  0.00    +0.000 OA
BRANCH  22  23
ATOM     23  C   UNL     1       6.412   3.847  12.733  0.00  0.00    +0.000 C 
ATOM     24  F   UNL     1       7.217   3.851  11.649  0.00  0.00    +0.000 F 
ATOM     25  F   UNL     1       6.374   2.596  13.242  0.00  0.00    +0.000 F 
ATOM     26  F   UNL     1       5.166   4.171  12.321  0.00  0.00    +0.000 F 
ENDBRANCH  22  23
ENDBRANCH  19  22
ENDBRANCH  14  16
ENDBRANCH   7  10
BRANCH   5  27
ATOM     27  C   UNL     1       0.712  12.570  19.283  0.00  0.00    +0.000 C 
BRANCH  27  28
ATOM     28  C   UNL     1       2.059  13.055  19.820  0.00  0.00    +0.000 C 
BRANCH  28  29
ATOM     29  C   UNL     1       2.050  14.547  20.109  0.00  0.00    +0.000 C 
BRANCH  29  30
ATOM     30  N   UNL     1       2.553  15.306  18.982  0.00  0.00    +0.000 N 
ATOM     31  C   UNL     1       2.333  16.633  18.737  0.00  0.00    +0.000 A 
ATOM     32  C   UNL     1       3.021  16.895  17.576  0.00  0.00    +0.000 A 
ATOM     33  N   UNL     1       3.640  15.764  17.110  0.00  0.00    +0.000 NA
ATOM     34  C   UNL     1       3.334  14.821  17.973  0.00  0.00    +0.000 A 
ENDBRANCH  29  30
ENDBRANCH  28  29
ENDBRANCH  27  28
ENDBRANCH   5  27
TORSDOF 8
ENDMDL
MODEL 9
REMARK VINA RESULT:      -7.7      1.571      2.371
REMARK  Name = 
REMARK  9 active torsions:
REMARK  status: ('A' for Active; 'I' for Inactive)
REMARK    1  A    between atoms: C_1  and  C_2
REMARK    2  A    between atoms: N_5  and  C_6
REMARK    3  A    between atoms: C_6  and  C_7
REMARK    4  A    between atoms: C_7  and  C_8
REMARK    5  A    between atoms: C_8  and  N_9
REMARK    6  A    between atoms: C_15  and  C_16
REMARK    7  A    between atoms: C_20  and  C_21
REMARK    8  A    between atoms: C_24  and  O_25
REMARK    9  A    between atoms: O_25  and  C_26
REMARK                            x       y       z     vdW  Elec       q    Type
REMARK                         _______ _______ _______ _____ _____    ______ ____
ROOT
ATOM      1  C   UNL     1      -2.323  11.131  17.211  0.00  0.00    +0.000 C 
ATOM      2  C   UNL     1      -1.015  11.194  17.940  0.00  0.00    +0.000 A 
ATOM      3  N   UNL     1      -0.590  12.388  18.387  0.00  0.00    +0.000 NA
ATOM      4  C   UNL     1       0.588  12.418  19.030  0.00  0.00    +0.000 A 
ATOM      5  N   UNL     1       1.067  13.601  19.611  0.00  0.00    +0.000 N 
ATOM      6  C   UNL     1       1.331  11.278  19.234  0.00  0.00    +0.000 A 
ATOM      7  C   UNL     1       0.791  10.080  18.816  0.00  0.00    +0.000 A 
ATOM      8  N   UNL     1      -0.370  10.029  18.132  0.00  0.00    +0.000 NA
ATOM      9  H   UNL     1       1.985  13.843  19.243  0.00  0.00    +0.000 HD
ENDROOT
BRANCH   7  10
ATOM     10  C   UNL     1       1.391   8.783  19.160  0.00  0.00    +0.000 A 
ATOM     11  C   UNL     1       1.289   8.252  20.443  0.00  0.00    +0.000 A 
ATOM     12  N   UNL     1       1.843   7.081  20.835  0.00  0.00    +0.000 NA
ATOM     13  C   UNL     1       2.577   6.416  19.912  0.00  0.00    +0.000 A 
ATOM     14  C   UNL     1       2.784   6.833  18.596  0.00  0.00    +0.000 A 
ATOM     15  C   UNL     1       2.148   8.035  18.239  0.00  0.00    +0.000 A 
BRANCH  14  16
ATOM     16  C   UNL     1       3.655   6.091  17.657  0.00  0.00    +0.000 A 
ATOM     17  C   UNL     1       3.580   4.696  17.523  0.00  0.00    +0.000 A 
ATOM     18  C   UNL     1       4.451   3.999  16.677  0.00  0.00    +0.000 A 
ATOM     19  C   UNL     1       5.404   4.674  15.916  0.00  0.00    +0.000 A 
ATOM     20  C   UNL     1       5.511   6.053  16.045  0.00  0.00    +0.000 A 
ATOM     21  C   UNL     1       4.638   6.750  16.894  0.00  0.00    +0.000 A 
BRANCH  19  22
ATOM     22  O   UNL     1       6.198   3.876  15.154  0.00  0.00    +0.000 OA
BRANCH  22  23
ATOM     23  C   UNL     1       6.121   3.954  13.739  0.00  0.00    +0.000 C 
ATOM     24  F   UNL     1       6.449   2.813  13.097  0.00  0.00    +0.000 F 
ATOM     25  F   UNL     1       4.868   4.311  13.379  0.00  0.00    +0.000 F 
ATOM     26  F   UNL     1       6.969   4.920  13.319  0.00  0.00    +0.000 F 
ENDBRANCH  22  23
ENDBRANCH  19  22
ENDBRANCH  14  16
ENDBRANCH   7  10
BRANCH   5  27
ATOM     27  C   UNL     1       0.138  14.708  19.723  0.00  0.00    +0.000 C 
BRANCH  27  28
ATOM     28  C   UNL     1       0.610  15.845  18.815  0.00  0.00    +0.000 C 
BRANCH  28  29
ATOM     29  C   UNL     1       1.773  16.611  19.423  0.00  0.00    +0.000 C 
BRANCH  29  30
ATOM     30  N   UNL     1       3.046  16.073  18.987  0.00  0.00    +0.000 N 
ATOM     31  C   UNL     1       4.116  15.779  19.786  0.00  0.00    +0.000 A 
ATOM     32  C   UNL     1       5.069  15.283  18.928  0.00  0.00    +0.000 A 
ATOM     33  N   UNL     1       4.608  15.280  17.636  0.00  0.00    +0.000 NA
ATOM     34  C   UNL     1       3.389  15.768  17.702  0.00  0.00    +0.000 A 
ENDBRANCH  29  30
ENDBRANCH  28  29
ENDBRANCH  27  28
ENDBRANCH   5  27
TORSDOF 8
ENDMDL
