MODEL 1
REMARK VINA RESULT:      -8.3      0.000      0.000
REMARK  Name = 
REMARK  9 active torsions:
REMARK  status: ('A' for Active; 'I' for Inactive)
REMARK    1  A    between atoms: C_1  and  C_2
REMARK    2  A    between atoms: C_2  and  C_3
REMARK    3  A    between atoms: C_3  and  C_4
REMARK    4  A    between atoms: C_4  and  C_5
REMARK    5  A    between atoms: C_4  and  C_8
REMARK    6  A    between atoms: C_5  and  C_6
REMARK    7  A    between atoms: C_6  and  C_7
REMARK    8  A    between atoms: C_10  and  C_11
REMARK    9  A    between atoms: C_14  and  C_15
REMARK                            x       y       z     vdW  Elec       q    Type
REMARK                         _______ _______ _______ _____ _____    ______ ____
ROOT
ATOM      1  C   UNL     1       4.934   4.204  16.855  0.00  0.00    +0.000 A 
ATOM      2  N   UNL     1       4.399   5.372  17.144  0.00  0.00    +0.000 NA
ATOM      3  C   UNL     1       3.545   5.160  18.202  0.00  0.00    +0.000 A 
ATOM      4  C   UNL     1       3.563   3.829  18.558  0.00  0.00    +0.000 A 
ATOM      5  N   UNL     1       4.426   3.232  17.681  0.00  0.00    +0.000 N 
ATOM      6  H   UNL     1       4.682   2.255  17.669  0.00  0.00    +0.000 HD
ENDROOT
BRANCH   3   7
ATOM      7  C   UNL     1       2.756   6.218  18.812  0.00  0.00    +0.000 A 
ATOM      8  C   UNL     1       2.186   6.016  20.073  0.00  0.00    +0.000 A 
ATOM      9  C   UNL     1       1.459   7.033  20.704  0.00  0.00    +0.000 A 
ATOM     10  C   UNL     1       1.289   8.294  20.108  0.00  0.00    +0.000 A 
ATOM     11  C   UNL     1       1.839   8.473  18.828  0.00  0.00    +0.000 A 
ATOM     12  C   UNL     1       2.557   7.452  18.188  0.00  0.00    +0.000 A 
BRANCH  10  13
ATOM     13  C   UNL     1       0.596   9.398  20.815  0.00  0.00    +0.000 A 
ATOM     14  C   UNL     1       0.148   9.240  22.141  0.00  0.00    +0.000 A 
ATOM     15  C   UNL     1      -0.484  10.279  22.831  0.00  0.00    +0.000 A 
ATOM     16  C   UNL     1      -0.668  11.507  22.208  0.00  0.00    +0.000 A 
ATOM     17 BR   UNL     1      -1.503  12.920  23.145  0.00  0.00    +0.000 Br
ATOM     18  C   UNL     1      -0.234  11.701  20.900  0.00  0.00    +0.000 A 
ATOM     19  C   UNL     1       0.386  10.652  20.211  0.00  0.00    +0.000 A 
ENDBRANCH  10  13
ENDBRANCH   3   7
BRANCH   1  20
ATOM     20  C   UNL     1       5.981   3.919  15.807  0.00  0.00    +0.000 C 
BRANCH  20  21
ATOM     21  C   UNL     1       5.451   4.307  14.407  0.00  0.00    +0.000 C 
BRANCH  21  23
ATOM     22  C   UNL     1       5.166   3.370  12.089  0.00  0.00    +0.000 C 
ATOM     23  C   UNL     1       6.135   3.586  13.244  0.00  0.00    +0.000 C 
ENDBRANCH  21  23
ENDBRANCH  20  21
BRANCH  20  24
ATOM     24  C   UNL     1       7.330   4.578  16.181  0.00  0.00    +0.000 C 
BRANCH  24  25
ATOM     25  C   UNL     1       7.660   4.558  17.677  0.00  0.00    +0.000 C 
ATOM     26  C   UNL     1       7.689   5.963  18.260  0.00  0.00    +0.000 C 
ENDBRANCH  24  25
ENDBRANCH  20  24
ENDBRANCH   1  20
TORSDOF 7
ENDMDL
MODEL 2
REMARK VINA RESULT:      -8.0      0.836      2.826
REMARK  Name = 
REMARK  9 active torsions:
REMARK  status: ('A' for Active; 'I' for Inactive)
REMARK    1  A    between atoms: C_1  and  C_2
REMARK    2  A    between atoms: C_2  and  C_3
REMARK    3  A    between atoms: C_3  and  C_4
REMARK    4  A    between atoms: C_4  and  C_5
REMARK    5  A    between atoms: C_4  and  C_8
REMARK    6  A    between atoms: C_5  and  C_6
REMARK    7  A    between atoms: C_6  and  C_7
REMARK    8  A    between atoms: C_10  and  C_11
REMARK    9  A    between atoms: C_14  and  C_15
REMARK                            x       y       z     vdW  Elec       q    Type
REMARK                         _______ _______ _______ _____ _____    ______ ____
ROOT
ATOM      1  C   UNL     1       4.775   5.329  16.551  0.00  0.00    +0.000 A 
ATOM      2  N   UNL     1       4.327   6.445  17.090  0.00  0.00    +0.000 NA
ATOM      3  C   UNL     1       3.330   6.083  17.966  0.00  0.00    +0.000 A 
ATOM      4  C   UNL     1       3.170   4.714  17.955  0.00  0.00    +0.000 A 
ATOM      5  N   UNL     1       4.072   4.253  17.036  0.00  0.00    +0.000 N 
ATOM      6  H   UNL     1       4.230   3.286  16.788  0.00  0.00    +0.000 HD
ENDROOT
BRANCH   3   7
ATOM      7  C   UNL     1       2.580   7.043  18.758  0.00  0.00    +0.000 A 
ATOM      8  C   UNL     1       2.196   8.261  18.188  0.00  0.00    +0.000 A 
ATOM      9  C   UNL     1       1.435   9.187  18.912  0.00  0.00    +0.000 A 
ATOM     10  C   UNL     1       1.013   8.924  20.226  0.00  0.00    +0.000 A 
ATOM     11  C   UNL     1       1.432   7.711  20.798  0.00  0.00    +0.000 A 
ATOM     12  C   UNL     1       2.204   6.788  20.080  0.00  0.00    +0.000 A 
BRANCH  10  13
ATOM     13  C   UNL     1       0.132   9.863  20.960  0.00  0.00    +0.000 A 
ATOM     14  C   UNL     1      -0.116   9.696  22.337  0.00  0.00    +0.000 A 
ATOM     15  C   UNL     1      -0.923  10.587  23.051  0.00  0.00    +0.000 A 
ATOM     16  C   UNL     1      -1.488  11.677  22.400  0.00  0.00    +0.000 A 
ATOM     17 BR   UNL     1      -2.562  12.895  23.366  0.00  0.00    +0.000 Br
ATOM     18  C   UNL     1      -1.261  11.876  21.042  0.00  0.00    +0.000 A 
ATOM     19  C   UNL     1      -0.463  10.972  20.330  0.00  0.00    +0.000 A 
ENDBRANCH  10  13
ENDBRANCH   3   7
BRANCH   1  20
ATOM     20  C   UNL     1       5.912   5.187  15.570  0.00  0.00    +0.000 C 
BRANCH  20  21
ATOM     21  C   UNL     1       7.254   5.056  16.327  0.00  0.00    +0.000 C 
BRANCH  21  23
ATOM     22  C   UNL     1       7.673   5.912  18.656  0.00  0.00    +0.000 C 
ATOM     23  C   UNL     1       7.117   4.764  17.822  0.00  0.00    +0.000 C 
ENDBRANCH  21  23
ENDBRANCH  20  21
BRANCH  20  24
ATOM     24  C   UNL     1       5.634   4.044  14.566  0.00  0.00    +0.000 C 
BRANCH  24  25
ATOM     25  C   UNL     1       6.548   4.035  13.335  0.00  0.00    +0.000 C 
ATOM     26  C   UNL     1       5.921   3.265  12.182  0.00  0.00    +0.000 C 
ENDBRANCH  24  25
ENDBRANCH  20  24
ENDBRANCH   1  20
TORSDOF 7
ENDMDL
MODEL 3
REMARK VINA RESULT:      -8.0      0.571      1.115
REMARK  Name = 
REMARK  9 active torsions:
REMARK  status: ('A' for Active; 'I' for Inactive)
REMARK    1  A    between atoms: C_1  and  C_2
REMARK    2  A    between atoms: C_2  and  C_3
REMARK    3  A    between atoms: C_3  and  C_4
REMARK    4  A    between atoms: C_4  and  C_5
REMARK    5  A    between atoms: C_4  and  C_8
REMARK    6  A    between atoms: C_5  and  C_6
REMARK    7  A    between atoms: C_6  and  C_7
REMARK    8  A    between atoms: C_10  and  C_11
REMARK    9  A    between atoms: C_14  and  C_15
REMARK                            x       y       z     vdW  Elec       q    Type
REMARK                         _______ _______ _______ _____ _____    ______ ____
ROOT
ATOM      1  C   UNL     1       5.025   4.550  16.663  0.00  0.00    +0.000 A 
ATOM      2  N   UNL     1       4.678   5.658  17.286  0.00  0.00    +0.000 NA
ATOM      3  C   UNL     1       3.486   5.392  17.920  0.00  0.00    +0.000 A 
ATOM      4  C   UNL     1       3.103   4.092  17.672  0.00  0.00    +0.000 A 
ATOM      5  N   UNL     1       4.071   3.579  16.854  0.00  0.00    +0.000 N 
ATOM      6  H   UNL     1       4.108   2.638  16.490  0.00  0.00    +0.000 HD
ENDROOT
BRANCH   3   7
ATOM      7  C   UNL     1       2.773   6.377  18.716  0.00  0.00    +0.000 A 
ATOM      8  C   UNL     1       2.550   7.656  18.198  0.00  0.00    +0.000 A 
ATOM      9  C   UNL     1       1.827   8.611  18.923  0.00  0.00    +0.000 A 
ATOM     10  C   UNL     1       1.284   8.319  20.186  0.00  0.00    +0.000 A 
ATOM     11  C   UNL     1       1.542   7.040  20.709  0.00  0.00    +0.000 A 
ATOM     12  C   UNL     1       2.276   6.087  19.990  0.00  0.00    +0.000 A 
BRANCH  10  13
ATOM     13  C   UNL     1       0.444   9.299  20.915  0.00  0.00    +0.000 A 
ATOM     14  C   UNL     1       0.134   9.115  22.277  0.00  0.00    +0.000 A 
ATOM     15  C   UNL     1      -0.635  10.042  22.986  0.00  0.00    +0.000 A 
ATOM     16  C   UNL     1      -1.101  11.184  22.346  0.00  0.00    +0.000 A 
ATOM     17 BR   UNL     1      -2.123  12.449  23.307  0.00  0.00    +0.000 Br
ATOM     18  C   UNL     1      -0.811  11.401  21.002  0.00  0.00    +0.000 A 
ATOM     19  C   UNL     1      -0.051  10.462  20.295  0.00  0.00    +0.000 A 
ENDBRANCH  10  13
ENDBRANCH   3   7
BRANCH   1  20
ATOM     20  C   UNL     1       6.286   4.310  15.871  0.00  0.00    +0.000 C 
BRANCH  20  21
ATOM     21  C   UNL     1       6.077   4.730  14.397  0.00  0.00    +0.000 C 
BRANCH  21  23
ATOM     22  C   UNL     1       6.448   3.494  12.237  0.00  0.00    +0.000 C 
ATOM     23  C   UNL     1       5.577   3.611  13.481  0.00  0.00    +0.000 C 
ENDBRANCH  21  23
ENDBRANCH  20  21
BRANCH  20  24
ATOM     24  C   UNL     1       7.502   4.978  16.556  0.00  0.00    +0.000 C 
BRANCH  24  25
ATOM     25  C   UNL     1       7.661   4.648  18.044  0.00  0.00    +0.000 C 
ATOM     26  C   UNL     1       7.852   5.907  18.876  0.00  0.00    +0.000 C 
ENDBRANCH  24  25
ENDBRANCH  20  24
ENDBRANCH   1  20
TORSDOF 7
ENDMDL
MODEL 4
REMARK VINA RESULT:      -7.9      0.485      1.420
REMARK  Name = 
REMARK  9 active torsions:
REMARK  status: ('A' for Active; 'I' for Inactive)
REMARK    1  A    between atoms: C_1  and  C_2
REMARK    2  A    between atoms: C_2  and  C_3
REMARK    3  A    between atoms: C_3  and  C_4
REMARK    4  A    between atoms: C_4  and  C_5
REMARK    5  A    between atoms: C_4  and  C_8
REMARK    6  A    between atoms: C_5  and  C_6
REMARK    7  A    between atoms: C_6  and  C_7
REMARK    8  A    between atoms: C_10  and  C_11
REMARK    9  A    between atoms: C_14  and  C_15
REMARK                            x       y       z     vdW  Elec       q    Type
REMARK                         _______ _______ _______ _____ _____    ______ ____
ROOT
ATOM      1  C   UNL     1       4.957   4.151  16.860  0.00  0.00    +0.000 A 
ATOM      2  N   UNL     1       4.481   5.302  17.290  0.00  0.00    +0.000 NA
ATOM      3  C   UNL     1       3.650   5.012  18.347  0.00  0.00    +0.000 A 
ATOM      4  C   UNL     1       3.621   3.650  18.559  0.00  0.00    +0.000 A 
ATOM      5  N   UNL     1       4.431   3.117  17.595  0.00  0.00    +0.000 N 
ATOM      6  H   UNL     1       4.645   2.138  17.471  0.00  0.00    +0.000 HD
ENDROOT
BRANCH   3   7
ATOM      7  C   UNL     1       2.925   6.028  19.092  0.00  0.00    +0.000 A 
ATOM      8  C   UNL     1       2.731   7.293  18.527  0.00  0.00    +0.000 A 
ATOM      9  C   UNL     1       1.998   8.277  19.202  0.00  0.00    +0.000 A 
ATOM     10  C   UNL     1       1.417   8.029  20.457  0.00  0.00    +0.000 A 
ATOM     11  C   UNL     1       1.646   6.766  21.027  0.00  0.00    +0.000 A 
ATOM     12  C   UNL     1       2.389   5.783  20.359  0.00  0.00    +0.000 A 
BRANCH  10  13
ATOM     13  C   UNL     1       0.566   9.040  21.131  0.00  0.00    +0.000 A 
ATOM     14  C   UNL     1      -0.127  10.014  20.386  0.00  0.00    +0.000 A 
ATOM     15  C   UNL     1      -0.953  10.958  21.002  0.00  0.00    +0.000 A 
ATOM     16  C   UNL     1      -1.113  10.937  22.382  0.00  0.00    +0.000 A 
ATOM     17 BR   UNL     1      -2.245  12.199  23.216  0.00  0.00    +0.000 Br
ATOM     18  C   UNL     1      -0.447   9.987  23.150  0.00  0.00    +0.000 A 
ATOM     19  C   UNL     1       0.389   9.053  22.527  0.00  0.00    +0.000 A 
ENDBRANCH  10  13
ENDBRANCH   3   7
BRANCH   1  20
ATOM     20  C   UNL     1       5.960   3.940  15.754  0.00  0.00    +0.000 C 
BRANCH  20  21
ATOM     21  C   UNL     1       5.351   4.363  14.396  0.00  0.00    +0.000 C 
BRANCH  21  23
ATOM     22  C   UNL     1       5.402   3.156  12.189  0.00  0.00    +0.000 C 
ATOM     23  C   UNL     1       6.199   3.999  13.176  0.00  0.00    +0.000 C 
ENDBRANCH  21  23
ENDBRANCH  20  21
BRANCH  20  24
ATOM     24  C   UNL     1       7.304   4.627  16.089  0.00  0.00    +0.000 C 
BRANCH  24  25
ATOM     25  C   UNL     1       7.592   4.777  17.587  0.00  0.00    +0.000 C 
ATOM     26  C   UNL     1       7.836   6.231  17.964  0.00  0.00    +0.000 C 
ENDBRANCH  24  25
ENDBRANCH  20  24
ENDBRANCH   1  20
TORSDOF 7
ENDMDL
MODEL 5
REMARK VINA RESULT:      -7.8      1.150      1.647
REMARK  Name = 
REMARK  9 active torsions:
REMARK  status: ('A' for Active; 'I' for Inactive)
REMARK    1  A    between atoms: C_1  and  C_2
REMARK    2  A    between atoms: C_2  and  C_3
REMARK    3  A    between atoms: C_3  and  C_4
REMARK    4  A    between atoms: C_4  and  C_5
REMARK    5  A    between atoms: C_4  and  C_8
REMARK    6  A    between atoms: C_5  and  C_6
REMARK    7  A    between atoms: C_6  and  C_7
REMARK    8  A    between atoms: C_10  and  C_11
REMARK    9  A    between atoms: C_14  and  C_15
REMARK                            x       y       z     vdW  Elec       q    Type
REMARK                         _______ _______ _______ _____ _____    ______ ____
ROOT
ATOM      1  C   UNL     1       4.664   4.754  16.898  0.00  0.00    +0.000 A 
ATOM      2  N   UNL     1       4.267   5.993  17.109  0.00  0.00    +0.000 NA
ATOM      3  C   UNL     1       3.260   5.928  18.044  0.00  0.00    +0.000 A 
ATOM      4  C   UNL     1       3.041   4.616  18.405  0.00  0.00    +0.000 A 
ATOM      5  N   UNL     1       3.917   3.883  17.653  0.00  0.00    +0.000 N 
ATOM      6  H   UNL     1       4.031   2.880  17.679  0.00  0.00    +0.000 HD
ENDROOT
BRANCH   3   7
ATOM      7  C   UNL     1       2.556   7.100  18.538  0.00  0.00    +0.000 A 
ATOM      8  C   UNL     1       2.237   8.137  17.657  0.00  0.00    +0.000 A 
ATOM      9  C   UNL     1       1.520   9.258  18.095  0.00  0.00    +0.000 A 
ATOM     10  C   UNL     1       1.081   9.376  19.425  0.00  0.00    +0.000 A 
ATOM     11  C   UNL     1       1.436   8.341  20.307  0.00  0.00    +0.000 A 
ATOM     12  C   UNL     1       2.164   7.225  19.874  0.00  0.00    +0.000 A 
BRANCH  10  13
ATOM     13  C   UNL     1       0.246  10.518  19.868  0.00  0.00    +0.000 A 
ATOM     14  C   UNL     1       0.711  11.417  20.848  0.00  0.00    +0.000 A 
ATOM     15  C   UNL     1      -0.052  12.514  21.259  0.00  0.00    +0.000 A 
ATOM     16  C   UNL     1      -1.295  12.743  20.682  0.00  0.00    +0.000 A 
ATOM     17 BR   UNL     1      -2.319  14.237  21.220  0.00  0.00    +0.000 Br
ATOM     18  C   UNL     1      -1.785  11.878  19.708  0.00  0.00    +0.000 A 
ATOM     19  C   UNL     1      -1.021  10.774  19.311  0.00  0.00    +0.000 A 
ENDBRANCH  10  13
ENDBRANCH   3   7
BRANCH   1  20
ATOM     20  C   UNL     1       5.788   4.301  16.001  0.00  0.00    +0.000 C 
BRANCH  20  21
ATOM     21  C   UNL     1       5.435   4.584  14.522  0.00  0.00    +0.000 C 
BRANCH  21  23
ATOM     22  C   UNL     1       5.352   3.476  12.264  0.00  0.00    +0.000 C 
ATOM     23  C   UNL     1       6.194   3.724  13.509  0.00  0.00    +0.000 C 
ENDBRANCH  21  23
ENDBRANCH  20  21
BRANCH  20  24
ATOM     24  C   UNL     1       7.137   4.904  16.459  0.00  0.00    +0.000 C 
BRANCH  24  25
ATOM     25  C   UNL     1       7.463   4.693  17.942  0.00  0.00    +0.000 C 
ATOM     26  C   UNL     1       7.768   6.011  18.638  0.00  0.00    +0.000 C 
ENDBRANCH  24  25
ENDBRANCH  20  24
ENDBRANCH   1  20
TORSDOF 7
ENDMDL
MODEL 6
REMARK VINA RESULT:      -7.7      1.208      1.889
REMARK  Name = 
REMARK  9 active torsions:
REMARK  status: ('A' for Active; 'I' for Inactive)
REMARK    1  A    between atoms: C_1  and  C_2
REMARK    2  A    between atoms: C_2  and  C_3
REMARK    3  A    between atoms: C_3  and  C_4
REMARK    4  A    between atoms: C_4  and  C_5
REMARK    5  A    between atoms: C_4  and  C_8
REMARK    6  A    between atoms: C_5  and  C_6
REMARK    7  A    between atoms: C_6  and  C_7
REMARK    8  A    between atoms: C_10  and  C_11
REMARK    9  A    between atoms: C_14  and  C_15
REMARK                            x       y       z     vdW  Elec       q    Type
REMARK                         _______ _______ _______ _____ _____    ______ ____
ROOT
ATOM      1  C   UNL     1       4.805   4.729  17.403  0.00  0.00    +0.000 A 
ATOM      2  N   UNL     1       4.239   5.918  17.423  0.00  0.00    +0.000 NA
ATOM      3  C   UNL     1       3.401   5.933  18.514  0.00  0.00    +0.000 A 
ATOM      4  C   UNL     1       3.461   4.722  19.168  0.00  0.00    +0.000 A 
ATOM      5  N   UNL     1       4.332   3.961  18.439  0.00  0.00    +0.000 N 
ATOM      6  H   UNL     1       4.617   3.015  18.648  0.00  0.00    +0.000 HD
ENDROOT
BRANCH   3   7
ATOM      7  C   UNL     1       2.587   7.082  18.876  0.00  0.00    +0.000 A 
ATOM      8  C   UNL     1       2.253   8.027  17.902  0.00  0.00    +0.000 A 
ATOM      9  C   UNL     1       1.433   9.120  18.210  0.00  0.00    +0.000 A 
ATOM     10  C   UNL     1       0.902   9.299  19.499  0.00  0.00    +0.000 A 
ATOM     11  C   UNL     1       1.271   8.360  20.476  0.00  0.00    +0.000 A 
ATOM     12  C   UNL     1       2.101   7.273  20.173  0.00  0.00    +0.000 A 
BRANCH  10  13
ATOM     13  C   UNL     1      -0.038  10.406  19.803  0.00  0.00    +0.000 A 
ATOM     14  C   UNL     1      -1.091  10.723  18.923  0.00  0.00    +0.000 A 
ATOM     15  C   UNL     1      -2.001  11.745  19.206  0.00  0.00    +0.000 A 
ATOM     16  C   UNL     1      -1.882  12.465  20.389  0.00  0.00    +0.000 A 
ATOM     17 BR   UNL     1      -3.123  13.834  20.785  0.00  0.00    +0.000 Br
ATOM     18  C   UNL     1      -0.856  12.176  21.284  0.00  0.00    +0.000 A 
ATOM     19  C   UNL     1       0.059  11.160  20.988  0.00  0.00    +0.000 A 
ENDBRANCH  10  13
ENDBRANCH   3   7
BRANCH   1  20
ATOM     20  C   UNL     1       5.850   4.237  16.432  0.00  0.00    +0.000 C 
BRANCH  20  21
ATOM     21  C   UNL     1       5.500   4.694  14.997  0.00  0.00    +0.000 C 
BRANCH  21  23
ATOM     22  C   UNL     1       5.579   3.672  12.699  0.00  0.00    +0.000 C 
ATOM     23  C   UNL     1       6.399   4.111  13.905  0.00  0.00    +0.000 C 
ENDBRANCH  21  23
ENDBRANCH  20  21
BRANCH  20  24
ATOM     24  C   UNL     1       7.269   4.640  16.900  0.00  0.00    +0.000 C 
BRANCH  24  25
ATOM     25  C   UNL     1       7.342   5.972  17.653  0.00  0.00    +0.000 C 
ATOM     26  C   UNL     1       7.851   5.781  19.074  0.00  0.00    +0.000 C 
ENDBRANCH  24  25
ENDBRANCH  20  24
ENDBRANCH   1  20
TORSDOF 7
ENDMDL
MODEL 7
REMARK VINA RESULT:      -7.7      1.163      1.495
REMARK  Name = 
REMARK  9 active torsions:
REMARK  status: ('A' for Active; 'I' for Inactive)
REMARK    1  A    between atoms: C_1  and  C_2
REMARK    2  A    between atoms: C_2  and  C_3
REMARK    3  A    between atoms: C_3  and  C_4
REMARK    4  A    between atoms: C_4  and  C_5
REMARK    5  A    between atoms: C_4  and  C_8
REMARK    6  A    between atoms: C_5  and  C_6
REMARK    7  A    between atoms: C_6  and  C_7
REMARK    8  A    between atoms: C_10  and  C_11
REMARK    9  A    between atoms: C_14  and  C_15
REMARK                            x       y       z     vdW  Elec       q    Type
REMARK                         _______ _______ _______ _____ _____    ______ ____
ROOT
ATOM      1  C   UNL     1       4.795   4.858  17.576  0.00  0.00    +0.000 A 
ATOM      2  N   UNL     1       4.175   6.019  17.527  0.00  0.00    +0.000 NA
ATOM      3  C   UNL     1       3.373   6.082  18.643  0.00  0.00    +0.000 A 
ATOM      4  C   UNL     1       3.511   4.929  19.385  0.00  0.00    +0.000 A 
ATOM      5  N   UNL     1       4.394   4.153  18.685  0.00  0.00    +0.000 N 
ATOM      6  H   UNL     1       4.729   3.239  18.955  0.00  0.00    +0.000 HD
ENDROOT
BRANCH   3   7
ATOM      7  C   UNL     1       2.518   7.218  18.946  0.00  0.00    +0.000 A 
ATOM      8  C   UNL     1       2.013   7.378  20.240  0.00  0.00    +0.000 A 
ATOM      9  C   UNL     1       1.224   8.487  20.571  0.00  0.00    +0.000 A 
ATOM     10  C   UNL     1       0.925   9.485  19.629  0.00  0.00    +0.000 A 
ATOM     11  C   UNL     1       1.413   9.296  18.325  0.00  0.00    +0.000 A 
ATOM     12  C   UNL     1       2.192   8.181  17.987  0.00  0.00    +0.000 A 
BRANCH  10  13
ATOM     13  C   UNL     1       0.166  10.703  20.003  0.00  0.00    +0.000 A 
ATOM     14  C   UNL     1       0.004  11.068  21.354  0.00  0.00    +0.000 A 
ATOM     15  C   UNL     1      -0.686  12.226  21.724  0.00  0.00    +0.000 A 
ATOM     16  C   UNL     1      -1.220  13.052  20.742  0.00  0.00    +0.000 A 
ATOM     17 BR   UNL     1      -2.136  14.629  21.238  0.00  0.00    +0.000 Br
ATOM     18  C   UNL     1      -1.076  12.725  19.398  0.00  0.00    +0.000 A 
ATOM     19  C   UNL     1      -0.394  11.557  19.035  0.00  0.00    +0.000 A 
ENDBRANCH  10  13
ENDBRANCH   3   7
BRANCH   1  20
ATOM     20  C   UNL     1       5.830   4.339  16.609  0.00  0.00    +0.000 C 
BRANCH  20  21
ATOM     21  C   UNL     1       5.623   4.978  15.216  0.00  0.00    +0.000 C 
BRANCH  21  23
ATOM     22  C   UNL     1       6.188   3.741  13.099  0.00  0.00    +0.000 C 
ATOM     23  C   UNL     1       6.717   4.654  14.197  0.00  0.00    +0.000 C 
ENDBRANCH  21  23
ENDBRANCH  20  21
BRANCH  20  24
ATOM     24  C   UNL     1       7.256   4.512  17.182  0.00  0.00    +0.000 C 
BRANCH  24  25
ATOM     25  C   UNL     1       7.544   5.894  17.780  0.00  0.00    +0.000 C 
ATOM     26  C   UNL     1       7.847   5.804  19.268  0.00  0.00    +0.000 C 
ENDBRANCH  24  25
ENDBRANCH  20  24
ENDBRANCH   1  20
TORSDOF 7
ENDMDL
MODEL 8
REMARK VINA RESULT:      -7.6      1.217      1.950
REMARK  Name = 
REMARK  9 active torsions:
REMARK  status: ('A' for Active; 'I' for Inactive)
REMARK    1  A    between atoms: C_1  and  C_2
REMARK    2  A    between atoms: C_2  and  C_3
REMARK    3  A    between atoms: C_3  and  C_4
REMARK    4  A    between atoms: C_4  and  C_5
REMARK    5  A    between atoms: C_4  and  C_8
REMARK    6  A    between atoms: C_5  and  C_6
REMARK    7  A    between atoms: C_6  and  C_7
REMARK    8  A    between atoms: C_10  and  C_11
REMARK    9  A    between atoms: C_14  and  C_15
REMARK                            x       y       z     vdW  Elec       q    Type
REMARK                         _______ _______ _______ _____ _____    ______ ____
ROOT
ATOM      1  C   UNL     1       4.949   5.629  17.606  0.00  0.00    +0.000 A 
ATOM      2  N   UNL     1       4.473   6.711  18.189  0.00  0.00    +0.000 NA
ATOM      3  C   UNL     1       3.135   6.481  18.408  0.00  0.00    +0.000 A 
ATOM      4  C   UNL     1       2.793   5.230  17.943  0.00  0.00    +0.000 A 
ATOM      5  N   UNL     1       3.944   4.713  17.416  0.00  0.00    +0.000 N 
ATOM      6  H   UNL     1       4.051   3.799  16.999  0.00  0.00    +0.000 HD
ENDROOT
BRANCH   3   7
ATOM      7  C   UNL     1       2.252   7.453  19.033  0.00  0.00    +0.000 A 
ATOM      8  C   UNL     1       1.832   7.256  20.352  0.00  0.00    +0.000 A 
ATOM      9  C   UNL     1       1.018   8.197  20.995  0.00  0.00    +0.000 A 
ATOM     10  C   UNL     1       0.610   9.378  20.352  0.00  0.00    +0.000 A 
ATOM     11  C   UNL     1       1.013   9.548  19.017  0.00  0.00    +0.000 A 
ATOM     12  C   UNL     1       1.817   8.601  18.367  0.00  0.00    +0.000 A 
BRANCH  10  13
ATOM     13  C   UNL     1      -0.176  10.416  21.062  0.00  0.00    +0.000 A 
ATOM     14  C   UNL     1      -0.682  11.536  20.374  0.00  0.00    +0.000 A 
ATOM     15  C   UNL     1      -1.447  12.511  21.022  0.00  0.00    +0.000 A 
ATOM     16  C   UNL     1      -1.733  12.375  22.375  0.00  0.00    +0.000 A 
ATOM     17 BR   UNL     1      -2.783  13.680  23.248  0.00  0.00    +0.000 Br
ATOM     18  C   UNL     1      -1.253  11.279  23.085  0.00  0.00    +0.000 A 
ATOM     19  C   UNL     1      -0.476  10.314  22.433  0.00  0.00    +0.000 A 
ENDBRANCH  10  13
ENDBRANCH   3   7
BRANCH   1  20
ATOM     20  C   UNL     1       6.381   5.363  17.216  0.00  0.00    +0.000 C 
BRANCH  20  21
ATOM     21  C   UNL     1       6.435   4.349  16.050  0.00  0.00    +0.000 C 
BRANCH  21  23
ATOM     22  C   UNL     1       6.188   3.881  13.590  0.00  0.00    +0.000 C 
ATOM     23  C   UNL     1       6.237   4.961  14.662  0.00  0.00    +0.000 C 
ENDBRANCH  21  23
ENDBRANCH  20  21
BRANCH  20  24
ATOM     24  C   UNL     1       7.133   6.687  16.942  0.00  0.00    +0.000 C 
BRANCH  24  25
ATOM     25  C   UNL     1       7.967   7.206  18.119  0.00  0.00    +0.000 C 
ATOM     26  C   UNL     1       8.226   8.701  18.002  0.00  0.00    +0.000 C 
ENDBRANCH  24  25
ENDBRANCH  20  24
ENDBRANCH   1  20
TORSDOF 7
ENDMDL
MODEL 9
REMARK VINA RESULT:      -7.6      4.804      7.412
REMARK  Name = 
REMARK  9 active torsions:
REMARK  status: ('A' for Active; 'I' for Inactive)
REMARK    1  A    between atoms: C_1  and  C_2
REMARK    2  A    between atoms: C_2  and  C_3
REMARK    3  A    between atoms: C_3  and  C_4
REMARK    4  A    between atoms: C_4  and  C_5
REMARK    5  A    between atoms: C_4  and  C_8
REMARK    6  A    between atoms: C_5  and  C_6
REMARK    7  A    between atoms: C_6  and  C_7
REMARK    8  A    between atoms: C_10  and  C_11
REMARK    9  A    between atoms: C_14  and  C_15
REMARK                            x       y       z     vdW  Elec       q    Type
REMARK                         _______ _______ _______ _____ _____    ______ ____
ROOT
ATOM      1  C   UNL     1       4.607   3.823  17.216  0.00  0.00    +0.000 A 
ATOM      2  N   UNL     1       4.920   4.973  17.776  0.00  0.00    +0.000 NA
ATOM      3  C   UNL     1       6.163   5.317  17.296  0.00  0.00    +0.000 A 
ATOM      4  C   UNL     1       6.612   4.348  16.425  0.00  0.00    +0.000 A 
ATOM      5  N   UNL     1       5.630   3.397  16.405  0.00  0.00    +0.000 N 
ATOM      6  H   UNL     1       5.632   2.549  15.855  0.00  0.00    +0.000 HD
ENDROOT
BRANCH   3   7
ATOM      7  C   UNL     1       6.859   6.531  17.688  0.00  0.00    +0.000 A 
ATOM      8  C   UNL     1       7.827   6.479  18.696  0.00  0.00    +0.000 A 
ATOM      9  C   UNL     1       8.545   7.624  19.063  0.00  0.00    +0.000 A 
ATOM     10  C   UNL     1       8.337   8.859  18.425  0.00  0.00    +0.000 A 
ATOM     11  C   UNL     1       7.340   8.904  17.436  0.00  0.00    +0.000 A 
ATOM     12  C   UNL     1       6.611   7.763  17.075  0.00  0.00    +0.000 A 
BRANCH  10  13
ATOM     13  C   UNL     1       9.160  10.048  18.751  0.00  0.00    +0.000 A 
ATOM     14  C   UNL     1       9.708  10.850  17.731  0.00  0.00    +0.000 A 
ATOM     15  C   UNL     1      10.464  11.990  18.020  0.00  0.00    +0.000 A 
ATOM     16  C   UNL     1      10.676  12.359  19.344  0.00  0.00    +0.000 A 
ATOM     17 BR   UNL     1      11.679  13.910  19.737  0.00  0.00    +0.000 Br
ATOM     18  C   UNL     1      10.146  11.592  20.377  0.00  0.00    +0.000 A 
ATOM     19  C   UNL     1       9.401  10.445  20.080  0.00  0.00    +0.000 A 
ENDBRANCH  10  13
ENDBRANCH   3   7
BRANCH   1  20
ATOM     20  C   UNL     1       3.318   3.056  17.375  0.00  0.00    +0.000 C 
BRANCH  20  21
ATOM     21  C   UNL     1       3.480   1.960  18.454  0.00  0.00    +0.000 C 
BRANCH  21  23
ATOM     22  C   UNL     1       3.708   2.185  20.950  0.00  0.00    +0.000 C 
ATOM     23  C   UNL     1       4.412   2.335  19.608  0.00  0.00    +0.000 C 
ENDBRANCH  21  23
ENDBRANCH  20  21
BRANCH  20  24
ATOM     24  C   UNL     1       2.131   4.018  17.620  0.00  0.00    +0.000 C 
BRANCH  24  25
ATOM     25  C   UNL     1       1.049   3.476  18.560  0.00  0.00    +0.000 C 
ATOM     26  C   UNL     1       1.043   4.218  19.888  0.00  0.00    +0.000 C 
ENDBRANCH  24  25
ENDBRANCH  20  24
ENDBRANCH   1  20
TORSDOF 7
ENDMDL
