MODEL 1
REMARK VINA RESULT:      -9.0      0.000      0.000
REMARK  Name = 
REMARK  9 active torsions:
REMARK  status: ('A' for Active; 'I' for Inactive)
REMARK    1  A    between atoms: C_1  and  C_2
REMARK    2  A    between atoms: C_2  and  N_3
REMARK    3  A    between atoms: C_2  and  C_27
REMARK    4  A    between atoms: N_3  and  C_4
REMARK    5  A    between atoms: C_4  and  C_5
REMARK    6  A    between atoms: C_8  and  C_9
REMARK    7  A    between atoms: N_11  and  C_12
REMARK    8  A    between atoms: C_14  and  C_15
REMARK    9  A    between atoms: C_23  and  O_24
REMARK                            x       y       z     vdW  Elec       q    Type
REMARK                         _______ _______ _______ _____ _____    ______ ____
ROOT
ATOM      1  C   UNL     1       7.707   7.753  18.088  0.00  0.00    +0.000 C 
ATOM      2  O   UNL     1       8.265   6.865  18.729  0.00  0.00    +0.000 OA
ATOM      3  N   UNL     1       6.630   7.596  17.231  0.00  0.00    +0.000 N 
ATOM      4  H   UNL     1       6.301   8.369  16.667  0.00  0.00    +0.000 HD
ENDROOT
BRANCH   1   8
ATOM      5  C   UNL     1       9.453  11.644  18.487  0.00  0.00    +0.000 A 
ATOM      6  C   UNL     1       8.486  11.410  17.497  0.00  0.00    +0.000 A 
ATOM      7  C   UNL     1       7.891  10.159  17.363  0.00  0.00    +0.000 A 
ATOM      8  C   UNL     1       8.260   9.124  18.220  0.00  0.00    +0.000 A 
ATOM      9  C   UNL     1       9.235   9.344  19.205  0.00  0.00    +0.000 A 
ATOM     10  C   UNL     1       9.825  10.599  19.342  0.00  0.00    +0.000 A 
BRANCH   5  11
ATOM     11  C   UNL     1      10.132  12.987  18.579  0.00  0.00    +0.000 C 
BRANCH  11  12
ATOM     12  N   UNL     1       9.873  13.794  17.386  0.00  0.00    +0.000 NA
ATOM     13  H   UNL     1      10.061  13.237  16.556  0.00  0.00    +0.000 HD
BRANCH  12  15
ATOM     14  C   UNL     1      12.034  14.845  18.018  0.00  0.00    +0.000 C 
ATOM     15  C   UNL     1      10.678  15.024  17.317  0.00  0.00    +0.000 C 
BRANCH  15  16
ATOM     16  C   UNL     1       9.877  16.250  17.722  0.00  0.00    +0.000 A 
ATOM     17  C   UNL     1       8.533  16.195  18.105  0.00  0.00    +0.000 A 
ATOM     18  C   UNL     1       7.885  17.372  18.454  0.00  0.00    +0.000 A 
ATOM     19  N   UNL     1       8.470  18.587  18.447  0.00  0.00    +0.000 NA
ATOM     20  C   UNL     1       9.766  18.630  18.071  0.00  0.00    +0.000 A 
ATOM     21  C   UNL     1      10.496  17.508  17.712  0.00  0.00    +0.000 A 
ENDBRANCH  15  16
ENDBRANCH  12  15
ENDBRANCH  11  12
ENDBRANCH   5  11
ENDBRANCH   1   8
BRANCH   3  22
ATOM     22  C   UNL     1       5.991   6.376  16.934  0.00  0.00    +0.000 A 
ATOM     23  C   UNL     1       4.815   5.990  17.565  0.00  0.00    +0.000 A 
ATOM     24  C   UNL     1       4.252   4.717  17.397  0.00  0.00    +0.000 A 
ATOM     25  C   UNL     1       4.848   3.870  16.449  0.00  0.00    +0.000 A 
ATOM     26  C   UNL     1       5.992   4.269  15.742  0.00  0.00    +0.000 A 
ATOM     27  C   UNL     1       6.566   5.512  16.000  0.00  0.00    +0.000 A 
BRANCH  24  28
ATOM     28  C   UNL     1       3.111   4.328  18.250  0.00  0.00    +0.000 A 
ATOM     29  C   UNL     1       2.250   3.273  17.925  0.00  0.00    +0.000 A 
ATOM     30  C   UNL     1       1.157   2.962  18.743  0.00  0.00    +0.000 A 
ATOM     31  C   UNL     1       0.900   3.704  19.895  0.00  0.00    +0.000 A 
ATOM     32  C   UNL     1       1.742   4.751  20.244  0.00  0.00    +0.000 A 
ATOM     33  C   UNL     1       2.839   5.047  19.437  0.00  0.00    +0.000 A 
ENDBRANCH  24  28
BRANCH  27  34
ATOM     34  O   UNL     1       7.724   5.896  15.374  0.00  0.00    +0.000 OA
ATOM     35  H   UNL     1       7.492   6.223  14.489  0.00  0.00    +0.000 HD
ENDBRANCH  27  34
ENDBRANCH   3  22
TORSDOF 8
ENDMDL
MODEL 2
REMARK VINA RESULT:      -9.0      2.304      3.362
REMARK  Name = 
REMARK  9 active torsions:
REMARK  status: ('A' for Active; 'I' for Inactive)
REMARK    1  A    between atoms: C_1  and  C_2
REMARK    2  A    between atoms: C_2  and  N_3
REMARK    3  A    between atoms: C_2  and  C_27
REMARK    4  A    between atoms: N_3  and  C_4
REMARK    5  A    between atoms: C_4  and  C_5
REMARK    6  A    between atoms: C_8  and  C_9
REMARK    7  A    between atoms: N_11  and  C_12
REMARK    8  A    between atoms: C_14  and  C_15
REMARK    9  A    between atoms: C_23  and  O_24
REMARK                            x       y       z     vdW  Elec       q    Type
REMARK                         _______ _______ _______ _____ _____    ______ ____
ROOT
ATOM      1  C   UNL     1       7.698   7.761  18.079  0.00  0.00    +0.000 C 
ATOM      2  O   UNL     1       8.208   6.873  18.758  0.00  0.00    +0.000 OA
ATOM      3  N   UNL     1       6.648   7.615  17.187  0.00  0.00    +0.000 N 
ATOM      4  H   UNL     1       6.361   8.385  16.596  0.00  0.00    +0.000 HD
ENDROOT
BRANCH   1   8
ATOM      5  C   UNL     1       9.237  11.743  18.430  0.00  0.00    +0.000 A 
ATOM      6  C   UNL     1       9.771  10.716  19.223  0.00  0.00    +0.000 A 
ATOM      7  C   UNL     1       9.300   9.411  19.111  0.00  0.00    +0.000 A 
ATOM      8  C   UNL     1       8.285   9.120  18.202  0.00  0.00    +0.000 A 
ATOM      9  C   UNL     1       7.736  10.142  17.412  0.00  0.00    +0.000 A 
ATOM     10  C   UNL     1       8.212  11.447  17.522  0.00  0.00    +0.000 A 
BRANCH   5  11
ATOM     11  C   UNL     1       9.715  13.163  18.607  0.00  0.00    +0.000 C 
BRANCH  11  12
ATOM     12  N   UNL     1      10.303  13.361  19.933  0.00  0.00    +0.000 NA
ATOM     13  H   UNL     1      10.377  12.464  20.405  0.00  0.00    +0.000 HD
BRANCH  12  15
ATOM     14  C   UNL     1      10.458  15.283  21.500  0.00  0.00    +0.000 C 
ATOM     15  C   UNL     1       9.536  14.280  20.788  0.00  0.00    +0.000 C 
BRANCH  15  16
ATOM     16  C   UNL     1       8.548  13.540  21.674  0.00  0.00    +0.000 A 
ATOM     17  C   UNL     1       7.261  14.013  21.948  0.00  0.00    +0.000 A 
ATOM     18  C   UNL     1       6.432  13.266  22.774  0.00  0.00    +0.000 A 
ATOM     19  N   UNL     1       6.788  12.097  23.342  0.00  0.00    +0.000 NA
ATOM     20  C   UNL     1       8.034  11.651  23.075  0.00  0.00    +0.000 A 
ATOM     21  C   UNL     1       8.929  12.324  22.259  0.00  0.00    +0.000 A 
ENDBRANCH  15  16
ENDBRANCH  12  15
ENDBRANCH  11  12
ENDBRANCH   5  11
ENDBRANCH   1   8
BRANCH   3  22
ATOM     22  C   UNL     1       5.986   6.407  16.892  0.00  0.00    +0.000 A 
ATOM     23  C   UNL     1       4.799   6.048  17.518  0.00  0.00    +0.000 A 
ATOM     24  C   UNL     1       4.212   4.786  17.353  0.00  0.00    +0.000 A 
ATOM     25  C   UNL     1       4.796   3.922  16.414  0.00  0.00    +0.000 A 
ATOM     26  C   UNL     1       5.951   4.294  15.711  0.00  0.00    +0.000 A 
ATOM     27  C   UNL     1       6.550   5.527  15.967  0.00  0.00    +0.000 A 
BRANCH  24  28
ATOM     28  C   UNL     1       3.058   4.425  18.202  0.00  0.00    +0.000 A 
ATOM     29  C   UNL     1       2.779   5.072  19.413  0.00  0.00    +0.000 A 
ATOM     30  C   UNL     1       1.696   4.672  20.205  0.00  0.00    +0.000 A 
ATOM     31  C   UNL     1       0.877   3.617  19.807  0.00  0.00    +0.000 A 
ATOM     32  C   UNL     1       1.127   2.964  18.608  0.00  0.00    +0.000 A 
ATOM     33  C   UNL     1       2.196   3.374  17.813  0.00  0.00    +0.000 A 
ENDBRANCH  24  28
BRANCH  27  34
ATOM     34  O   UNL     1       7.718   5.884  15.345  0.00  0.00    +0.000 OA
ATOM     35  H   UNL     1       7.886   6.822  15.538  0.00  0.00    +0.000 HD
ENDBRANCH  27  34
ENDBRANCH   3  22
TORSDOF 8
ENDMDL
MODEL 3
REMARK VINA RESULT:      -9.0      1.443      1.862
REMARK  Name = 
REMARK  9 active torsions:
REMARK  status: ('A' for Active; 'I' for Inactive)
REMARK    1  A    between atoms: C_1  and  C_2
REMARK    2  A    between atoms: C_2  and  N_3
REMARK    3  A    between atoms: C_2  and  C_27
REMARK    4  A    between atoms: N_3  and  C_4
REMARK    5  A    between atoms: C_4  and  C_5
REMARK    6  A    between atoms: C_8  and  C_9
REMARK    7  A    between atoms: N_11  and  C_12
REMARK    8  A    between atoms: C_14  and  C_15
REMARK    9  A    between atoms: C_23  and  O_24
REMARK                            x       y       z     vdW  Elec       q    Type
REMARK                         _______ _______ _______ _____ _____    ______ ____
ROOT
ATOM      1  C   UNL     1       7.699   7.779  18.101  0.00  0.00    +0.000 C 
ATOM      2  O   UNL     1       8.251   6.900  18.757  0.00  0.00    +0.000 OA
ATOM      3  N   UNL     1       6.629   7.612  17.236  0.00  0.00    +0.000 N 
ATOM      4  H   UNL     1       6.305   8.378  16.660  0.00  0.00    +0.000 HD
ENDROOT
BRANCH   1   8
ATOM      5  C   UNL     1       9.440  11.676  18.465  0.00  0.00    +0.000 A 
ATOM      6  C   UNL     1       8.460  11.437  17.488  0.00  0.00    +0.000 A 
ATOM      7  C   UNL     1       7.867  10.184  17.366  0.00  0.00    +0.000 A 
ATOM      8  C   UNL     1       8.250   9.153  18.221  0.00  0.00    +0.000 A 
ATOM      9  C   UNL     1       9.237   9.378  19.193  0.00  0.00    +0.000 A 
ATOM     10  C   UNL     1       9.826  10.634  19.318  0.00  0.00    +0.000 A 
BRANCH   5  11
ATOM     11  C   UNL     1      10.117  13.021  18.544  0.00  0.00    +0.000 C 
BRANCH  11  12
ATOM     12  N   UNL     1       9.635  13.919  17.493  0.00  0.00    +0.000 NA
ATOM     13  H   UNL     1      10.393  14.111  16.843  0.00  0.00    +0.000 HD
BRANCH  12  15
ATOM     14  C   UNL     1      10.090  15.840  19.001  0.00  0.00    +0.000 C 
ATOM     15  C   UNL     1       9.116  15.199  18.001  0.00  0.00    +0.000 C 
BRANCH  15  16
ATOM     16  C   UNL     1       7.672  15.084  18.458  0.00  0.00    +0.000 A 
ATOM     17  C   UNL     1       6.621  14.746  17.600  0.00  0.00    +0.000 A 
ATOM     18  C   UNL     1       5.333  14.670  18.112  0.00  0.00    +0.000 A 
ATOM     19  N   UNL     1       5.018  14.906  19.401  0.00  0.00    +0.000 NA
ATOM     20  C   UNL     1       6.039  15.237  20.221  0.00  0.00    +0.000 A 
ATOM     21  C   UNL     1       7.357  15.331  19.802  0.00  0.00    +0.000 A 
ENDBRANCH  15  16
ENDBRANCH  12  15
ENDBRANCH  11  12
ENDBRANCH   5  11
ENDBRANCH   1   8
BRANCH   3  22
ATOM     22  C   UNL     1       5.993   6.389  16.947  0.00  0.00    +0.000 A 
ATOM     23  C   UNL     1       4.821   6.001  17.586  0.00  0.00    +0.000 A 
ATOM     24  C   UNL     1       4.263   4.725  17.427  0.00  0.00    +0.000 A 
ATOM     25  C   UNL     1       4.857   3.876  16.481  0.00  0.00    +0.000 A 
ATOM     26  C   UNL     1       5.995   4.276  15.766  0.00  0.00    +0.000 A 
ATOM     27  C   UNL     1       6.567   5.522  16.015  0.00  0.00    +0.000 A 
BRANCH  24  28
ATOM     28  C   UNL     1       3.127   4.336  18.288  0.00  0.00    +0.000 A 
ATOM     29  C   UNL     1       2.163   3.401  17.890  0.00  0.00    +0.000 A 
ATOM     30  C   UNL     1       1.081   3.090  18.721  0.00  0.00    +0.000 A 
ATOM     31  C   UNL     1       0.938   3.711  19.961  0.00  0.00    +0.000 A 
ATOM     32  C   UNL     1       1.883   4.636  20.383  0.00  0.00    +0.000 A 
ATOM     33  C   UNL     1       2.968   4.932  19.560  0.00  0.00    +0.000 A 
ENDBRANCH  24  28
BRANCH  27  34
ATOM     34  O   UNL     1       7.720   5.908  15.382  0.00  0.00    +0.000 OA
ATOM     35  H   UNL     1       8.392   5.223  15.538  0.00  0.00    +0.000 HD
ENDBRANCH  27  34
ENDBRANCH   3  22
TORSDOF 8
ENDMDL
MODEL 4
REMARK VINA RESULT:      -8.9      2.302      3.266
REMARK  Name = 
REMARK  9 active torsions:
REMARK  status: ('A' for Active; 'I' for Inactive)
REMARK    1  A    between atoms: C_1  and  C_2
REMARK    2  A    between atoms: C_2  and  N_3
REMARK    3  A    between atoms: C_2  and  C_27
REMARK    4  A    between atoms: N_3  and  C_4
REMARK    5  A    between atoms: C_4  and  C_5
REMARK    6  A    between atoms: C_8  and  C_9
REMARK    7  A    between atoms: N_11  and  C_12
REMARK    8  A    between atoms: C_14  and  C_15
REMARK    9  A    between atoms: C_23  and  O_24
REMARK                            x       y       z     vdW  Elec       q    Type
REMARK                         _______ _______ _______ _____ _____    ______ ____
ROOT
ATOM      1  C   UNL     1       7.716   7.739  18.088  0.00  0.00    +0.000 C 
ATOM      2  O   UNL     1       8.235   6.853  18.763  0.00  0.00    +0.000 OA
ATOM      3  N   UNL     1       6.662   7.586  17.201  0.00  0.00    +0.000 N 
ATOM      4  H   UNL     1       6.367   8.354  16.611  0.00  0.00    +0.000 HD
ENDROOT
BRANCH   1   8
ATOM      5  C   UNL     1       9.230  11.731  18.428  0.00  0.00    +0.000 A 
ATOM      6  C   UNL     1       9.751  10.714  19.243  0.00  0.00    +0.000 A 
ATOM      7  C   UNL     1       9.288   9.407  19.135  0.00  0.00    +0.000 A 
ATOM      8  C   UNL     1       8.293   9.101  18.209  0.00  0.00    +0.000 A 
ATOM      9  C   UNL     1       7.757  10.113  17.397  0.00  0.00    +0.000 A 
ATOM     10  C   UNL     1       8.225  11.421  17.503  0.00  0.00    +0.000 A 
BRANCH   5  11
ATOM     11  C   UNL     1       9.698  13.154  18.601  0.00  0.00    +0.000 C 
BRANCH  11  12
ATOM     12  N   UNL     1      10.308  13.355  19.916  0.00  0.00    +0.000 NA
ATOM     13  H   UNL     1      10.408  12.456  20.380  0.00  0.00    +0.000 HD
BRANCH  12  15
ATOM     14  C   UNL     1      10.462  15.263  21.499  0.00  0.00    +0.000 C 
ATOM     15  C   UNL     1       9.543  14.255  20.793  0.00  0.00    +0.000 C 
BRANCH  15  16
ATOM     16  C   UNL     1       8.580  13.493  21.687  0.00  0.00    +0.000 A 
ATOM     17  C   UNL     1       8.907  12.285  22.312  0.00  0.00    +0.000 A 
ATOM     18  C   UNL     1       7.957  11.661  23.108  0.00  0.00    +0.000 A 
ATOM     19  N   UNL     1       6.717  12.145  23.324  0.00  0.00    +0.000 NA
ATOM     20  C   UNL     1       6.409  13.309  22.713  0.00  0.00    +0.000 A 
ATOM     21  C   UNL     1       7.294  14.006  21.905  0.00  0.00    +0.000 A 
ENDBRANCH  15  16
ENDBRANCH  12  15
ENDBRANCH  11  12
ENDBRANCH   5  11
ENDBRANCH   1   8
BRANCH   3  22
ATOM     22  C   UNL     1       6.007   6.374  16.908  0.00  0.00    +0.000 A 
ATOM     23  C   UNL     1       4.833   6.000  17.550  0.00  0.00    +0.000 A 
ATOM     24  C   UNL     1       4.255   4.733  17.387  0.00  0.00    +0.000 A 
ATOM     25  C   UNL     1       4.832   3.881  16.432  0.00  0.00    +0.000 A 
ATOM     26  C   UNL     1       5.973   4.268  15.714  0.00  0.00    +0.000 A 
ATOM     27  C   UNL     1       6.564   5.505  15.969  0.00  0.00    +0.000 A 
BRANCH  24  28
ATOM     28  C   UNL     1       3.117   4.356  18.250  0.00  0.00    +0.000 A 
ATOM     29  C   UNL     1       2.189   3.372  17.890  0.00  0.00    +0.000 A 
ATOM     30  C   UNL     1       1.103   3.073  18.721  0.00  0.00    +0.000 A 
ATOM     31  C   UNL     1       0.921   3.754  19.923  0.00  0.00    +0.000 A 
ATOM     32  C   UNL     1       1.831   4.729  20.308  0.00  0.00    +0.000 A 
ATOM     33  C   UNL     1       2.920   5.014  19.486  0.00  0.00    +0.000 A 
ENDBRANCH  24  28
BRANCH  27  34
ATOM     34  O   UNL     1       7.720   5.877  15.332  0.00  0.00    +0.000 OA
ATOM     35  H   UNL     1       8.428   5.277  15.620  0.00  0.00    +0.000 HD
ENDBRANCH  27  34
ENDBRANCH   3  22
TORSDOF 8
ENDMDL
MODEL 5
REMARK VINA RESULT:      -8.8      6.681      9.217
REMARK  Name = 
REMARK  9 active torsions:
REMARK  status: ('A' for Active; 'I' for Inactive)
REMARK    1  A    between atoms: C_1  and  C_2
REMARK    2  A    between atoms: C_2  and  N_3
REMARK    3  A    between atoms: C_2  and  C_27
REMARK    4  A    between atoms: N_3  and  C_4
REMARK    5  A    between atoms: C_4  and  C_5
REMARK    6  A    between atoms: C_8  and  C_9
REMARK    7  A    between atoms: N_11  and  C_12
REMARK    8  A    between atoms: C_14  and  C_15
REMARK    9  A    between atoms: C_23  and  O_24
REMARK                            x       y       z     vdW  Elec       q    Type
REMARK                         _______ _______ _______ _____ _____    ______ ____
ROOT
ATOM      1  C   UNL     1       3.281   6.568  18.308  0.00  0.00    +0.000 C 
ATOM      2  O   UNL     1       2.829   5.426  18.265  0.00  0.00    +0.000 OA
ATOM      3  N   UNL     1       4.554   6.964  17.931  0.00  0.00    +0.000 N 
ATOM      4  H   UNL     1       4.872   7.910  18.097  0.00  0.00    +0.000 HD
ENDROOT
BRANCH   1   8
ATOM      5  C   UNL     1       0.612   9.603  19.726  0.00  0.00    +0.000 A 
ATOM      6  C   UNL     1       1.051   8.595  20.599  0.00  0.00    +0.000 A 
ATOM      7  C   UNL     1       1.933   7.611  20.165  0.00  0.00    +0.000 A 
ATOM      8  C   UNL     1       2.387   7.624  18.847  0.00  0.00    +0.000 A 
ATOM      9  C   UNL     1       1.945   8.621  17.963  0.00  0.00    +0.000 A 
ATOM     10  C   UNL     1       1.066   9.608  18.401  0.00  0.00    +0.000 A 
BRANCH   5  11
ATOM     11  C   UNL     1      -0.392  10.626  20.195  0.00  0.00    +0.000 C 
BRANCH  11  12
ATOM     12  N   UNL     1      -0.494  11.739  19.251  0.00  0.00    +0.000 NA
ATOM     13  H   UNL     1       0.152  12.474  19.527  0.00  0.00    +0.000 HD
BRANCH  12  15
ATOM     14  C   UNL     1      -2.560  12.290  20.515  0.00  0.00    +0.000 C 
ATOM     15  C   UNL     1      -1.845  12.313  19.155  0.00  0.00    +0.000 C 
BRANCH  15  16
ATOM     16  C   UNL     1      -2.624  11.739  17.984  0.00  0.00    +0.000 A 
ATOM     17  C   UNL     1      -2.014  11.157  16.869  0.00  0.00    +0.000 A 
ATOM     18  C   UNL     1      -2.812  10.663  15.847  0.00  0.00    +0.000 A 
ATOM     19  N   UNL     1      -4.159  10.708  15.852  0.00  0.00    +0.000 NA
ATOM     20  C   UNL     1      -4.740  11.277  16.930  0.00  0.00    +0.000 A 
ATOM     21  C   UNL     1      -4.026  11.791  18.001  0.00  0.00    +0.000 A 
ENDBRANCH  15  16
ENDBRANCH  12  15
ENDBRANCH  11  12
ENDBRANCH   5  11
ENDBRANCH   1   8
BRANCH   3  22
ATOM     22  C   UNL     1       5.564   6.114  17.439  0.00  0.00    +0.000 A 
ATOM     23  C   UNL     1       5.696   5.835  16.084  0.00  0.00    +0.000 A 
ATOM     24  C   UNL     1       6.591   4.874  15.596  0.00  0.00    +0.000 A 
ATOM     25  C   UNL     1       7.467   4.281  16.519  0.00  0.00    +0.000 A 
ATOM     26  C   UNL     1       7.405   4.605  17.883  0.00  0.00    +0.000 A 
ATOM     27  C   UNL     1       6.443   5.506  18.337  0.00  0.00    +0.000 A 
BRANCH  24  28
ATOM     28  C   UNL     1       6.529   4.510  14.166  0.00  0.00    +0.000 A 
ATOM     29  C   UNL     1       5.537   3.672  13.642  0.00  0.00    +0.000 A 
ATOM     30  C   UNL     1       5.537   3.321  12.287  0.00  0.00    +0.000 A 
ATOM     31  C   UNL     1       6.532   3.795  11.432  0.00  0.00    +0.000 A 
ATOM     32  C   UNL     1       7.522   4.633  11.924  0.00  0.00    +0.000 A 
ATOM     33  C   UNL     1       7.510   4.994  13.270  0.00  0.00    +0.000 A 
ENDBRANCH  24  28
BRANCH  27  34
ATOM     34  O   UNL     1       6.316   5.785  19.674  0.00  0.00    +0.000 OA
ATOM     35  H   UNL     1       6.733   5.062  20.172  0.00  0.00    +0.000 HD
ENDBRANCH  27  34
ENDBRANCH   3  22
TORSDOF 8
ENDMDL
MODEL 6
REMARK VINA RESULT:      -8.8      0.749      1.369
REMARK  Name = 
REMARK  9 active torsions:
REMARK  status: ('A' for Active; 'I' for Inactive)
REMARK    1  A    between atoms: C_1  and  C_2
REMARK    2  A    between atoms: C_2  and  N_3
REMARK    3  A    between atoms: C_2  and  C_27
REMARK    4  A    between atoms: N_3  and  C_4
REMARK    5  A    between atoms: C_4  and  C_5
REMARK    6  A    between atoms: C_8  and  C_9
REMARK    7  A    between atoms: N_11  and  C_12
REMARK    8  A    between atoms: C_14  and  C_15
REMARK    9  A    between atoms: C_23  and  O_24
REMARK                            x       y       z     vdW  Elec       q    Type
REMARK                         _______ _______ _______ _____ _____    ______ ____
ROOT
ATOM      1  C   UNL     1       7.577   7.484  18.004  0.00  0.00    +0.000 C 
ATOM      2  O   UNL     1       8.168   6.595  18.613  0.00  0.00    +0.000 OA
ATOM      3  N   UNL     1       6.495   7.320  17.154  0.00  0.00    +0.000 N 
ATOM      4  H   UNL     1       6.137   8.099  16.617  0.00  0.00    +0.000 HD
ENDROOT
BRANCH   1   8
ATOM      5  C   UNL     1       9.212  11.412  18.501  0.00  0.00    +0.000 A 
ATOM      6  C   UNL     1       8.263  11.172  17.495  0.00  0.00    +0.000 A 
ATOM      7  C   UNL     1       7.704   9.909  17.329  0.00  0.00    +0.000 A 
ATOM      8  C   UNL     1       8.091   8.867  18.169  0.00  0.00    +0.000 A 
ATOM      9  C   UNL     1       9.048   9.093  19.171  0.00  0.00    +0.000 A 
ATOM     10  C   UNL     1       9.602  10.360  19.340  0.00  0.00    +0.000 A 
BRANCH   5  11
ATOM     11  C   UNL     1       9.854  12.771  18.628  0.00  0.00    +0.000 C 
BRANCH  11  12
ATOM     12  N   UNL     1       9.361  13.687  17.598  0.00  0.00    +0.000 NA
ATOM     13  H   UNL     1      10.146  14.025  17.047  0.00  0.00    +0.000 HD
BRANCH  12  15
ATOM     14  C   UNL     1       7.166  14.848  17.676  0.00  0.00    +0.000 C 
ATOM     15  C   UNL     1       8.632  14.845  18.137  0.00  0.00    +0.000 C 
BRANCH  15  16
ATOM     16  C   UNL     1       9.396  16.142  17.931  0.00  0.00    +0.000 A 
ATOM     17  C   UNL     1      10.680  16.196  17.380  0.00  0.00    +0.000 A 
ATOM     18  C   UNL     1      11.298  17.431  17.236  0.00  0.00    +0.000 A 
ATOM     19  N   UNL     1      10.739  18.603  17.598  0.00  0.00    +0.000 NA
ATOM     20  C   UNL     1       9.501  18.540  18.134  0.00  0.00    +0.000 A 
ATOM     21  C   UNL     1       8.803  17.355  18.311  0.00  0.00    +0.000 A 
ENDBRANCH  15  16
ENDBRANCH  12  15
ENDBRANCH  11  12
ENDBRANCH   5  11
ENDBRANCH   1   8
BRANCH   3  22
ATOM     22  C   UNL     1       5.888   6.091  16.829  0.00  0.00    +0.000 A 
ATOM     23  C   UNL     1       4.726   5.656  17.454  0.00  0.00    +0.000 A 
ATOM     24  C   UNL     1       4.197   4.373  17.256  0.00  0.00    +0.000 A 
ATOM     25  C   UNL     1       4.812   3.567  16.286  0.00  0.00    +0.000 A 
ATOM     26  C   UNL     1       5.942   4.015  15.585  0.00  0.00    +0.000 A 
ATOM     27  C   UNL     1       6.483   5.267  15.872  0.00  0.00    +0.000 A 
BRANCH  24  28
ATOM     28  C   UNL     1       3.071   3.932  18.103  0.00  0.00    +0.000 A 
ATOM     29  C   UNL     1       2.303   2.798  17.809  0.00  0.00    +0.000 A 
ATOM     30  C   UNL     1       1.219   2.437  18.618  0.00  0.00    +0.000 A 
ATOM     31  C   UNL     1       0.878   3.205  19.730  0.00  0.00    +0.000 A 
ATOM     32  C   UNL     1       1.627   4.330  20.048  0.00  0.00    +0.000 A 
ATOM     33  C   UNL     1       2.715   4.677  19.251  0.00  0.00    +0.000 A 
ENDBRANCH  24  28
BRANCH  27  34
ATOM     34  O   UNL     1       7.627   5.698  15.252  0.00  0.00    +0.000 OA
ATOM     35  H   UNL     1       8.364   5.145  15.562  0.00  0.00    +0.000 HD
ENDBRANCH  27  34
ENDBRANCH   3  22
TORSDOF 8
ENDMDL
MODEL 7
REMARK VINA RESULT:      -8.7      1.480      2.312
REMARK  Name = 
REMARK  9 active torsions:
REMARK  status: ('A' for Active; 'I' for Inactive)
REMARK    1  A    between atoms: C_1  and  C_2
REMARK    2  A    between atoms: C_2  and  N_3
REMARK    3  A    between atoms: C_2  and  C_27
REMARK    4  A    between atoms: N_3  and  C_4
REMARK    5  A    between atoms: C_4  and  C_5
REMARK    6  A    between atoms: C_8  and  C_9
REMARK    7  A    between atoms: N_11  and  C_12
REMARK    8  A    between atoms: C_14  and  C_15
REMARK    9  A    between atoms: C_23  and  O_24
REMARK                            x       y       z     vdW  Elec       q    Type
REMARK                         _______ _______ _______ _____ _____    ______ ____
ROOT
ATOM      1  C   UNL     1       7.746   7.797  18.094  0.00  0.00    +0.000 C 
ATOM      2  O   UNL     1       8.276   6.913  18.763  0.00  0.00    +0.000 OA
ATOM      3  N   UNL     1       6.674   7.644  17.229  0.00  0.00    +0.000 N 
ATOM      4  H   UNL     1       6.370   8.409  16.642  0.00  0.00    +0.000 HD
ENDROOT
BRANCH   1   8
ATOM      5  C   UNL     1       9.278  11.787  18.380  0.00  0.00    +0.000 A 
ATOM      6  C   UNL     1       9.784  10.783  19.220  0.00  0.00    +0.000 A 
ATOM      7  C   UNL     1       9.315   9.476  19.129  0.00  0.00    +0.000 A 
ATOM      8  C   UNL     1       8.330   9.158  18.197  0.00  0.00    +0.000 A 
ATOM      9  C   UNL     1       7.808  10.158  17.361  0.00  0.00    +0.000 A 
ATOM     10  C   UNL     1       8.282  11.465  17.448  0.00  0.00    +0.000 A 
BRANCH   5  11
ATOM     11  C   UNL     1       9.752  13.211  18.533  0.00  0.00    +0.000 C 
BRANCH  11  12
ATOM     12  N   UNL     1       8.835  13.987  19.368  0.00  0.00    +0.000 NA
ATOM     13  H   UNL     1       7.956  13.483  19.460  0.00  0.00    +0.000 HD
BRANCH  12  15
ATOM     14  C   UNL     1       9.274  16.414  19.665  0.00  0.00    +0.000 C 
ATOM     15  C   UNL     1       8.553  15.333  18.845  0.00  0.00    +0.000 C 
BRANCH  15  16
ATOM     16  C   UNL     1       7.067  15.552  18.615  0.00  0.00    +0.000 A 
ATOM     17  C   UNL     1       6.246  14.622  17.970  0.00  0.00    +0.000 A 
ATOM     18  C   UNL     1       4.899  14.916  17.804  0.00  0.00    +0.000 A 
ATOM     19  N   UNL     1       4.318  16.056  18.225  0.00  0.00    +0.000 NA
ATOM     20  C   UNL     1       5.120  16.950  18.842  0.00  0.00    +0.000 A 
ATOM     21  C   UNL     1       6.473  16.742  19.059  0.00  0.00    +0.000 A 
ENDBRANCH  15  16
ENDBRANCH  12  15
ENDBRANCH  11  12
ENDBRANCH   5  11
ENDBRANCH   1   8
BRANCH   3  22
ATOM     22  C   UNL     1       6.010   6.432  16.955  0.00  0.00    +0.000 A 
ATOM     23  C   UNL     1       4.835   6.075  17.605  0.00  0.00    +0.000 A 
ATOM     24  C   UNL     1       4.248   4.810  17.460  0.00  0.00    +0.000 A 
ATOM     25  C   UNL     1       4.817   3.940  16.517  0.00  0.00    +0.000 A 
ATOM     26  C   UNL     1       5.959   4.309  15.792  0.00  0.00    +0.000 A 
ATOM     27  C   UNL     1       6.559   5.545  16.027  0.00  0.00    +0.000 A 
BRANCH  24  28
ATOM     28  C   UNL     1       3.109   4.454  18.331  0.00  0.00    +0.000 A 
ATOM     29  C   UNL     1       2.979   4.938  19.639  0.00  0.00    +0.000 A 
ATOM     30  C   UNL     1       1.903   4.544  20.444  0.00  0.00    +0.000 A 
ATOM     31  C   UNL     1       0.943   3.656  19.961  0.00  0.00    +0.000 A 
ATOM     32  C   UNL     1       1.045   3.168  18.666  0.00  0.00    +0.000 A 
ATOM     33  C   UNL     1       2.108   3.574  17.861  0.00  0.00    +0.000 A 
ENDBRANCH  24  28
BRANCH  27  34
ATOM     34  O   UNL     1       7.716   5.900  15.383  0.00  0.00    +0.000 OA
ATOM     35  H   UNL     1       8.394   6.077  16.057  0.00  0.00    +0.000 HD
ENDBRANCH  27  34
ENDBRANCH   3  22
TORSDOF 8
ENDMDL
MODEL 8
REMARK VINA RESULT:      -8.7      2.300      3.256
REMARK  Name = 
REMARK  9 active torsions:
REMARK  status: ('A' for Active; 'I' for Inactive)
REMARK    1  A    between atoms: C_1  and  C_2
REMARK    2  A    between atoms: C_2  and  N_3
REMARK    3  A    between atoms: C_2  and  C_27
REMARK    4  A    between atoms: N_3  and  C_4
REMARK    5  A    between atoms: C_4  and  C_5
REMARK    6  A    between atoms: C_8  and  C_9
REMARK    7  A    between atoms: N_11  and  C_12
REMARK    8  A    between atoms: C_14  and  C_15
REMARK    9  A    between atoms: C_23  and  O_24
REMARK                            x       y       z     vdW  Elec       q    Type
REMARK                         _______ _______ _______ _____ _____    ______ ____
ROOT
ATOM      1  C   UNL     1       7.683   7.859  18.074  0.00  0.00    +0.000 C 
ATOM      2  O   UNL     1       8.233   6.985  18.740  0.00  0.00    +0.000 OA
ATOM      3  N   UNL     1       6.614   7.684  17.210  0.00  0.00    +0.000 N 
ATOM      4  H   UNL     1       6.292   8.445  16.625  0.00  0.00    +0.000 HD
ENDROOT
BRANCH   1   8
ATOM      5  C   UNL     1       9.430  11.757  18.391  0.00  0.00    +0.000 A 
ATOM      6  C   UNL     1       8.402  11.526  17.464  0.00  0.00    +0.000 A 
ATOM      7  C   UNL     1       7.807  10.272  17.358  0.00  0.00    +0.000 A 
ATOM      8  C   UNL     1       8.236   9.233  18.181  0.00  0.00    +0.000 A 
ATOM      9  C   UNL     1       9.272   9.451  19.103  0.00  0.00    +0.000 A 
ATOM     10  C   UNL     1       9.863  10.707  19.211  0.00  0.00    +0.000 A 
BRANCH   5  11
ATOM     11  C   UNL     1      10.107  13.104  18.450  0.00  0.00    +0.000 C 
BRANCH  11  12
ATOM     12  N   UNL     1      10.040  13.671  19.797  0.00  0.00    +0.000 NA
ATOM     13  H   UNL     1      10.325  12.966  20.472  0.00  0.00    +0.000 HD
BRANCH  12  15
ATOM     14  C   UNL     1       8.620  15.693  20.052  0.00  0.00    +0.000 C 
ATOM     15  C   UNL     1       8.704  14.163  20.166  0.00  0.00    +0.000 C 
BRANCH  15  16
ATOM     16  C   UNL     1       8.221  13.566  21.477  0.00  0.00    +0.000 A 
ATOM     17  C   UNL     1       8.930  12.586  22.180  0.00  0.00    +0.000 A 
ATOM     18  C   UNL     1       8.404  12.100  23.369  0.00  0.00    +0.000 A 
ATOM     19  N   UNL     1       7.236  12.511  23.902  0.00  0.00    +0.000 NA
ATOM     20  C   UNL     1       6.557  13.453  23.214  0.00  0.00    +0.000 A 
ATOM     21  C   UNL     1       7.005  14.002  22.022  0.00  0.00    +0.000 A 
ENDBRANCH  15  16
ENDBRANCH  12  15
ENDBRANCH  11  12
ENDBRANCH   5  11
ENDBRANCH   1   8
BRANCH   3  22
ATOM     22  C   UNL     1       5.976   6.459  16.933  0.00  0.00    +0.000 A 
ATOM     23  C   UNL     1       4.795   6.086  17.563  0.00  0.00    +0.000 A 
ATOM     24  C   UNL     1       4.233   4.810  17.417  0.00  0.00    +0.000 A 
ATOM     25  C   UNL     1       4.836   3.943  16.493  0.00  0.00    +0.000 A 
ATOM     26  C   UNL     1       5.986   4.327  15.787  0.00  0.00    +0.000 A 
ATOM     27  C   UNL     1       6.560   5.575  16.024  0.00  0.00    +0.000 A 
BRANCH  24  28
ATOM     28  C   UNL     1       3.084   4.441  18.269  0.00  0.00    +0.000 A 
ATOM     29  C   UNL     1       2.851   5.028  19.519  0.00  0.00    +0.000 A 
ATOM     30  C   UNL     1       1.772   4.621  20.312  0.00  0.00    +0.000 A 
ATOM     31  C   UNL     1       0.909   3.617  19.873  0.00  0.00    +0.000 A 
ATOM     32  C   UNL     1       1.113   3.024  18.635  0.00  0.00    +0.000 A 
ATOM     33  C   UNL     1       2.179   3.443  17.841  0.00  0.00    +0.000 A 
ENDBRANCH  24  28
BRANCH  27  34
ATOM     34  O   UNL     1       7.723   5.945  15.399  0.00  0.00    +0.000 OA
ATOM     35  H   UNL     1       8.389   5.260  15.576  0.00  0.00    +0.000 HD
ENDBRANCH  27  34
ENDBRANCH   3  22
TORSDOF 8
ENDMDL
MODEL 9
REMARK VINA RESULT:      -8.6      1.274      1.894
REMARK  Name = 
REMARK  9 active torsions:
REMARK  status: ('A' for Active; 'I' for Inactive)
REMARK    1  A    between atoms: C_1  and  C_2
REMARK    2  A    between atoms: C_2  and  N_3
REMARK    3  A    between atoms: C_2  and  C_27
REMARK    4  A    between atoms: N_3  and  C_4
REMARK    5  A    between atoms: C_4  and  C_5
REMARK    6  A    between atoms: C_8  and  C_9
REMARK    7  A    between atoms: N_11  and  C_12
REMARK    8  A    between atoms: C_14  and  C_15
REMARK    9  A    between atoms: C_23  and  O_24
REMARK                            x       y       z     vdW  Elec       q    Type
REMARK                         _______ _______ _______ _____ _____    ______ ____
ROOT
ATOM      1  C   UNL     1       7.720   7.796  18.072  0.00  0.00    +0.000 C 
ATOM      2  O   UNL     1       8.235   6.923  18.767  0.00  0.00    +0.000 OA
ATOM      3  N   UNL     1       6.662   7.630  17.192  0.00  0.00    +0.000 N 
ATOM      4  H   UNL     1       6.370   8.386  16.586  0.00  0.00    +0.000 HD
ENDROOT
BRANCH   1   8
ATOM      5  C   UNL     1       9.264  11.784  18.314  0.00  0.00    +0.000 A 
ATOM      6  C   UNL     1       9.788  10.780  19.144  0.00  0.00    +0.000 A 
ATOM      7  C   UNL     1       9.315   9.474  19.067  0.00  0.00    +0.000 A 
ATOM      8  C   UNL     1       8.308   9.156  18.158  0.00  0.00    +0.000 A 
ATOM      9  C   UNL     1       7.769  10.155  17.332  0.00  0.00    +0.000 A 
ATOM     10  C   UNL     1       8.247  11.461  17.406  0.00  0.00    +0.000 A 
BRANCH   5  11
ATOM     11  C   UNL     1       9.744  13.207  18.452  0.00  0.00    +0.000 C 
BRANCH  11  12
ATOM     12  N   UNL     1       8.930  14.120  17.648  0.00  0.00    +0.000 NA
ATOM     13  H   UNL     1       9.321  14.180  16.710  0.00  0.00    +0.000 HD
BRANCH  12  15
ATOM     14  C   UNL     1      10.008  15.773  19.156  0.00  0.00    +0.000 C 
ATOM     15  C   UNL     1       8.837  15.478  18.206  0.00  0.00    +0.000 C 
BRANCH  15  16
ATOM     16  C   UNL     1       7.450  15.775  18.748  0.00  0.00    +0.000 A 
ATOM     17  C   UNL     1       6.546  14.777  19.129  0.00  0.00    +0.000 A 
ATOM     18  C   UNL     1       5.298  15.149  19.609  0.00  0.00    +0.000 A 
ATOM     19  N   UNL     1       4.887  16.427  19.736  0.00  0.00    +0.000 NA
ATOM     20  C   UNL     1       5.765  17.382  19.361  0.00  0.00    +0.000 A 
ATOM     21  C   UNL     1       7.034  17.108  18.876  0.00  0.00    +0.000 A 
ENDBRANCH  15  16
ENDBRANCH  12  15
ENDBRANCH  11  12
ENDBRANCH   5  11
ENDBRANCH   1   8
BRANCH   3  22
ATOM     22  C   UNL     1       5.997   6.416  16.931  0.00  0.00    +0.000 A 
ATOM     23  C   UNL     1       4.828   6.061  17.594  0.00  0.00    +0.000 A 
ATOM     24  C   UNL     1       4.242   4.795  17.461  0.00  0.00    +0.000 A 
ATOM     25  C   UNL     1       4.803   3.921  16.518  0.00  0.00    +0.000 A 
ATOM     26  C   UNL     1       5.938   4.288  15.779  0.00  0.00    +0.000 A 
ATOM     27  C   UNL     1       6.538   5.526  16.002  0.00  0.00    +0.000 A 
BRANCH  24  28
ATOM     28  C   UNL     1       3.112   4.441  18.345  0.00  0.00    +0.000 A 
ATOM     29  C   UNL     1       2.237   3.384  18.067  0.00  0.00    +0.000 A 
ATOM     30  C   UNL     1       1.156   3.107  18.912  0.00  0.00    +0.000 A 
ATOM     31  C   UNL     1       0.926   3.884  20.046  0.00  0.00    +0.000 A 
ATOM     32  C   UNL     1       1.782   4.933  20.350  0.00  0.00    +0.000 A 
ATOM     33  C   UNL     1       2.867   5.196  19.515  0.00  0.00    +0.000 A 
ENDBRANCH  24  28
BRANCH  27  34
ATOM     34  O   UNL     1       7.688   5.879  15.345  0.00  0.00    +0.000 OA
ATOM     35  H   UNL     1       7.619   6.817  15.101  0.00  0.00    +0.000 HD
ENDBRANCH  27  34
ENDBRANCH   3  22
TORSDOF 8
ENDMDL
