MODEL 1
REMARK VINA RESULT:      -9.1      0.000      0.000
REMARK  Name = 
REMARK  9 active torsions:
REMARK  status: ('A' for Active; 'I' for Inactive)
REMARK    1  A    between atoms: C_1  and  O_2
REMARK    2  A    between atoms: O_2  and  C_3
REMARK    3  A    between atoms: C_3  and  C_4
REMARK    4  A    between atoms: C_9  and  C_10
REMARK    5  A    between atoms: C_12  and  C_13
REMARK    6  A    between atoms: C_16  and  C_17
REMARK    7  A    between atoms: C_18  and  N_19
REMARK    8  A    between atoms: N_19  and  C_20
REMARK    9  A    between atoms: C_21  and  C_23
REMARK                            x       y       z     vdW  Elec       q    Type
REMARK                         _______ _______ _______ _____ _____    ______ ____
ROOT
ATOM      1  C   UNL     1       1.262   8.723  20.096  0.00  0.00    +0.000 A 
ATOM      2  C   UNL     1       0.696   8.247  21.267  0.00  0.00    +0.000 A 
ATOM      3  C   UNL     1      -0.076   9.102  22.045  0.00  0.00    +0.000 A 
ATOM      4  C   UNL     1      -0.282  10.469  21.708  0.00  0.00    +0.000 A 
ATOM      5  C   UNL     1      -1.060  11.228  22.749  0.00  0.00    +0.000 C 
ATOM      6  C   UNL     1       0.266  10.989  20.508  0.00  0.00    +0.000 A 
ATOM      7  C   UNL     1       1.009  10.059  19.722  0.00  0.00    +0.000 A 
ENDROOT
BRANCH   1  10
ATOM      8  C   UNL     1       3.308   6.212  18.754  0.00  0.00    +0.000 A 
ATOM      9  N   UNL     1       2.665   6.708  19.782  0.00  0.00    +0.000 NA
ATOM     10  C   UNL     1       2.141   7.880  19.290  0.00  0.00    +0.000 A 
ATOM     11  N   UNL     1       2.465   8.113  18.007  0.00  0.00    +0.000 NA
ATOM     12  O   UNL     1       3.247   7.014  17.654  0.00  0.00    +0.000 OA
BRANCH   8  15
ATOM     13  C   UNL     1       2.638   3.117  18.690  0.00  0.00    +0.000 C 
ATOM     14  C   UNL     1       3.438   3.858  19.810  0.00  0.00    +0.000 C 
ATOM     15  C   UNL     1       4.009   4.861  18.781  0.00  0.00    +0.000 C 
ATOM     16  C   UNL     1       3.515   3.905  17.665  0.00  0.00    +0.000 C 
BRANCH  13  17
ATOM     17  C   UNL     1       1.129   3.476  18.630  0.00  0.00    +0.000 C 
ATOM     18  F   UNL     1       0.360   2.364  18.495  0.00  0.00    +0.000 F 
ATOM     19  F   UNL     1       0.704   4.098  19.757  0.00  0.00    +0.000 F 
ATOM     20  F   UNL     1       0.834   4.273  17.574  0.00  0.00    +0.000 F 
ENDBRANCH  13  17
BRANCH  13  22
ATOM     21  C   UNL     1       4.045   1.028  18.649  0.00  0.00    +0.000 C 
ATOM     22  O   UNL     1       2.776   1.658  18.659  0.00  0.00    +0.000 OA
ENDBRANCH  13  22
ENDBRANCH   8  15
ENDBRANCH   1  10
BRANCH   6  23
ATOM     23  N   UNL     1       0.209  12.383  20.034  0.00  0.00    +0.000 N 
ATOM     24  C   UNL     1      -0.767  12.658  18.965  0.00  0.00    +0.000 C 
ATOM     25  C   UNL     1       0.963  13.468  20.574  0.00  0.00    +0.000 C 
ATOM     26  O   UNL     1       1.737  13.361  21.518  0.00  0.00    +0.000 OA
BRANCH  25  27
ATOM     27  C   UNL     1       0.784  14.801  20.007  0.00  0.00    +0.000 A 
ATOM     28  C   UNL     1      -0.097  15.812  20.353  0.00  0.00    +0.000 A 
ATOM     29  N   UNL     1       0.049  16.926  19.575  0.00  0.00    +0.000 NA
ATOM     30  C   UNL     1       1.073  16.663  18.796  0.00  0.00    +0.000 A 
ATOM     31  C   UNL     1       1.707  17.460  17.801  0.00  0.00    +0.000 A 
ATOM     32  C   UNL     1       2.791  16.990  17.154  0.00  0.00    +0.000 A 
ATOM     33  C   UNL     1       3.331  15.675  17.446  0.00  0.00    +0.000 A 
ATOM     34  C   UNL     1       2.727  14.902  18.368  0.00  0.00    +0.000 A 
ATOM     35  N   UNL     1       1.596  15.394  19.038  0.00  0.00    +0.000 N 
ENDBRANCH  25  27
ENDBRANCH   6  23
TORSDOF 6
ENDMDL
MODEL 2
REMARK VINA RESULT:      -8.7      1.215      1.613
REMARK  Name = 
REMARK  9 active torsions:
REMARK  status: ('A' for Active; 'I' for Inactive)
REMARK    1  A    between atoms: C_1  and  O_2
REMARK    2  A    between atoms: O_2  and  C_3
REMARK    3  A    between atoms: C_3  and  C_4
REMARK    4  A    between atoms: C_9  and  C_10
REMARK    5  A    between atoms: C_12  and  C_13
REMARK    6  A    between atoms: C_16  and  C_17
REMARK    7  A    between atoms: C_18  and  N_19
REMARK    8  A    between atoms: N_19  and  C_20
REMARK    9  A    between atoms: C_21  and  C_23
REMARK                            x       y       z     vdW  Elec       q    Type
REMARK                         _______ _______ _______ _____ _____    ______ ____
ROOT
ATOM      1  C   UNL     1       0.488   9.103  21.351  0.00  0.00    +0.000 A 
ATOM      2  C   UNL     1      -0.232   9.011  22.531  0.00  0.00    +0.000 A 
ATOM      3  C   UNL     1      -0.873  10.141  23.026  0.00  0.00    +0.000 A 
ATOM      4  C   UNL     1      -0.791  11.410  22.388  0.00  0.00    +0.000 A 
ATOM      5  C   UNL     1      -1.473  12.508  23.158  0.00  0.00    +0.000 C 
ATOM      6  C   UNL     1      -0.080  11.541  21.168  0.00  0.00    +0.000 A 
ATOM      7  C   UNL     1       0.520  10.343  20.679  0.00  0.00    +0.000 A 
ENDROOT
BRANCH   1  10
ATOM      8  C   UNL     1       1.872   5.964  20.631  0.00  0.00    +0.000 A 
ATOM      9  N   UNL     1       1.140   6.716  21.414  0.00  0.00    +0.000 NA
ATOM     10  C   UNL     1       1.238   7.961  20.837  0.00  0.00    +0.000 A 
ATOM     11  N   UNL     1       2.020   7.983  19.745  0.00  0.00    +0.000 NA
ATOM     12  O   UNL     1       2.450   6.663  19.613  0.00  0.00    +0.000 OA
BRANCH   8  15
ATOM     13  C   UNL     1       2.281   3.325  18.928  0.00  0.00    +0.000 C 
ATOM     14  C   UNL     1       1.103   3.603  19.917  0.00  0.00    +0.000 C 
ATOM     15  C   UNL     1       2.022   4.461  20.818  0.00  0.00    +0.000 C 
ATOM     16  C   UNL     1       3.229   3.876  20.041  0.00  0.00    +0.000 C 
BRANCH  13  17
ATOM     17  C   UNL     1       2.260   4.190  17.639  0.00  0.00    +0.000 C 
ATOM     18  F   UNL     1       1.118   4.921  17.551  0.00  0.00    +0.000 F 
ATOM     19  F   UNL     1       3.285   5.078  17.600  0.00  0.00    +0.000 F 
ATOM     20  F   UNL     1       2.317   3.435  16.515  0.00  0.00    +0.000 F 
ENDBRANCH  13  17
BRANCH  13  22
ATOM     21  C   UNL     1       3.782   1.365  18.432  0.00  0.00    +0.000 C 
ATOM     22  O   UNL     1       2.487   1.924  18.550  0.00  0.00    +0.000 OA
ENDBRANCH  13  22
ENDBRANCH   8  15
ENDBRANCH   1  10
BRANCH   6  23
ATOM     23  N   UNL     1       0.162  12.779  20.407  0.00  0.00    +0.000 N 
ATOM     24  C   UNL     1      -0.507  12.868  19.098  0.00  0.00    +0.000 C 
ATOM     25  C   UNL     1       0.921  13.896  20.870  0.00  0.00    +0.000 C 
ATOM     26  O   UNL     1       1.446  13.956  21.975  0.00  0.00    +0.000 OA
BRANCH  25  27
ATOM     27  C   UNL     1       1.057  15.063  20.004  0.00  0.00    +0.000 A 
ATOM     28  C   UNL     1       0.336  16.245  19.973  0.00  0.00    +0.000 A 
ATOM     29  N   UNL     1       0.776  17.103  19.004  0.00  0.00    +0.000 NA
ATOM     30  C   UNL     1       1.823  16.512  18.477  0.00  0.00    +0.000 A 
ATOM     31  C   UNL     1       2.708  16.942  17.448  0.00  0.00    +0.000 A 
ATOM     32  C   UNL     1       3.760  16.175  17.103  0.00  0.00    +0.000 A 
ATOM     33  C   UNL     1       4.014  14.905  17.759  0.00  0.00    +0.000 A 
ATOM     34  C   UNL     1       3.172  14.477  18.718  0.00  0.00    +0.000 A 
ATOM     35  N   UNL     1       2.075  15.277  19.073  0.00  0.00    +0.000 N 
ENDBRANCH  25  27
ENDBRANCH   6  23
TORSDOF 6
ENDMDL
MODEL 3
REMARK VINA RESULT:      -8.7      1.360      2.148
REMARK  Name = 
REMARK  9 active torsions:
REMARK  status: ('A' for Active; 'I' for Inactive)
REMARK    1  A    between atoms: C_1  and  O_2
REMARK    2  A    between atoms: O_2  and  C_3
REMARK    3  A    between atoms: C_3  and  C_4
REMARK    4  A    between atoms: C_9  and  C_10
REMARK    5  A    between atoms: C_12  and  C_13
REMARK    6  A    between atoms: C_16  and  C_17
REMARK    7  A    between atoms: C_18  and  N_19
REMARK    8  A    between atoms: N_19  and  C_20
REMARK    9  A    between atoms: C_21  and  C_23
REMARK                            x       y       z     vdW  Elec       q    Type
REMARK                         _______ _______ _______ _____ _____    ______ ____
ROOT
ATOM      1  C   UNL     1       0.642   9.236  21.120  0.00  0.00    +0.000 A 
ATOM      2  C   UNL     1      -0.092   9.229  22.295  0.00  0.00    +0.000 A 
ATOM      3  C   UNL     1      -0.683  10.409  22.733  0.00  0.00    +0.000 A 
ATOM      4  C   UNL     1      -0.533  11.644  22.043  0.00  0.00    +0.000 A 
ATOM      5  C   UNL     1      -1.169  12.805  22.758  0.00  0.00    +0.000 C 
ATOM      6  C   UNL     1       0.196  11.687  20.828  0.00  0.00    +0.000 A 
ATOM      7  C   UNL     1       0.741  10.442  20.396  0.00  0.00    +0.000 A 
ENDROOT
BRANCH   1  10
ATOM      8  C   UNL     1       1.891   6.008  20.562  0.00  0.00    +0.000 A 
ATOM      9  N   UNL     1       1.195   6.830  21.308  0.00  0.00    +0.000 NA
ATOM     10  C   UNL     1       1.341   8.037  20.665  0.00  0.00    +0.000 A 
ATOM     11  N   UNL     1       2.117   7.969  19.570  0.00  0.00    +0.000 NA
ATOM     12  O   UNL     1       2.491   6.628  19.507  0.00  0.00    +0.000 OA
BRANCH   8  15
ATOM     13  C   UNL     1       2.262   3.274  19.007  0.00  0.00    +0.000 C 
ATOM     14  C   UNL     1       1.061   3.642  19.938  0.00  0.00    +0.000 C 
ATOM     15  C   UNL     1       1.980   4.512  20.828  0.00  0.00    +0.000 C 
ATOM     16  C   UNL     1       3.191   3.847  20.124  0.00  0.00    +0.000 C 
BRANCH  13  17
ATOM     17  C   UNL     1       2.316   4.073  17.677  0.00  0.00    +0.000 C 
ATOM     18  F   UNL     1       2.335   3.244  16.601  0.00  0.00    +0.000 F 
ATOM     19  F   UNL     1       1.237   4.879  17.518  0.00  0.00    +0.000 F 
ATOM     20  F   UNL     1       3.429   4.841  17.586  0.00  0.00    +0.000 F 
ENDBRANCH  13  17
BRANCH  13  22
ATOM     21  C   UNL     1       3.704   1.279  18.475  0.00  0.00    +0.000 C 
ATOM     22  O   UNL     1       2.428   1.849  18.706  0.00  0.00    +0.000 OA
ENDBRANCH  13  22
ENDBRANCH   8  15
ENDBRANCH   1  10
BRANCH   6  23
ATOM     23  N   UNL     1       0.505  12.878  20.018  0.00  0.00    +0.000 N 
ATOM     24  C   UNL     1      -0.143  12.941  18.696  0.00  0.00    +0.000 C 
ATOM     25  C   UNL     1       1.310  13.978  20.443  0.00  0.00    +0.000 C 
ATOM     26  O   UNL     1       1.823  14.062  21.552  0.00  0.00    +0.000 OA
BRANCH  25  27
ATOM     27  C   UNL     1       1.511  15.098  19.529  0.00  0.00    +0.000 A 
ATOM     28  C   UNL     1       2.565  15.383  18.676  0.00  0.00    +0.000 A 
ATOM     29  N   UNL     1       2.376  16.540  17.975  0.00  0.00    +0.000 NA
ATOM     30  C   UNL     1       1.174  16.948  18.312  0.00  0.00    +0.000 A 
ATOM     31  C   UNL     1       0.426  18.079  17.878  0.00  0.00    +0.000 A 
ATOM     32  C   UNL     1      -0.828  18.270  18.331  0.00  0.00    +0.000 A 
ATOM     33  C   UNL     1      -1.440  17.342  19.266  0.00  0.00    +0.000 A 
ATOM     34  C   UNL     1      -0.734  16.282  19.701  0.00  0.00    +0.000 A 
ATOM     35  N   UNL     1       0.573  16.088  19.229  0.00  0.00    +0.000 N 
ENDBRANCH  25  27
ENDBRANCH   6  23
TORSDOF 6
ENDMDL
MODEL 4
REMARK VINA RESULT:      -8.5      2.377      2.961
REMARK  Name = 
REMARK  9 active torsions:
REMARK  status: ('A' for Active; 'I' for Inactive)
REMARK    1  A    between atoms: C_1  and  O_2
REMARK    2  A    between atoms: O_2  and  C_3
REMARK    3  A    between atoms: C_3  and  C_4
REMARK    4  A    between atoms: C_9  and  C_10
REMARK    5  A    between atoms: C_12  and  C_13
REMARK    6  A    between atoms: C_16  and  C_17
REMARK    7  A    between atoms: C_18  and  N_19
REMARK    8  A    between atoms: N_19  and  C_20
REMARK    9  A    between atoms: C_21  and  C_23
REMARK                            x       y       z     vdW  Elec       q    Type
REMARK                         _______ _______ _______ _____ _____    ______ ____
ROOT
ATOM      1  C   UNL     1       1.382   8.365  20.232  0.00  0.00    +0.000 A 
ATOM      2  C   UNL     1       0.841   7.953  21.439  0.00  0.00    +0.000 A 
ATOM      3  C   UNL     1       0.103   8.856  22.196  0.00  0.00    +0.000 A 
ATOM      4  C   UNL     1      -0.091  10.208  21.802  0.00  0.00    +0.000 A 
ATOM      5  C   UNL     1      -0.829  11.027  22.826  0.00  0.00    +0.000 C 
ATOM      6  C   UNL     1       0.432  10.663  20.564  0.00  0.00    +0.000 A 
ATOM      7  C   UNL     1       1.140   9.687  19.803  0.00  0.00    +0.000 A 
ENDROOT
BRANCH   1  10
ATOM      8  C   UNL     1       3.532   6.850  17.914  0.00  0.00    +0.000 A 
ATOM      9  N   UNL     1       2.793   7.876  18.258  0.00  0.00    +0.000 NA
ATOM     10  C   UNL     1       2.227   7.472  19.444  0.00  0.00    +0.000 A 
ATOM     11  N   UNL     1       2.587   6.231  19.813  0.00  0.00    +0.000 NA
ATOM     12  O   UNL     1       3.442   5.813  18.794  0.00  0.00    +0.000 OA
BRANCH   8  15
ATOM     13  C   UNL     1       6.270   5.623  16.900  0.00  0.00    +0.000 C 
ATOM     14  C   UNL     1       5.917   7.144  16.964  0.00  0.00    +0.000 C 
ATOM     15  C   UNL     1       4.426   6.841  16.682  0.00  0.00    +0.000 C 
ATOM     16  C   UNL     1       4.859   5.412  16.264  0.00  0.00    +0.000 C 
BRANCH  13  17
ATOM     17  C   UNL     1       6.441   4.940  18.283  0.00  0.00    +0.000 C 
ATOM     18  F   UNL     1       7.682   4.403  18.421  0.00  0.00    +0.000 F 
ATOM     19  F   UNL     1       6.288   5.814  19.309  0.00  0.00    +0.000 F 
ATOM     20  F   UNL     1       5.563   3.923  18.465  0.00  0.00    +0.000 F 
ENDBRANCH  13  17
BRANCH  13  22
ATOM     21  C   UNL     1       7.238   4.741  14.749  0.00  0.00    +0.000 C 
ATOM     22  O   UNL     1       7.412   5.263  16.054  0.00  0.00    +0.000 OA
ENDBRANCH  13  22
ENDBRANCH   8  15
ENDBRANCH   1  10
BRANCH   6  23
ATOM     23  N   UNL     1       0.383  12.035  20.028  0.00  0.00    +0.000 N 
ATOM     24  C   UNL     1      -0.585  12.265  18.942  0.00  0.00    +0.000 C 
ATOM     25  C   UNL     1       1.138  13.140  20.523  0.00  0.00    +0.000 C 
ATOM     26  O   UNL     1       1.906  13.073  21.476  0.00  0.00    +0.000 OA
BRANCH  25  27
ATOM     27  C   UNL     1       0.968  14.447  19.896  0.00  0.00    +0.000 A 
ATOM     28  C   UNL     1       0.012  15.427  20.108  0.00  0.00    +0.000 A 
ATOM     29  N   UNL     1       0.197  16.523  19.314  0.00  0.00    +0.000 NA
ATOM     30  C   UNL     1       1.311  16.285  18.662  0.00  0.00    +0.000 A 
ATOM     31  C   UNL     1       2.018  17.081  17.717  0.00  0.00    +0.000 A 
ATOM     32  C   UNL     1       3.185  16.643  17.209  0.00  0.00    +0.000 A 
ATOM     33  C   UNL     1       3.744  15.362  17.601  0.00  0.00    +0.000 A 
ATOM     34  C   UNL     1       3.075  14.590  18.477  0.00  0.00    +0.000 A 
ATOM     35  N   UNL     1       1.857  15.048  19.002  0.00  0.00    +0.000 N 
ENDBRANCH  25  27
ENDBRANCH   6  23
TORSDOF 6
ENDMDL
MODEL 5
REMARK VINA RESULT:      -8.5      0.845      1.027
REMARK  Name = 
REMARK  9 active torsions:
REMARK  status: ('A' for Active; 'I' for Inactive)
REMARK    1  A    between atoms: C_1  and  O_2
REMARK    2  A    between atoms: O_2  and  C_3
REMARK    3  A    between atoms: C_3  and  C_4
REMARK    4  A    between atoms: C_9  and  C_10
REMARK    5  A    between atoms: C_12  and  C_13
REMARK    6  A    between atoms: C_16  and  C_17
REMARK    7  A    between atoms: C_18  and  N_19
REMARK    8  A    between atoms: N_19  and  C_20
REMARK    9  A    between atoms: C_21  and  C_23
REMARK                            x       y       z     vdW  Elec       q    Type
REMARK                         _______ _______ _______ _____ _____    ______ ____
ROOT
ATOM      1  C   UNL     1       1.363   8.688  20.002  0.00  0.00    +0.000 A 
ATOM      2  C   UNL     1       0.709   8.081  21.062  0.00  0.00    +0.000 A 
ATOM      3  C   UNL     1      -0.070   8.856  21.913  0.00  0.00    +0.000 A 
ATOM      4  C   UNL     1      -0.197  10.265  21.766  0.00  0.00    +0.000 A 
ATOM      5  C   UNL     1      -1.002  10.908  22.862  0.00  0.00    +0.000 C 
ATOM      6  C   UNL     1       0.442  10.920  20.683  0.00  0.00    +0.000 A 
ATOM      7  C   UNL     1       1.190  10.075  19.812  0.00  0.00    +0.000 A 
ENDROOT
BRANCH   1  10
ATOM      8  C   UNL     1       3.426   6.313  18.455  0.00  0.00    +0.000 A 
ATOM      9  N   UNL     1       2.772   6.711  19.518  0.00  0.00    +0.000 NA
ATOM     10  C   UNL     1       2.252   7.924  19.131  0.00  0.00    +0.000 A 
ATOM     11  N   UNL     1       2.588   8.275  17.878  0.00  0.00    +0.000 NA
ATOM     12  O   UNL     1       3.375   7.213  17.433  0.00  0.00    +0.000 OA
BRANCH   8  15
ATOM     13  C   UNL     1       2.758   3.218  18.348  0.00  0.00    +0.000 C 
ATOM     14  C   UNL     1       3.665   3.923  19.408  0.00  0.00    +0.000 C 
ATOM     15  C   UNL     1       4.129   4.966  18.363  0.00  0.00    +0.000 C 
ATOM     16  C   UNL     1       3.526   4.047  17.269  0.00  0.00    +0.000 C 
BRANCH  13  17
ATOM     17  C   UNL     1       1.250   3.572  18.451  0.00  0.00    +0.000 C 
ATOM     18  F   UNL     1       0.473   2.461  18.357  0.00  0.00    +0.000 F 
ATOM     19  F   UNL     1       0.939   4.154  19.635  0.00  0.00    +0.000 F 
ATOM     20  F   UNL     1       0.849   4.402  17.457  0.00  0.00    +0.000 F 
ENDBRANCH  13  17
BRANCH  13  22
ATOM     21  C   UNL     1       3.977   1.073  18.851  0.00  0.00    +0.000 C 
ATOM     22  O   UNL     1       2.894   1.762  18.252  0.00  0.00    +0.000 OA
ENDBRANCH  13  22
ENDBRANCH   8  15
ENDBRANCH   1  10
BRANCH   6  23
ATOM     23  N   UNL     1       0.473  12.368  20.412  0.00  0.00    +0.000 N 
ATOM     24  C   UNL     1       1.337  13.168  21.298  0.00  0.00    +0.000 C 
ATOM     25  C   UNL     1      -0.201  13.020  19.336  0.00  0.00    +0.000 C 
ATOM     26  O   UNL     1      -0.874  12.436  18.495  0.00  0.00    +0.000 OA
BRANCH  25  27
ATOM     27  C   UNL     1      -0.059  14.466  19.188  0.00  0.00    +0.000 A 
ATOM     28  C   UNL     1      -0.878  15.496  19.619  0.00  0.00    +0.000 A 
ATOM     29  N   UNL     1      -0.392  16.729  19.283  0.00  0.00    +0.000 NA
ATOM     30  C   UNL     1       0.770  16.493  18.718  0.00  0.00    +0.000 A 
ATOM     31  C   UNL     1       1.743  17.391  18.196  0.00  0.00    +0.000 A 
ATOM     32  C   UNL     1       2.901  16.913  17.702  0.00  0.00    +0.000 A 
ATOM     33  C   UNL     1       3.182  15.489  17.685  0.00  0.00    +0.000 A 
ATOM     34  C   UNL     1       2.260  14.628  18.156  0.00  0.00    +0.000 A 
ATOM     35  N   UNL     1       1.053  15.129  18.666  0.00  0.00    +0.000 N 
ENDBRANCH  25  27
ENDBRANCH   6  23
TORSDOF 6
ENDMDL
MODEL 6
REMARK VINA RESULT:      -8.5      1.426      2.592
REMARK  Name = 
REMARK  9 active torsions:
REMARK  status: ('A' for Active; 'I' for Inactive)
REMARK    1  A    between atoms: C_1  and  O_2
REMARK    2  A    between atoms: O_2  and  C_3
REMARK    3  A    between atoms: C_3  and  C_4
REMARK    4  A    between atoms: C_9  and  C_10
REMARK    5  A    between atoms: C_12  and  C_13
REMARK    6  A    between atoms: C_16  and  C_17
REMARK    7  A    between atoms: C_18  and  N_19
REMARK    8  A    between atoms: N_19  and  C_20
REMARK    9  A    between atoms: C_21  and  C_23
REMARK                            x       y       z     vdW  Elec       q    Type
REMARK                         _______ _______ _______ _____ _____    ______ ____
ROOT
ATOM      1  C   UNL     1       1.242   8.793  20.037  0.00  0.00    +0.000 A 
ATOM      2  C   UNL     1       0.953   8.204  21.257  0.00  0.00    +0.000 A 
ATOM      3  C   UNL     1       0.151   8.885  22.166  0.00  0.00    +0.000 A 
ATOM      4  C   UNL     1      -0.360  10.188  21.913  0.00  0.00    +0.000 A 
ATOM      5  C   UNL     1      -1.111  10.770  23.079  0.00  0.00    +0.000 C 
ATOM      6  C   UNL     1      -0.101  10.816  20.668  0.00  0.00    +0.000 A 
ATOM      7  C   UNL     1       0.687  10.058  19.752  0.00  0.00    +0.000 A 
ENDROOT
BRANCH   1  10
ATOM      8  C   UNL     1       3.418   6.678  18.281  0.00  0.00    +0.000 A 
ATOM      9  N   UNL     1       2.798   6.977  19.396  0.00  0.00    +0.000 NA
ATOM     10  C   UNL     1       2.142   8.146  19.086  0.00  0.00    +0.000 A 
ATOM     11  N   UNL     1       2.363   8.567  17.829  0.00  0.00    +0.000 NA
ATOM     12  O   UNL     1       3.217   7.601  17.298  0.00  0.00    +0.000 OA
BRANCH   8  15
ATOM     13  C   UNL     1       3.037   3.542  18.052  0.00  0.00    +0.000 C 
ATOM     14  C   UNL     1       3.920   4.283  19.108  0.00  0.00    +0.000 C 
ATOM     15  C   UNL     1       4.238   5.409  18.097  0.00  0.00    +0.000 C 
ATOM     16  C   UNL     1       3.677   4.486  16.985  0.00  0.00    +0.000 C 
BRANCH  13  17
ATOM     17  C   UNL     1       1.508   3.746  18.231  0.00  0.00    +0.000 C 
ATOM     18  F   UNL     1       1.220   4.300  19.438  0.00  0.00    +0.000 F 
ATOM     19  F   UNL     1       0.988   4.578  17.296  0.00  0.00    +0.000 F 
ATOM     20  F   UNL     1       0.826   2.576  18.177  0.00  0.00    +0.000 F 
ENDBRANCH  13  17
BRANCH  13  22
ATOM     21  C   UNL     1       3.655   1.281  18.974  0.00  0.00    +0.000 C 
ATOM     22  O   UNL     1       3.303   2.111  17.881  0.00  0.00    +0.000 OA
ENDBRANCH  13  22
ENDBRANCH   8  15
ENDBRANCH   1  10
BRANCH   6  23
ATOM     23  N   UNL     1      -0.491  12.176  20.259  0.00  0.00    +0.000 N 
ATOM     24  C   UNL     1      -1.673  12.269  19.384  0.00  0.00    +0.000 C 
ATOM     25  C   UNL     1       0.136  13.381  20.698  0.00  0.00    +0.000 C 
ATOM     26  O   UNL     1       1.069  13.417  21.491  0.00  0.00    +0.000 OA
BRANCH  25  27
ATOM     27  C   UNL     1      -0.379  14.659  20.217  0.00  0.00    +0.000 A 
ATOM     28  C   UNL     1      -0.069  15.378  19.073  0.00  0.00    +0.000 A 
ATOM     29  N   UNL     1      -0.777  16.543  18.977  0.00  0.00    +0.000 NA
ATOM     30  C   UNL     1      -1.594  16.529  20.005  0.00  0.00    +0.000 A 
ATOM     31  C   UNL     1      -2.590  17.464  20.407  0.00  0.00    +0.000 A 
ATOM     32  C   UNL     1      -3.352  17.209  21.487  0.00  0.00    +0.000 A 
ATOM     33  C   UNL     1      -3.179  15.994  22.263  0.00  0.00    +0.000 A 
ATOM     34  C   UNL     1      -2.226  15.113  21.905  0.00  0.00    +0.000 A 
ATOM     35  N   UNL     1      -1.431  15.383  20.781  0.00  0.00    +0.000 N 
ENDBRANCH  25  27
ENDBRANCH   6  23
TORSDOF 6
ENDMDL
MODEL 7
REMARK VINA RESULT:      -8.4      1.160      1.527
REMARK  Name = 
REMARK  9 active torsions:
REMARK  status: ('A' for Active; 'I' for Inactive)
REMARK    1  A    between atoms: C_1  and  O_2
REMARK    2  A    between atoms: O_2  and  C_3
REMARK    3  A    between atoms: C_3  and  C_4
REMARK    4  A    between atoms: C_9  and  C_10
REMARK    5  A    between atoms: C_12  and  C_13
REMARK    6  A    between atoms: C_16  and  C_17
REMARK    7  A    between atoms: C_18  and  N_19
REMARK    8  A    between atoms: N_19  and  C_20
REMARK    9  A    between atoms: C_21  and  C_23
REMARK                            x       y       z     vdW  Elec       q    Type
REMARK                         _______ _______ _______ _____ _____    ______ ____
ROOT
ATOM      1  C   UNL     1       1.006   9.075  20.014  0.00  0.00    +0.000 A 
ATOM      2  C   UNL     1       0.742   8.450  21.222  0.00  0.00    +0.000 A 
ATOM      3  C   UNL     1      -0.041   9.103  22.168  0.00  0.00    +0.000 A 
ATOM      4  C   UNL     1      -0.556  10.413  21.965  0.00  0.00    +0.000 A 
ATOM      5  C   UNL     1      -1.282  10.959  23.164  0.00  0.00    +0.000 C 
ATOM      6  C   UNL     1      -0.322  11.078  20.734  0.00  0.00    +0.000 A 
ATOM      7  C   UNL     1       0.446  10.348  19.780  0.00  0.00    +0.000 A 
ENDROOT
BRANCH   1  10
ATOM      8  C   UNL     1       3.258   7.089  18.206  0.00  0.00    +0.000 A 
ATOM      9  N   UNL     1       2.718   7.413  19.354  0.00  0.00    +0.000 NA
ATOM     10  C   UNL     1       1.885   8.457  19.026  0.00  0.00    +0.000 A 
ATOM     11  N   UNL     1       1.924   8.782  17.722  0.00  0.00    +0.000 NA
ATOM     12  O   UNL     1       2.842   7.883  17.180  0.00  0.00    +0.000 OA
BRANCH   8  15
ATOM     13  C   UNL     1       3.423   3.974  18.757  0.00  0.00    +0.000 C 
ATOM     14  C   UNL     1       4.411   5.054  19.304  0.00  0.00    +0.000 C 
ATOM     15  C   UNL     1       4.217   5.919  18.036  0.00  0.00    +0.000 C 
ATOM     16  C   UNL     1       3.550   4.686  17.372  0.00  0.00    +0.000 C 
BRANCH  13  17
ATOM     17  C   UNL     1       1.996   4.037  19.365  0.00  0.00    +0.000 C 
ATOM     18  F   UNL     1       2.001   4.648  20.578  0.00  0.00    +0.000 F 
ATOM     19  F   UNL     1       1.137   4.741  18.587  0.00  0.00    +0.000 F 
ATOM     20  F   UNL     1       1.468   2.804  19.561  0.00  0.00    +0.000 F 
ENDBRANCH  13  17
BRANCH  13  22
ATOM     21  C   UNL     1       4.448   2.029  19.985  0.00  0.00    +0.000 C 
ATOM     22  O   UNL     1       3.894   2.587  18.807  0.00  0.00    +0.000 OA
ENDBRANCH  13  22
ENDBRANCH   8  15
ENDBRANCH   1  10
BRANCH   6  23
ATOM     23  N   UNL     1      -0.720  12.451  20.375  0.00  0.00    +0.000 N 
ATOM     24  C   UNL     1      -1.810  12.566  19.390  0.00  0.00    +0.000 C 
ATOM     25  C   UNL     1      -0.187  13.642  20.954  0.00  0.00    +0.000 C 
ATOM     26  O   UNL     1       0.660  13.653  21.839  0.00  0.00    +0.000 OA
BRANCH  25  27
ATOM     27  C   UNL     1      -0.697  14.933  20.504  0.00  0.00    +0.000 A 
ATOM     28  C   UNL     1      -1.820  15.641  20.901  0.00  0.00    +0.000 A 
ATOM     29  N   UNL     1      -1.955  16.828  20.236  0.00  0.00    +0.000 NA
ATOM     30  C   UNL     1      -0.882  16.918  19.483  0.00  0.00    +0.000 A 
ATOM     31  C   UNL     1      -0.460  17.948  18.596  0.00  0.00    +0.000 A 
ATOM     32  C   UNL     1       0.721  17.843  17.958  0.00  0.00    +0.000 A 
ATOM     33  C   UNL     1       1.581  16.689  18.152  0.00  0.00    +0.000 A 
ATOM     34  C   UNL     1       1.183  15.698  18.971  0.00  0.00    +0.000 A 
ATOM     35  N   UNL     1      -0.050  15.810  19.631  0.00  0.00    +0.000 N 
ENDBRANCH  25  27
ENDBRANCH   6  23
TORSDOF 6
ENDMDL
MODEL 8
REMARK VINA RESULT:      -8.3      1.559      2.363
REMARK  Name = 
REMARK  9 active torsions:
REMARK  status: ('A' for Active; 'I' for Inactive)
REMARK    1  A    between atoms: C_1  and  O_2
REMARK    2  A    between atoms: O_2  and  C_3
REMARK    3  A    between atoms: C_3  and  C_4
REMARK    4  A    between atoms: C_9  and  C_10
REMARK    5  A    between atoms: C_12  and  C_13
REMARK    6  A    between atoms: C_16  and  C_17
REMARK    7  A    between atoms: C_18  and  N_19
REMARK    8  A    between atoms: N_19  and  C_20
REMARK    9  A    between atoms: C_21  and  C_23
REMARK                            x       y       z     vdW  Elec       q    Type
REMARK                         _______ _______ _______ _____ _____    ______ ____
ROOT
ATOM      1  C   UNL     1       0.599   9.423  21.201  0.00  0.00    +0.000 A 
ATOM      2  C   UNL     1      -0.329   9.362  22.228  0.00  0.00    +0.000 A 
ATOM      3  C   UNL     1      -0.900  10.539  22.698  0.00  0.00    +0.000 A 
ATOM      4  C   UNL     1      -0.544  11.820  22.193  0.00  0.00    +0.000 A 
ATOM      5  C   UNL     1      -1.209  12.954  22.923  0.00  0.00    +0.000 C 
ATOM      6  C   UNL     1       0.389  11.923  21.129  0.00  0.00    +0.000 A 
ATOM      7  C   UNL     1       0.911  10.684  20.651  0.00  0.00    +0.000 A 
ENDROOT
BRANCH   1  10
ATOM      8  C   UNL     1       1.811   6.187  20.615  0.00  0.00    +0.000 A 
ATOM      9  N   UNL     1       1.138   7.014  21.376  0.00  0.00    +0.000 NA
ATOM     10  C   UNL     1       1.279   8.220  20.731  0.00  0.00    +0.000 A 
ATOM     11  N   UNL     1       2.030   8.146  19.618  0.00  0.00    +0.000 NA
ATOM     12  O   UNL     1       2.393   6.802  19.547  0.00  0.00    +0.000 OA
BRANCH   8  15
ATOM     13  C   UNL     1       2.170   3.453  19.056  0.00  0.00    +0.000 C 
ATOM     14  C   UNL     1       0.972   3.825  19.988  0.00  0.00    +0.000 C 
ATOM     15  C   UNL     1       1.894   4.690  20.880  0.00  0.00    +0.000 C 
ATOM     16  C   UNL     1       3.102   4.021  20.173  0.00  0.00    +0.000 C 
BRANCH  13  17
ATOM     17  C   UNL     1       2.227   4.254  17.727  0.00  0.00    +0.000 C 
ATOM     18  F   UNL     1       1.142   5.060  17.588  0.00  0.00    +0.000 F 
ATOM     19  F   UNL     1       3.313   5.063  17.661  0.00  0.00    +0.000 F 
ATOM     20  F   UNL     1       2.241   3.443  16.641  0.00  0.00    +0.000 F 
ENDBRANCH  13  17
BRANCH  13  22
ATOM     21  C   UNL     1       3.578   1.486  18.356  0.00  0.00    +0.000 C 
ATOM     22  O   UNL     1       2.332   2.028  18.753  0.00  0.00    +0.000 OA
ENDBRANCH  13  22
ENDBRANCH   8  15
ENDBRANCH   1  10
BRANCH   6  23
ATOM     23  N   UNL     1       0.921  13.158  20.528  0.00  0.00    +0.000 N 
ATOM     24  C   UNL     1       1.759  13.991  21.409  0.00  0.00    +0.000 C 
ATOM     25  C   UNL     1       0.743  13.556  19.169  0.00  0.00    +0.000 C 
ATOM     26  O   UNL     1       0.136  12.894  18.336  0.00  0.00    +0.000 OA
BRANCH  25  27
ATOM     27  C   UNL     1       1.348  14.805  18.716  0.00  0.00    +0.000 A 
ATOM     28  C   UNL     1       2.620  15.061  18.232  0.00  0.00    +0.000 A 
ATOM     29  N   UNL     1       2.804  16.376  17.906  0.00  0.00    +0.000 NA
ATOM     30  C   UNL     1       1.633  16.939  18.098  0.00  0.00    +0.000 A 
ATOM     31  C   UNL     1       1.209  18.283  17.896  0.00  0.00    +0.000 A 
ATOM     32  C   UNL     1      -0.075  18.623  18.117  0.00  0.00    +0.000 A 
ATOM     33  C   UNL     1      -1.047  17.642  18.566  0.00  0.00    +0.000 A 
ATOM     34  C   UNL     1      -0.653  16.373  18.782  0.00  0.00    +0.000 A 
ATOM     35  N   UNL     1       0.686  16.023  18.554  0.00  0.00    +0.000 N 
ENDBRANCH  25  27
ENDBRANCH   6  23
TORSDOF 6
ENDMDL
MODEL 9
REMARK VINA RESULT:      -8.3      1.474      1.914
REMARK  Name = 
REMARK  9 active torsions:
REMARK  status: ('A' for Active; 'I' for Inactive)
REMARK    1  A    between atoms: C_1  and  O_2
REMARK    2  A    between atoms: O_2  and  C_3
REMARK    3  A    between atoms: C_3  and  C_4
REMARK    4  A    between atoms: C_9  and  C_10
REMARK    5  A    between atoms: C_12  and  C_13
REMARK    6  A    between atoms: C_16  and  C_17
REMARK    7  A    between atoms: C_18  and  N_19
REMARK    8  A    between atoms: N_19  and  C_20
REMARK    9  A    between atoms: C_21  and  C_23
REMARK                            x       y       z     vdW  Elec       q    Type
REMARK                         _______ _______ _______ _____ _____    ______ ____
ROOT
ATOM      1  C   UNL     1       0.480   9.234  21.371  0.00  0.00    +0.000 A 
ATOM      2  C   UNL     1      -0.366   9.101  22.461  0.00  0.00    +0.000 A 
ATOM      3  C   UNL     1      -0.992  10.230  22.976  0.00  0.00    +0.000 A 
ATOM      4  C   UNL     1      -0.773  11.535  22.454  0.00  0.00    +0.000 A 
ATOM      5  C   UNL     1      -1.471  12.614  23.236  0.00  0.00    +0.000 C 
ATOM      6  C   UNL     1       0.072  11.710  21.328  0.00  0.00    +0.000 A 
ATOM      7  C   UNL     1       0.653  10.516  20.808  0.00  0.00    +0.000 A 
ENDROOT
BRANCH   1  10
ATOM      8  C   UNL     1       1.833   6.087  20.629  0.00  0.00    +0.000 A 
ATOM      9  N   UNL     1       1.115   6.842  21.423  0.00  0.00    +0.000 NA
ATOM     10  C   UNL     1       1.216   8.087  20.848  0.00  0.00    +0.000 A 
ATOM     11  N   UNL     1       1.987   8.107  19.746  0.00  0.00    +0.000 NA
ATOM     12  O   UNL     1       2.405   6.784  19.608  0.00  0.00    +0.000 OA
BRANCH   8  15
ATOM     13  C   UNL     1       2.214   3.450  18.917  0.00  0.00    +0.000 C 
ATOM     14  C   UNL     1       1.044   3.733  19.914  0.00  0.00    +0.000 C 
ATOM     15  C   UNL     1       1.974   4.582  20.812  0.00  0.00    +0.000 C 
ATOM     16  C   UNL     1       3.172   3.991  20.025  0.00  0.00    +0.000 C 
BRANCH  13  17
ATOM     17  C   UNL     1       2.191   4.318  17.631  0.00  0.00    +0.000 C 
ATOM     18  F   UNL     1       2.273   3.550  16.513  0.00  0.00    +0.000 F 
ATOM     19  F   UNL     1       1.046   5.037  17.517  0.00  0.00    +0.000 F 
ATOM     20  F   UNL     1       3.235   5.182  17.577  0.00  0.00    +0.000 F 
ENDBRANCH  13  17
BRANCH  13  22
ATOM     21  C   UNL     1       3.689   1.447  18.523  0.00  0.00    +0.000 C 
ATOM     22  O   UNL     1       2.407   2.048  18.534  0.00  0.00    +0.000 OA
ENDBRANCH  13  22
ENDBRANCH   8  15
ENDBRANCH   1  10
BRANCH   6  23
ATOM     23  N   UNL     1       0.462  12.983  20.698  0.00  0.00    +0.000 N 
ATOM     24  C   UNL     1       1.358  13.843  21.490  0.00  0.00    +0.000 C 
ATOM     25  C   UNL     1       0.098  13.396  19.381  0.00  0.00    +0.000 C 
ATOM     26  O   UNL     1      -0.571  12.717  18.611  0.00  0.00    +0.000 OA
BRANCH  25  27
ATOM     27  C   UNL     1       0.579  14.683  18.888  0.00  0.00    +0.000 A 
ATOM     28  C   UNL     1      -0.054  15.914  18.828  0.00  0.00    +0.000 A 
ATOM     29  N   UNL     1       0.742  16.889  18.295  0.00  0.00    +0.000 NA
ATOM     30  C   UNL     1       1.902  16.307  18.096  0.00  0.00    +0.000 A 
ATOM     31  C   UNL     1       3.125  16.833  17.590  0.00  0.00    +0.000 A 
ATOM     32  C   UNL     1       4.216  16.048  17.522  0.00  0.00    +0.000 A 
ATOM     33  C   UNL     1       4.175  14.661  17.951  0.00  0.00    +0.000 A 
ATOM     34  C   UNL     1       3.019  14.146  18.410  0.00  0.00    +0.000 A 
ATOM     35  N   UNL     1       1.883  14.967  18.477  0.00  0.00    +0.000 N 
ENDBRANCH  25  27
ENDBRANCH   6  23
TORSDOF 6
ENDMDL
