MODEL 1
REMARK VINA RESULT:      -8.1      0.000      0.000
REMARK  Name = 
REMARK  13 active torsions:
REMARK  status: ('A' for Active; 'I' for Inactive)
REMARK    1  A    between atoms: C_1  and  O_2
REMARK    2  A    between atoms: O_2  and  C_3
REMARK    3  A    between atoms: C_6  and  C_7
REMARK    4  A    between atoms: C_12  and  C_13
REMARK    5  A    between atoms: C_13  and  C_14
REMARK    6  A    between atoms: C_14  and  N_15
REMARK    7  A    between atoms: N_15  and  S_16
REMARK    8  A    between atoms: S_16  and  C_19
REMARK    9  A    between atoms: C_20  and  C_21
REMARK   10  A    between atoms: C_23  and  C_24
REMARK   11  A    between atoms: C_26  and  C_27
REMARK   12  A    between atoms: C_31  and  O_32
REMARK   13  A    between atoms: O_32  and  C_33
REMARK                            x       y       z     vdW  Elec       q    Type
REMARK                         _______ _______ _______ _____ _____    ______ ____
ROOT
ATOM      1  C   UNL     1       3.971   4.650  17.880  0.00  0.00    +0.000 A 
ATOM      2  N   UNL     1       3.400   3.416  18.137  0.00  0.00    +0.000 NA
ATOM      3  C   UNL     1       2.541   3.711  19.062  0.00  0.00    +0.000 A 
ATOM      4  S   UNL     1       1.381   2.811  19.974  0.00  0.00    +0.000 S 
ATOM      5  C   UNL     1       0.918   4.312  20.773  0.00  0.00    +0.000 A 
ATOM      6  C   UNL     1       1.609   5.396  20.353  0.00  0.00    +0.000 A 
ATOM      7  N   UNL     1       2.544   5.045  19.376  0.00  0.00    +0.000 N 
ATOM      8  N   UNL     1       3.477   5.669  18.624  0.00  0.00    +0.000 NA
ENDROOT
BRANCH   1  12
ATOM      9  C   UNL     1       7.088   5.129  14.962  0.00  0.00    +0.000 A 
ATOM     10  C   UNL     1       6.142   4.093  14.837  0.00  0.00    +0.000 A 
ATOM     11  C   UNL     1       5.124   3.920  15.783  0.00  0.00    +0.000 A 
ATOM     12  C   UNL     1       5.045   4.766  16.890  0.00  0.00    +0.000 A 
ATOM     13  C   UNL     1       6.033   5.754  17.040  0.00  0.00    +0.000 A 
ATOM     14  C   UNL     1       7.061   5.941  16.098  0.00  0.00    +0.000 A 
BRANCH   9  16
ATOM     15  C   UNL     1       7.668   5.002  12.667  0.00  0.00    +0.000 C 
ATOM     16  O   UNL     1       8.044   5.332  14.002  0.00  0.00    +0.000 OA
ENDBRANCH   9  16
BRANCH  14  17
ATOM     17  O   UNL     1       7.907   6.959  16.451  0.00  0.00    +0.000 OA
ATOM     18  C   UNL     1       7.669   7.679  17.651  0.00  0.00    +0.000 C 
ENDBRANCH  14  17
ENDBRANCH   1  12
BRANCH   6  19
ATOM     19  C   UNL     1       1.357   6.787  20.856  0.00  0.00    +0.000 C 
BRANCH  19  20
ATOM     20  C   UNL     1       1.857   7.959  20.001  0.00  0.00    +0.000 C 
BRANCH  20  21
ATOM     21  N   UNL     1       0.906   9.092  20.117  0.00  0.00    +0.000 NA
ATOM     22  H   UNL     1       0.972   9.676  20.950  0.00  0.00    +0.000 HD
BRANCH  21  23
ATOM     23  S   UNL     1       0.750  10.099  18.756  0.00  0.00    +0.000 S 
ATOM     24  O   UNL     1       1.841  11.046  18.804  0.00  0.00    +0.000 OA
ATOM     25  O   UNL     1       0.620   9.205  17.626  0.00  0.00    +0.000 OA
BRANCH  23  26
ATOM     26  C   UNL     1      -0.786  10.983  19.076  0.00  0.00    +0.000 A 
ATOM     27  C   UNL     1      -0.882  11.870  20.177  0.00  0.00    +0.000 A 
ATOM     28  C   UNL     1       0.247  12.284  21.085  0.00  0.00    +0.000 C 
ATOM     29  C   UNL     1      -2.130  12.461  20.471  0.00  0.00    +0.000 A 
ATOM     30  C   UNL     1      -3.259  12.221  19.689  0.00  0.00    +0.000 A 
ATOM     31  C   UNL     1      -4.574  12.872  19.999  0.00  0.00    +0.000 C 
ATOM     32  C   UNL     1      -3.137  11.393  18.575  0.00  0.00    +0.000 A 
ATOM     33  C   UNL     1      -1.913  10.782  18.238  0.00  0.00    +0.000 A 
ATOM     34  C   UNL     1      -1.896   9.964  16.974  0.00  0.00    +0.000 C 
ENDBRANCH  23  26
ENDBRANCH  21  23
ENDBRANCH  20  21
ENDBRANCH  19  20
ENDBRANCH   6  19
TORSDOF 8
ENDMDL
MODEL 2
REMARK VINA RESULT:      -7.9      1.346      2.038
REMARK  Name = 
REMARK  13 active torsions:
REMARK  status: ('A' for Active; 'I' for Inactive)
REMARK    1  A    between atoms: C_1  and  O_2
REMARK    2  A    between atoms: O_2  and  C_3
REMARK    3  A    between atoms: C_6  and  C_7
REMARK    4  A    between atoms: C_12  and  C_13
REMARK    5  A    between atoms: C_13  and  C_14
REMARK    6  A    between atoms: C_14  and  N_15
REMARK    7  A    between atoms: N_15  and  S_16
REMARK    8  A    between atoms: S_16  and  C_19
REMARK    9  A    between atoms: C_20  and  C_21
REMARK   10  A    between atoms: C_23  and  C_24
REMARK   11  A    between atoms: C_26  and  C_27
REMARK   12  A    between atoms: C_31  and  O_32
REMARK   13  A    between atoms: O_32  and  C_33
REMARK                            x       y       z     vdW  Elec       q    Type
REMARK                         _______ _______ _______ _____ _____    ______ ____
ROOT
ATOM      1  C   UNL     1       3.920   4.707  17.855  0.00  0.00    +0.000 A 
ATOM      2  N   UNL     1       3.247   3.510  18.026  0.00  0.00    +0.000 NA
ATOM      3  C   UNL     1       2.433   3.801  18.991  0.00  0.00    +0.000 A 
ATOM      4  S   UNL     1       1.214   2.932  19.854  0.00  0.00    +0.000 S 
ATOM      5  C   UNL     1       0.897   4.396  20.781  0.00  0.00    +0.000 A 
ATOM      6  C   UNL     1       1.673   5.447  20.434  0.00  0.00    +0.000 A 
ATOM      7  N   UNL     1       2.558   5.099  19.411  0.00  0.00    +0.000 N 
ATOM      8  N   UNL     1       3.530   5.701  18.690  0.00  0.00    +0.000 NA
ENDROOT
BRANCH   1  12
ATOM      9  C   UNL     1       7.013   5.153  14.906  0.00  0.00    +0.000 A 
ATOM     10  C   UNL     1       6.027   4.157  14.765  0.00  0.00    +0.000 A 
ATOM     11  C   UNL     1       5.016   3.995  15.722  0.00  0.00    +0.000 A 
ATOM     12  C   UNL     1       4.985   4.811  16.853  0.00  0.00    +0.000 A 
ATOM     13  C   UNL     1       6.011   5.757  17.016  0.00  0.00    +0.000 A 
ATOM     14  C   UNL     1       7.032   5.932  16.064  0.00  0.00    +0.000 A 
BRANCH   9  16
ATOM     15  C   UNL     1       7.656   4.822  12.648  0.00  0.00    +0.000 C 
ATOM     16  O   UNL     1       7.962   5.347  13.937  0.00  0.00    +0.000 OA
ENDBRANCH   9  16
BRANCH  14  17
ATOM     17  O   UNL     1       7.921   6.907  16.433  0.00  0.00    +0.000 OA
ATOM     18  C   UNL     1       7.592   7.783  17.501  0.00  0.00    +0.000 C 
ENDBRANCH  14  17
ENDBRANCH   1  12
BRANCH   6  19
ATOM     19  C   UNL     1       1.552   6.809  21.053  0.00  0.00    +0.000 C 
BRANCH  19  20
ATOM     20  C   UNL     1       1.643   8.028  20.125  0.00  0.00    +0.000 C 
BRANCH  20  21
ATOM     21  N   UNL     1       0.487   8.924  20.378  0.00  0.00    +0.000 NA
ATOM     22  H   UNL     1      -0.178   8.639  21.097  0.00  0.00    +0.000 HD
BRANCH  21  23
ATOM     23  S   UNL     1       0.833  10.576  20.578  0.00  0.00    +0.000 S 
ATOM     24  O   UNL     1       1.892  10.671  21.557  0.00  0.00    +0.000 OA
ATOM     25  O   UNL     1       1.035  11.093  19.242  0.00  0.00    +0.000 OA
BRANCH  23  26
ATOM     26  C   UNL     1      -0.679  11.224  21.312  0.00  0.00    +0.000 A 
ATOM     27  C   UNL     1      -1.501  12.118  20.581  0.00  0.00    +0.000 A 
ATOM     28  C   UNL     1      -1.319  12.512  19.138  0.00  0.00    +0.000 C 
ATOM     29  C   UNL     1      -2.618  12.697  21.222  0.00  0.00    +0.000 A 
ATOM     30  C   UNL     1      -2.951  12.388  22.540  0.00  0.00    +0.000 A 
ATOM     31  C   UNL     1      -4.153  12.995  23.201  0.00  0.00    +0.000 C 
ATOM     32  C   UNL     1      -2.168  11.463  23.227  0.00  0.00    +0.000 A 
ATOM     33  C   UNL     1      -1.046  10.855  22.632  0.00  0.00    +0.000 A 
ATOM     34  C   UNL     1      -0.324   9.824  23.458  0.00  0.00    +0.000 C 
ENDBRANCH  23  26
ENDBRANCH  21  23
ENDBRANCH  20  21
ENDBRANCH  19  20
ENDBRANCH   6  19
TORSDOF 8
ENDMDL
MODEL 3
REMARK VINA RESULT:      -7.9      0.534      1.597
REMARK  Name = 
REMARK  13 active torsions:
REMARK  status: ('A' for Active; 'I' for Inactive)
REMARK    1  A    between atoms: C_1  and  O_2
REMARK    2  A    between atoms: O_2  and  C_3
REMARK    3  A    between atoms: C_6  and  C_7
REMARK    4  A    between atoms: C_12  and  C_13
REMARK    5  A    between atoms: C_13  and  C_14
REMARK    6  A    between atoms: C_14  and  N_15
REMARK    7  A    between atoms: N_15  and  S_16
REMARK    8  A    between atoms: S_16  and  C_19
REMARK    9  A    between atoms: C_20  and  C_21
REMARK   10  A    between atoms: C_23  and  C_24
REMARK   11  A    between atoms: C_26  and  C_27
REMARK   12  A    between atoms: C_31  and  O_32
REMARK   13  A    between atoms: O_32  and  C_33
REMARK                            x       y       z     vdW  Elec       q    Type
REMARK                         _______ _______ _______ _____ _____    ______ ____
ROOT
ATOM      1  C   UNL     1       3.926   4.651  17.766  0.00  0.00    +0.000 A 
ATOM      2  N   UNL     1       3.183   3.488  17.859  0.00  0.00    +0.000 NA
ATOM      3  C   UNL     1       2.347   3.784  18.803  0.00  0.00    +0.000 A 
ATOM      4  S   UNL     1       1.048   2.949  19.579  0.00  0.00    +0.000 S 
ATOM      5  C   UNL     1       0.772   4.389  20.556  0.00  0.00    +0.000 A 
ATOM      6  C   UNL     1       1.617   5.409  20.286  0.00  0.00    +0.000 A 
ATOM      7  N   UNL     1       2.524   5.055  19.283  0.00  0.00    +0.000 N 
ATOM      8  N   UNL     1       3.556   5.630  18.628  0.00  0.00    +0.000 NA
ENDROOT
BRANCH   1  12
ATOM      9  C   UNL     1       7.146   5.042  14.949  0.00  0.00    +0.000 A 
ATOM     10  C   UNL     1       6.199   4.008  14.815  0.00  0.00    +0.000 A 
ATOM     11  C   UNL     1       5.147   3.864  15.730  0.00  0.00    +0.000 A 
ATOM     12  C   UNL     1       5.035   4.737  16.812  0.00  0.00    +0.000 A 
ATOM     13  C   UNL     1       6.023   5.724  16.972  0.00  0.00    +0.000 A 
ATOM     14  C   UNL     1       7.084   5.882  16.062  0.00  0.00    +0.000 A 
BRANCH   9  16
ATOM     15  C   UNL     1       7.703   5.391  12.670  0.00  0.00    +0.000 C 
ATOM     16  O   UNL     1       8.136   5.216  14.017  0.00  0.00    +0.000 OA
ENDBRANCH   9  16
BRANCH  14  17
ATOM     17  O   UNL     1       7.923   6.904  16.419  0.00  0.00    +0.000 OA
ATOM     18  C   UNL     1       7.536   7.796  17.453  0.00  0.00    +0.000 C 
ENDBRANCH  14  17
ENDBRANCH   1  12
BRANCH   6  19
ATOM     19  C   UNL     1       1.545   6.748  20.958  0.00  0.00    +0.000 C 
BRANCH  19  20
ATOM     20  C   UNL     1       1.757   7.997  20.091  0.00  0.00    +0.000 C 
BRANCH  20  21
ATOM     21  N   UNL     1       0.632   8.941  20.307  0.00  0.00    +0.000 NA
ATOM     22  H   UNL     1       0.318   9.084  21.268  0.00  0.00    +0.000 HD
BRANCH  21  23
ATOM     23  S   UNL     1       0.747  10.453  19.539  0.00  0.00    +0.000 S 
ATOM     24  O   UNL     1       1.571  11.292  20.380  0.00  0.00    +0.000 OA
ATOM     25  O   UNL     1       1.156  10.167  18.182  0.00  0.00    +0.000 OA
BRANCH  23  26
ATOM     26  C   UNL     1      -0.943  11.072  19.600  0.00  0.00    +0.000 A 
ATOM     27  C   UNL     1      -1.830  10.830  18.522  0.00  0.00    +0.000 A 
ATOM     28  C   UNL     1      -1.554   9.958  17.325  0.00  0.00    +0.000 C 
ATOM     29  C   UNL     1      -3.112  11.422  18.547  0.00  0.00    +0.000 A 
ATOM     30  C   UNL     1      -3.537  12.211  19.615  0.00  0.00    +0.000 A 
ATOM     31  C   UNL     1      -4.908  12.818  19.637  0.00  0.00    +0.000 C 
ATOM     32  C   UNL     1      -2.675  12.393  20.695  0.00  0.00    +0.000 A 
ATOM     33  C   UNL     1      -1.389  11.820  20.720  0.00  0.00    +0.000 A 
ATOM     34  C   UNL     1      -0.582  12.037  21.972  0.00  0.00    +0.000 C 
ENDBRANCH  23  26
ENDBRANCH  21  23
ENDBRANCH  20  21
ENDBRANCH  19  20
ENDBRANCH   6  19
TORSDOF 8
ENDMDL
MODEL 4
REMARK VINA RESULT:      -7.8      2.835      8.333
REMARK  Name = 
REMARK  13 active torsions:
REMARK  status: ('A' for Active; 'I' for Inactive)
REMARK    1  A    between atoms: C_1  and  O_2
REMARK    2  A    between atoms: O_2  and  C_3
REMARK    3  A    between atoms: C_6  and  C_7
REMARK    4  A    between atoms: C_12  and  C_13
REMARK    5  A    between atoms: C_13  and  C_14
REMARK    6  A    between atoms: C_14  and  N_15
REMARK    7  A    between atoms: N_15  and  S_16
REMARK    8  A    between atoms: S_16  and  C_19
REMARK    9  A    between atoms: C_20  and  C_21
REMARK   10  A    between atoms: C_23  and  C_24
REMARK   11  A    between atoms: C_26  and  C_27
REMARK   12  A    between atoms: C_31  and  O_32
REMARK   13  A    between atoms: O_32  and  C_33
REMARK                            x       y       z     vdW  Elec       q    Type
REMARK                         _______ _______ _______ _____ _____    ______ ____
ROOT
ATOM      1  C   UNL     1       1.794   6.734  19.876  0.00  0.00    +0.000 A 
ATOM      2  N   UNL     1       1.855   6.056  21.080  0.00  0.00    +0.000 NA
ATOM      3  C   UNL     1       2.065   4.839  20.686  0.00  0.00    +0.000 A 
ATOM      4  S   UNL     1       2.285   3.324  21.489  0.00  0.00    +0.000 S 
ATOM      5  C   UNL     1       2.492   2.573  19.909  0.00  0.00    +0.000 A 
ATOM      6  C   UNL     1       2.399   3.436  18.872  0.00  0.00    +0.000 A 
ATOM      7  N   UNL     1       2.147   4.734  19.323  0.00  0.00    +0.000 N 
ATOM      8  N   UNL     1       1.961   5.956  18.778  0.00  0.00    +0.000 NA
ENDROOT
BRANCH   1  12
ATOM      9  C   UNL     1       0.891  10.934  19.884  0.00  0.00    +0.000 A 
ATOM     10  C   UNL     1       1.398  10.313  18.726  0.00  0.00    +0.000 A 
ATOM     11  C   UNL     1       1.703   8.946  18.710  0.00  0.00    +0.000 A 
ATOM     12  C   UNL     1       1.531   8.176  19.861  0.00  0.00    +0.000 A 
ATOM     13  C   UNL     1       1.087   8.819  21.029  0.00  0.00    +0.000 A 
ATOM     14  C   UNL     1       0.776  10.191  21.060  0.00  0.00    +0.000 A 
BRANCH   9  16
ATOM     15  C   UNL     1      -0.063  12.738  18.675  0.00  0.00    +0.000 C 
ATOM     16  O   UNL     1       0.537  12.258  19.876  0.00  0.00    +0.000 OA
ENDBRANCH   9  16
BRANCH  14  17
ATOM     17  O   UNL     1       0.366  10.600  22.302  0.00  0.00    +0.000 OA
ATOM     18  C   UNL     1      -0.018   9.630  23.264  0.00  0.00    +0.000 C 
ENDBRANCH  14  17
ENDBRANCH   1  12
BRANCH   6  19
ATOM     19  C   UNL     1       2.585   3.034  17.438  0.00  0.00    +0.000 C 
BRANCH  19  20
ATOM     20  C   UNL     1       3.587   3.834  16.595  0.00  0.00    +0.000 C 
BRANCH  20  21
ATOM     21  N   UNL     1       4.308   4.794  17.469  0.00  0.00    +0.000 NA
ATOM     22  H   UNL     1       3.851   5.070  18.338  0.00  0.00    +0.000 HD
BRANCH  21  23
ATOM     23  S   UNL     1       5.940   4.449  17.796  0.00  0.00    +0.000 S 
ATOM     24  O   UNL     1       5.988   3.826  19.099  0.00  0.00    +0.000 OA
ATOM     25  O   UNL     1       6.424   3.734  16.635  0.00  0.00    +0.000 OA
BRANCH  23  26
ATOM     26  C   UNL     1       6.685   6.084  17.919  0.00  0.00    +0.000 A 
ATOM     27  C   UNL     1       6.210   7.147  17.110  0.00  0.00    +0.000 A 
ATOM     28  C   UNL     1       5.006   7.104  16.206  0.00  0.00    +0.000 C 
ATOM     29  C   UNL     1       6.886   8.386  17.146  0.00  0.00    +0.000 A 
ATOM     30  C   UNL     1       7.986   8.600  17.975  0.00  0.00    +0.000 A 
ATOM     31  C   UNL     1       8.682   9.928  18.018  0.00  0.00    +0.000 C 
ATOM     32  C   UNL     1       8.406   7.565  18.808  0.00  0.00    +0.000 A 
ATOM     33  C   UNL     1       7.763   6.312  18.812  0.00  0.00    +0.000 A 
ATOM     34  C   UNL     1       8.272   5.300  19.804  0.00  0.00    +0.000 C 
ENDBRANCH  23  26
ENDBRANCH  21  23
ENDBRANCH  20  21
ENDBRANCH  19  20
ENDBRANCH   6  19
TORSDOF 8
ENDMDL
MODEL 5
REMARK VINA RESULT:      -7.8      5.676      8.603
REMARK  Name = 
REMARK  13 active torsions:
REMARK  status: ('A' for Active; 'I' for Inactive)
REMARK    1  A    between atoms: C_1  and  O_2
REMARK    2  A    between atoms: O_2  and  C_3
REMARK    3  A    between atoms: C_6  and  C_7
REMARK    4  A    between atoms: C_12  and  C_13
REMARK    5  A    between atoms: C_13  and  C_14
REMARK    6  A    between atoms: C_14  and  N_15
REMARK    7  A    between atoms: N_15  and  S_16
REMARK    8  A    between atoms: S_16  and  C_19
REMARK    9  A    between atoms: C_20  and  C_21
REMARK   10  A    between atoms: C_23  and  C_24
REMARK   11  A    between atoms: C_26  and  C_27
REMARK   12  A    between atoms: C_31  and  O_32
REMARK   13  A    between atoms: O_32  and  C_33
REMARK                            x       y       z     vdW  Elec       q    Type
REMARK                         _______ _______ _______ _____ _____    ______ ____
ROOT
ATOM      1  C   UNL     1      -0.989  11.924  22.572  0.00  0.00    +0.000 A 
ATOM      2  N   UNL     1      -0.385  13.098  22.987  0.00  0.00    +0.000 NA
ATOM      3  C   UNL     1      -1.352  13.681  23.622  0.00  0.00    +0.000 A 
ATOM      4  S   UNL     1      -1.516  15.175  24.477  0.00  0.00    +0.000 S 
ATOM      5  C   UNL     1      -3.182  14.729  24.836  0.00  0.00    +0.000 A 
ATOM      6  C   UNL     1      -3.552  13.530  24.334  0.00  0.00    +0.000 A 
ATOM      7  N   UNL     1      -2.501  12.935  23.632  0.00  0.00    +0.000 N 
ATOM      8  N   UNL     1      -2.286  11.793  22.943  0.00  0.00    +0.000 NA
ENDROOT
BRANCH   1  12
ATOM      9  C   UNL     1       1.135   9.122  20.104  0.00  0.00    +0.000 A 
ATOM     10  C   UNL     1       0.640   8.734  21.364  0.00  0.00    +0.000 A 
ATOM     11  C   UNL     1      -0.049   9.639  22.183  0.00  0.00    +0.000 A 
ATOM     12  C   UNL     1      -0.235  10.958  21.768  0.00  0.00    +0.000 A 
ATOM     13  C   UNL     1       0.320  11.351  20.539  0.00  0.00    +0.000 A 
ATOM     14  C   UNL     1       1.014  10.454  19.705  0.00  0.00    +0.000 A 
BRANCH   9  16
ATOM     15  C   UNL     1       2.285   7.056  19.915  0.00  0.00    +0.000 C 
ATOM     16  O   UNL     1       1.754   8.217  19.281  0.00  0.00    +0.000 OA
ENDBRANCH   9  16
BRANCH  14  17
ATOM     17  O   UNL     1       1.467  11.057  18.561  0.00  0.00    +0.000 OA
ATOM     18  C   UNL     1       1.854  12.422  18.599  0.00  0.00    +0.000 C 
ENDBRANCH  14  17
ENDBRANCH   1  12
BRANCH   6  19
ATOM     19  C   UNL     1      -4.907  12.922  24.550  0.00  0.00    +0.000 C 
BRANCH  19  20
ATOM     20  C   UNL     1      -5.969  13.136  23.463  0.00  0.00    +0.000 C 
BRANCH  20  21
ATOM     21  N   UNL     1      -5.629  12.315  22.275  0.00  0.00    +0.000 NA
ATOM     22  H   UNL     1      -5.830  11.316  22.322  0.00  0.00    +0.000 HD
BRANCH  21  23
ATOM     23  S   UNL     1      -6.149  12.904  20.767  0.00  0.00    +0.000 S 
ATOM     24  O   UNL     1      -7.444  12.317  20.508  0.00  0.00    +0.000 OA
ATOM     25  O   UNL     1      -6.010  14.342  20.846  0.00  0.00    +0.000 OA
BRANCH  23  26
ATOM     26  C   UNL     1      -4.960  12.190  19.618  0.00  0.00    +0.000 A 
ATOM     27  C   UNL     1      -5.361  11.171  18.718  0.00  0.00    +0.000 A 
ATOM     28  C   UNL     1      -6.769  10.679  18.506  0.00  0.00    +0.000 C 
ATOM     29  C   UNL     1      -4.384  10.552  17.909  0.00  0.00    +0.000 A 
ATOM     30  C   UNL     1      -3.045  10.937  17.949  0.00  0.00    +0.000 A 
ATOM     31  C   UNL     1      -2.020  10.284  17.069  0.00  0.00    +0.000 C 
ATOM     32  C   UNL     1      -2.675  11.979  18.796  0.00  0.00    +0.000 A 
ATOM     33  C   UNL     1      -3.612  12.632  19.620  0.00  0.00    +0.000 A 
ATOM     34  C   UNL     1      -3.098  13.785  20.439  0.00  0.00    +0.000 C 
ENDBRANCH  23  26
ENDBRANCH  21  23
ENDBRANCH  20  21
ENDBRANCH  19  20
ENDBRANCH   6  19
TORSDOF 8
ENDMDL
MODEL 6
REMARK VINA RESULT:      -7.8      3.449      5.891
REMARK  Name = 
REMARK  13 active torsions:
REMARK  status: ('A' for Active; 'I' for Inactive)
REMARK    1  A    between atoms: C_1  and  O_2
REMARK    2  A    between atoms: O_2  and  C_3
REMARK    3  A    between atoms: C_6  and  C_7
REMARK    4  A    between atoms: C_12  and  C_13
REMARK    5  A    between atoms: C_13  and  C_14
REMARK    6  A    between atoms: C_14  and  N_15
REMARK    7  A    between atoms: N_15  and  S_16
REMARK    8  A    between atoms: S_16  and  C_19
REMARK    9  A    between atoms: C_20  and  C_21
REMARK   10  A    between atoms: C_23  and  C_24
REMARK   11  A    between atoms: C_26  and  C_27
REMARK   12  A    between atoms: C_31  and  O_32
REMARK   13  A    between atoms: O_32  and  C_33
REMARK                            x       y       z     vdW  Elec       q    Type
REMARK                         _______ _______ _______ _____ _____    ______ ____
ROOT
ATOM      1  C   UNL     1       1.689   7.776  20.060  0.00  0.00    +0.000 A 
ATOM      2  N   UNL     1       1.835   8.707  19.047  0.00  0.00    +0.000 NA
ATOM      3  C   UNL     1       1.202   9.727  19.534  0.00  0.00    +0.000 A 
ATOM      4  S   UNL     1       0.874  11.331  18.978  0.00  0.00    +0.000 S 
ATOM      5  C   UNL     1       0.034  11.632  20.497  0.00  0.00    +0.000 A 
ATOM      6  C   UNL     1       0.025  10.576  21.341  0.00  0.00    +0.000 A 
ATOM      7  N   UNL     1       0.691   9.483  20.782  0.00  0.00    +0.000 N 
ATOM      8  N   UNL     1       0.988   8.213  21.135  0.00  0.00    +0.000 NA
ENDROOT
BRANCH   1  12
ATOM      9  C   UNL     1       3.290   3.835  19.454  0.00  0.00    +0.000 A 
ATOM     10  C   UNL     1       2.323   4.070  20.451  0.00  0.00    +0.000 A 
ATOM     11  C   UNL     1       1.796   5.351  20.665  0.00  0.00    +0.000 A 
ATOM     12  C   UNL     1       2.245   6.429  19.901  0.00  0.00    +0.000 A 
ATOM     13  C   UNL     1       3.257   6.196  18.955  0.00  0.00    +0.000 A 
ATOM     14  C   UNL     1       3.795   4.915  18.728  0.00  0.00    +0.000 A 
BRANCH   9  16
ATOM     15  C   UNL     1       4.564   1.992  20.231  0.00  0.00    +0.000 C 
ATOM     16  O   UNL     1       3.756   2.570  19.208  0.00  0.00    +0.000 OA
ENDBRANCH   9  16
BRANCH  14  17
ATOM     17  O   UNL     1       4.768   4.927  17.763  0.00  0.00    +0.000 OA
ATOM     18  C   UNL     1       6.133   4.929  18.150  0.00  0.00    +0.000 C 
ENDBRANCH  14  17
ENDBRANCH   1  12
BRANCH   6  19
ATOM     19  C   UNL     1      -0.590  10.612  22.710  0.00  0.00    +0.000 C 
BRANCH  19  20
ATOM     20  C   UNL     1      -1.319  11.894  23.134  0.00  0.00    +0.000 C 
BRANCH  20  21
ATOM     21  N   UNL     1      -2.762  11.598  23.321  0.00  0.00    +0.000 NA
ATOM     22  H   UNL     1      -3.004  10.809  23.920  0.00  0.00    +0.000 HD
BRANCH  21  23
ATOM     23  S   UNL     1      -3.764  12.913  23.718  0.00  0.00    +0.000 S 
ATOM     24  O   UNL     1      -4.492  12.544  24.911  0.00  0.00    +0.000 OA
ATOM     25  O   UNL     1      -2.895  14.070  23.731  0.00  0.00    +0.000 OA
BRANCH  23  26
ATOM     26  C   UNL     1      -4.922  12.975  22.340  0.00  0.00    +0.000 A 
ATOM     27  C   UNL     1      -6.299  12.721  22.554  0.00  0.00    +0.000 A 
ATOM     28  C   UNL     1      -6.968  12.523  23.890  0.00  0.00    +0.000 C 
ATOM     29  C   UNL     1      -7.164  12.664  21.440  0.00  0.00    +0.000 A 
ATOM     30  C   UNL     1      -6.706  12.882  20.142  0.00  0.00    +0.000 A 
ATOM     31  C   UNL     1      -7.639  12.839  18.969  0.00  0.00    +0.000 C 
ATOM     32  C   UNL     1      -5.360  13.188  19.951  0.00  0.00    +0.000 A 
ATOM     33  C   UNL     1      -4.458  13.260  21.031  0.00  0.00    +0.000 A 
ATOM     34  C   UNL     1      -3.046  13.664  20.699  0.00  0.00    +0.000 C 
ENDBRANCH  23  26
ENDBRANCH  21  23
ENDBRANCH  20  21
ENDBRANCH  19  20
ENDBRANCH   6  19
TORSDOF 8
ENDMDL
MODEL 7
REMARK VINA RESULT:      -7.7      3.529      4.877
REMARK  Name = 
REMARK  13 active torsions:
REMARK  status: ('A' for Active; 'I' for Inactive)
REMARK    1  A    between atoms: C_1  and  O_2
REMARK    2  A    between atoms: O_2  and  C_3
REMARK    3  A    between atoms: C_6  and  C_7
REMARK    4  A    between atoms: C_12  and  C_13
REMARK    5  A    between atoms: C_13  and  C_14
REMARK    6  A    between atoms: C_14  and  N_15
REMARK    7  A    between atoms: N_15  and  S_16
REMARK    8  A    between atoms: S_16  and  C_19
REMARK    9  A    between atoms: C_20  and  C_21
REMARK   10  A    between atoms: C_23  and  C_24
REMARK   11  A    between atoms: C_26  and  C_27
REMARK   12  A    between atoms: C_31  and  O_32
REMARK   13  A    between atoms: O_32  and  C_33
REMARK                            x       y       z     vdW  Elec       q    Type
REMARK                         _______ _______ _______ _____ _____    ______ ____
ROOT
ATOM      1  C   UNL     1       2.740   7.267  18.629  0.00  0.00    +0.000 A 
ATOM      2  N   UNL     1       2.157   6.903  19.830  0.00  0.00    +0.000 NA
ATOM      3  C   UNL     1       1.520   7.985  20.151  0.00  0.00    +0.000 A 
ATOM      4  S   UNL     1       0.512   8.451  21.476  0.00  0.00    +0.000 S 
ATOM      5  C   UNL     1       0.309  10.022  20.704  0.00  0.00    +0.000 A 
ATOM      6  C   UNL     1       0.967  10.148  19.529  0.00  0.00    +0.000 A 
ATOM      7  N   UNL     1       1.666   8.979  19.220  0.00  0.00    +0.000 N 
ATOM      8  N   UNL     1       2.467   8.533  18.227  0.00  0.00    +0.000 NA
ENDROOT
BRANCH   1  12
ATOM      9  C   UNL     1       5.281   4.586  16.436  0.00  0.00    +0.000 A 
ATOM     10  C   UNL     1       4.020   4.161  16.897  0.00  0.00    +0.000 A 
ATOM     11  C   UNL     1       3.182   5.022  17.619  0.00  0.00    +0.000 A 
ATOM     12  C   UNL     1       3.601   6.319  17.916  0.00  0.00    +0.000 A 
ATOM     13  C   UNL     1       4.887   6.711  17.508  0.00  0.00    +0.000 A 
ATOM     14  C   UNL     1       5.739   5.858  16.782  0.00  0.00    +0.000 A 
BRANCH   9  16
ATOM     15  C   UNL     1       6.053   3.998  14.272  0.00  0.00    +0.000 C 
ATOM     16  O   UNL     1       6.069   3.760  15.678  0.00  0.00    +0.000 OA
ENDBRANCH   9  16
BRANCH  14  17
ATOM     17  O   UNL     1       6.940   6.450  16.495  0.00  0.00    +0.000 OA
ATOM     18  C   UNL     1       7.475   7.413  17.389  0.00  0.00    +0.000 C 
ENDBRANCH  14  17
ENDBRANCH   1  12
BRANCH   6  19
ATOM     19  C   UNL     1       0.906  11.377  18.671  0.00  0.00    +0.000 C 
BRANCH  19  20
ATOM     20  C   UNL     1       1.006  12.742  19.366  0.00  0.00    +0.000 C 
BRANCH  20  21
ATOM     21  N   UNL     1       2.247  12.790  20.178  0.00  0.00    +0.000 NA
ATOM     22  H   UNL     1       3.090  12.386  19.769  0.00  0.00    +0.000 HD
BRANCH  21  23
ATOM     23  S   UNL     1       2.644  14.288  20.877  0.00  0.00    +0.000 S 
ATOM     24  O   UNL     1       1.799  14.449  22.038  0.00  0.00    +0.000 OA
ATOM     25  O   UNL     1       4.083  14.276  21.025  0.00  0.00    +0.000 OA
BRANCH  23  26
ATOM     26  C   UNL     1       2.122  15.473  19.625  0.00  0.00    +0.000 A 
ATOM     27  C   UNL     1       2.918  15.690  18.472  0.00  0.00    +0.000 A 
ATOM     28  C   UNL     1       4.149  14.912  18.085  0.00  0.00    +0.000 C 
ATOM     29  C   UNL     1       2.543  16.704  17.565  0.00  0.00    +0.000 A 
ATOM     30  C   UNL     1       1.397  17.474  17.756  0.00  0.00    +0.000 A 
ATOM     31  C   UNL     1       0.999  18.535  16.773  0.00  0.00    +0.000 C 
ATOM     32  C   UNL     1       0.592  17.211  18.862  0.00  0.00    +0.000 A 
ATOM     33  C   UNL     1       0.921  16.208  19.794  0.00  0.00    +0.000 A 
ATOM     34  C   UNL     1      -0.065  15.978  20.909  0.00  0.00    +0.000 C 
ENDBRANCH  23  26
ENDBRANCH  21  23
ENDBRANCH  20  21
ENDBRANCH  19  20
ENDBRANCH   6  19
TORSDOF 8
ENDMDL
MODEL 8
REMARK VINA RESULT:      -7.7      3.414      4.971
REMARK  Name = 
REMARK  13 active torsions:
REMARK  status: ('A' for Active; 'I' for Inactive)
REMARK    1  A    between atoms: C_1  and  O_2
REMARK    2  A    between atoms: O_2  and  C_3
REMARK    3  A    between atoms: C_6  and  C_7
REMARK    4  A    between atoms: C_12  and  C_13
REMARK    5  A    between atoms: C_13  and  C_14
REMARK    6  A    between atoms: C_14  and  N_15
REMARK    7  A    between atoms: N_15  and  S_16
REMARK    8  A    between atoms: S_16  and  C_19
REMARK    9  A    between atoms: C_20  and  C_21
REMARK   10  A    between atoms: C_23  and  C_24
REMARK   11  A    between atoms: C_26  and  C_27
REMARK   12  A    between atoms: C_31  and  O_32
REMARK   13  A    between atoms: O_32  and  C_33
REMARK                            x       y       z     vdW  Elec       q    Type
REMARK                         _______ _______ _______ _____ _____    ______ ____
ROOT
ATOM      1  C   UNL     1       2.259   7.622  19.029  0.00  0.00    +0.000 A 
ATOM      2  N   UNL     1       1.850   7.314  20.314  0.00  0.00    +0.000 NA
ATOM      3  C   UNL     1       1.166   8.368  20.632  0.00  0.00    +0.000 A 
ATOM      4  S   UNL     1       0.281   8.865  22.031  0.00  0.00    +0.000 S 
ATOM      5  C   UNL     1      -0.138  10.348  21.179  0.00  0.00    +0.000 A 
ATOM      6  C   UNL     1       0.368  10.427  19.927  0.00  0.00    +0.000 A 
ATOM      7  N   UNL     1       1.122   9.291  19.621  0.00  0.00    +0.000 N 
ATOM      8  N   UNL     1       1.838   8.827  18.573  0.00  0.00    +0.000 NA
ENDROOT
BRANCH   1  12
ATOM      9  C   UNL     1       4.748   4.967  16.745  0.00  0.00    +0.000 A 
ATOM     10  C   UNL     1       3.579   4.492  17.370  0.00  0.00    +0.000 A 
ATOM     11  C   UNL     1       2.760   5.344  18.123  0.00  0.00    +0.000 A 
ATOM     12  C   UNL     1       3.109   6.685  18.288  0.00  0.00    +0.000 A 
ATOM     13  C   UNL     1       4.311   7.133  17.715  0.00  0.00    +0.000 A 
ATOM     14  C   UNL     1       5.143   6.290  16.955  0.00  0.00    +0.000 A 
BRANCH   9  16
ATOM     15  C   UNL     1       5.443   4.382  14.554  0.00  0.00    +0.000 C 
ATOM     16  O   UNL     1       5.511   4.144  15.958  0.00  0.00    +0.000 OA
ENDBRANCH   9  16
BRANCH  14  17
ATOM     17  O   UNL     1       6.259   6.940  16.498  0.00  0.00    +0.000 OA
ATOM     18  C   UNL     1       7.416   6.999  17.318  0.00  0.00    +0.000 C 
ENDBRANCH  14  17
ENDBRANCH   1  12
BRANCH   6  19
ATOM     19  C   UNL     1       0.107  11.574  18.997  0.00  0.00    +0.000 C 
BRANCH  19  20
ATOM     20  C   UNL     1       1.198  12.645  18.856  0.00  0.00    +0.000 C 
BRANCH  20  21
ATOM     21  N   UNL     1       1.879  12.825  20.163  0.00  0.00    +0.000 NA
ATOM     22  H   UNL     1       2.899  12.787  20.168  0.00  0.00    +0.000 HD
BRANCH  21  23
ATOM     23  S   UNL     1       1.378  14.147  21.107  0.00  0.00    +0.000 S 
ATOM     24  O   UNL     1       0.071  13.821  21.629  0.00  0.00    +0.000 OA
ATOM     25  O   UNL     1       2.473  14.409  22.016  0.00  0.00    +0.000 OA
BRANCH  23  26
ATOM     26  C   UNL     1       1.196  15.468  19.897  0.00  0.00    +0.000 A 
ATOM     27  C   UNL     1      -0.092  15.950  19.555  0.00  0.00    +0.000 A 
ATOM     28  C   UNL     1      -1.389  15.558  20.215  0.00  0.00    +0.000 C 
ATOM     29  C   UNL     1      -0.212  16.905  18.523  0.00  0.00    +0.000 A 
ATOM     30  C   UNL     1       0.903  17.408  17.854  0.00  0.00    +0.000 A 
ATOM     31  C   UNL     1       0.763  18.438  16.773  0.00  0.00    +0.000 C 
ATOM     32  C   UNL     1       2.168  16.969  18.240  0.00  0.00    +0.000 A 
ATOM     33  C   UNL     1       2.340  16.020  19.266  0.00  0.00    +0.000 A 
ATOM     34  C   UNL     1       3.760  15.679  19.633  0.00  0.00    +0.000 C 
ENDBRANCH  23  26
ENDBRANCH  21  23
ENDBRANCH  20  21
ENDBRANCH  19  20
ENDBRANCH   6  19
TORSDOF 8
ENDMDL
MODEL 9
REMARK VINA RESULT:      -7.7      2.003      2.673
REMARK  Name = 
REMARK  13 active torsions:
REMARK  status: ('A' for Active; 'I' for Inactive)
REMARK    1  A    between atoms: C_1  and  O_2
REMARK    2  A    between atoms: O_2  and  C_3
REMARK    3  A    between atoms: C_6  and  C_7
REMARK    4  A    between atoms: C_12  and  C_13
REMARK    5  A    between atoms: C_13  and  C_14
REMARK    6  A    between atoms: C_14  and  N_15
REMARK    7  A    between atoms: N_15  and  S_16
REMARK    8  A    between atoms: S_16  and  C_19
REMARK    9  A    between atoms: C_20  and  C_21
REMARK   10  A    between atoms: C_23  and  C_24
REMARK   11  A    between atoms: C_26  and  C_27
REMARK   12  A    between atoms: C_31  and  O_32
REMARK   13  A    between atoms: O_32  and  C_33
REMARK                            x       y       z     vdW  Elec       q    Type
REMARK                         _______ _______ _______ _____ _____    ______ ____
ROOT
ATOM      1  C   UNL     1       3.945   4.716  17.801  0.00  0.00    +0.000 A 
ATOM      2  N   UNL     1       3.212   3.545  17.879  0.00  0.00    +0.000 NA
ATOM      3  C   UNL     1       2.395   3.810  18.849  0.00  0.00    +0.000 A 
ATOM      4  S   UNL     1       1.119   2.946  19.632  0.00  0.00    +0.000 S 
ATOM      5  C   UNL     1       0.856   4.358  20.652  0.00  0.00    +0.000 A 
ATOM      6  C   UNL     1       1.689   5.391  20.390  0.00  0.00    +0.000 A 
ATOM      7  N   UNL     1       2.575   5.069  19.359  0.00  0.00    +0.000 N 
ATOM      8  N   UNL     1       3.588   5.669  18.696  0.00  0.00    +0.000 NA
ENDROOT
BRANCH   1  12
ATOM      9  C   UNL     1       7.100   5.204  14.926  0.00  0.00    +0.000 A 
ATOM     10  C   UNL     1       6.140   4.186  14.770  0.00  0.00    +0.000 A 
ATOM     11  C   UNL     1       5.109   4.010  15.702  0.00  0.00    +0.000 A 
ATOM     12  C   UNL     1       5.032   4.834  16.825  0.00  0.00    +0.000 A 
ATOM     13  C   UNL     1       6.033   5.804  17.005  0.00  0.00    +0.000 A 
ATOM     14  C   UNL     1       7.074   5.993  16.078  0.00  0.00    +0.000 A 
BRANCH   9  16
ATOM     15  C   UNL     1       7.694   5.141  12.631  0.00  0.00    +0.000 C 
ATOM     16  O   UNL     1       8.070   5.411  13.980  0.00  0.00    +0.000 OA
ENDBRANCH   9  16
BRANCH  14  17
ATOM     17  O   UNL     1       7.933   6.990  16.460  0.00  0.00    +0.000 OA
ATOM     18  C   UNL     1       7.684   7.701  17.663  0.00  0.00    +0.000 C 
ENDBRANCH  14  17
ENDBRANCH   1  12
BRANCH   6  19
ATOM     19  C   UNL     1       1.623   6.712  21.099  0.00  0.00    +0.000 C 
BRANCH  19  20
ATOM     20  C   UNL     1       0.544   7.709  20.655  0.00  0.00    +0.000 C 
BRANCH  20  21
ATOM     21  N   UNL     1       1.082   9.089  20.753  0.00  0.00    +0.000 NA
ATOM     22  H   UNL     1       1.943   9.294  20.245  0.00  0.00    +0.000 HD
BRANCH  21  23
ATOM     23  S   UNL     1      -0.019  10.357  20.492  0.00  0.00    +0.000 S 
ATOM     24  O   UNL     1      -0.949   9.908  19.481  0.00  0.00    +0.000 OA
ATOM     25  O   UNL     1      -0.502  10.726  21.805  0.00  0.00    +0.000 OA
BRANCH  23  26
ATOM     26  C   UNL     1       1.011  11.653  19.782  0.00  0.00    +0.000 A 
ATOM     27  C   UNL     1       1.027  12.947  20.359  0.00  0.00    +0.000 A 
ATOM     28  C   UNL     1       0.350  13.356  21.642  0.00  0.00    +0.000 C 
ATOM     29  C   UNL     1       1.755  13.972  19.716  0.00  0.00    +0.000 A 
ATOM     30  C   UNL     1       2.480  13.737  18.550  0.00  0.00    +0.000 A 
ATOM     31  C   UNL     1       3.266  14.830  17.888  0.00  0.00    +0.000 C 
ATOM     32  C   UNL     1       2.503  12.447  18.025  0.00  0.00    +0.000 A 
ATOM     33  C   UNL     1       1.796  11.390  18.631  0.00  0.00    +0.000 A 
ATOM     34  C   UNL     1       1.955  10.030  18.005  0.00  0.00    +0.000 C 
ENDBRANCH  23  26
ENDBRANCH  21  23
ENDBRANCH  20  21
ENDBRANCH  19  20
ENDBRANCH   6  19
TORSDOF 8
ENDMDL
