MODEL 1
REMARK VINA RESULT:      -7.0      0.000      0.000
REMARK  Name = 
REMARK  4 active torsions:
REMARK  status: ('A' for Active; 'I' for Inactive)
REMARK    1  A    between atoms: C_2  and  C_4
REMARK    2  A    between atoms: C_4  and  N_5
REMARK    3  A    between atoms: N_14  and  C_15
REMARK    4  A    between atoms: C_15  and  C_16
REMARK                            x       y       z     vdW  Elec       q    Type
REMARK                         _______ _______ _______ _____ _____    ______ ____
ROOT
ATOM      1  N   UNL     1       5.969   4.343  16.906  0.00  0.00    +0.000 N 
ATOM      2  C   UNL     1       4.855   4.248  17.834  0.00  0.00    +0.000 C 
ATOM      3  C   UNL     1       4.875   5.426  18.821  0.00  0.00    +0.000 C 
ATOM      4  C   UNL     1       6.211   5.315  19.585  0.00  0.00    +0.000 C 
ATOM      5  C   UNL     1       7.427   5.269  18.663  0.00  0.00    +0.000 C 
ATOM      6  C   UNL     1       7.261   4.488  17.368  0.00  0.00    +0.000 C 
ATOM      7  O   UNL     1       8.237   4.141  16.701  0.00  0.00    +0.000 OA
ATOM      8  C   UNL     1       4.781   6.780  18.073  0.00  0.00    +0.000 C 
ATOM      9  C   UNL     1       3.391   7.026  17.484  0.00  0.00    +0.000 C 
ATOM     10  N   UNL     1       2.312   6.951  18.479  0.00  0.00    +0.000 NA
ATOM     11  C   UNL     1       2.339   5.649  19.163  0.00  0.00    +0.000 C 
ATOM     12  C   UNL     1       3.691   5.315  19.811  0.00  0.00    +0.000 C 
ENDROOT
BRANCH   1  13
ATOM     13  C   UNL     1       5.710   4.125  15.485  0.00  0.00    +0.000 C 
BRANCH  13  15
ATOM     14  N   UNL     1       7.157   5.167  13.823  0.00  0.00    +0.000 N 
ATOM     15  C   UNL     1       6.036   5.310  14.585  0.00  0.00    +0.000 C 
ATOM     16  O   UNL     1       5.405   6.361  14.605  0.00  0.00    +0.000 OA
ATOM     17  H   UNL     1       7.484   5.947  13.273  0.00  0.00    +0.000 HD
ATOM     18  H   UNL     1       7.711   4.312  13.868  0.00  0.00    +0.000 HD
ENDBRANCH  13  15
ENDBRANCH   1  13
BRANCH  10  19
ATOM     19  C   UNL     1       2.320   8.069  19.444  0.00  0.00    +0.000 C 
BRANCH  19  20
ATOM     20  C   UNL     1       1.110   8.976  19.332  0.00  0.00    +0.000 A 
ATOM     21  C   UNL     1       0.643   9.319  18.047  0.00  0.00    +0.000 A 
ATOM     22  C   UNL     1      -0.440  10.182  17.886  0.00  0.00    +0.000 A 
ATOM     23  C   UNL     1      -1.067  10.706  19.006  0.00  0.00    +0.000 A 
ATOM     24  F   UNL     1      -2.100  11.546  18.853  0.00  0.00    +0.000 F 
ATOM     25  C   UNL     1      -0.643  10.373  20.285  0.00  0.00    +0.000 A 
ATOM     26  C   UNL     1       0.434   9.503  20.450  0.00  0.00    +0.000 A 
ATOM     27 CL   UNL     1       0.889   9.126  22.076  0.00  0.00    +0.000 Cl
ENDBRANCH  19  20
ENDBRANCH  10  19
TORSDOF 4
ENDMDL
MODEL 2
REMARK VINA RESULT:      -6.8      2.641      3.854
REMARK  Name = 
REMARK  4 active torsions:
REMARK  status: ('A' for Active; 'I' for Inactive)
REMARK    1  A    between atoms: C_2  and  C_4
REMARK    2  A    between atoms: C_4  and  N_5
REMARK    3  A    between atoms: N_14  and  C_15
REMARK    4  A    between atoms: C_15  and  C_16
REMARK                            x       y       z     vdW  Elec       q    Type
REMARK                         _______ _______ _______ _____ _____    ______ ____
ROOT
ATOM      1  N   UNL     1       4.087   3.953  18.662  0.00  0.00    +0.000 N 
ATOM      2  C   UNL     1       3.694   5.299  18.279  0.00  0.00    +0.000 C 
ATOM      3  C   UNL     1       2.178   5.484  18.444  0.00  0.00    +0.000 C 
ATOM      4  C   UNL     1       1.521   4.454  17.500  0.00  0.00    +0.000 C 
ATOM      5  C   UNL     1       1.994   3.024  17.753  0.00  0.00    +0.000 C 
ATOM      6  C   UNL     1       3.463   2.853  18.110  0.00  0.00    +0.000 C 
ATOM      7  O   UNL     1       4.012   1.752  18.047  0.00  0.00    +0.000 OA
ATOM      8  C   UNL     1       1.743   5.240  19.911  0.00  0.00    +0.000 C 
ATOM      9  C   UNL     1       2.192   6.364  20.847  0.00  0.00    +0.000 C 
ATOM     10  N   UNL     1       1.734   7.695  20.426  0.00  0.00    +0.000 NA
ATOM     11  C   UNL     1       2.185   7.979  19.055  0.00  0.00    +0.000 C 
ATOM     12  C   UNL     1       1.765   6.916  18.029  0.00  0.00    +0.000 C 
ENDROOT
BRANCH   1  13
ATOM     13  C   UNL     1       5.257   3.788  19.521  0.00  0.00    +0.000 C 
BRANCH  13  15
ATOM     14  N   UNL     1       7.029   4.264  17.916  0.00  0.00    +0.000 N 
ATOM     15  C   UNL     1       6.472   4.610  19.112  0.00  0.00    +0.000 C 
ATOM     16  O   UNL     1       6.985   5.457  19.835  0.00  0.00    +0.000 OA
ATOM     17  H   UNL     1       7.889   4.704  17.625  0.00  0.00    +0.000 HD
ATOM     18  H   UNL     1       6.631   3.510  17.356  0.00  0.00    +0.000 HD
ENDBRANCH  13  15
ENDBRANCH   1  13
BRANCH  10  19
ATOM     19  C   UNL     1       0.277   7.890  20.565  0.00  0.00    +0.000 C 
BRANCH  19  20
ATOM     20  C   UNL     1      -0.098   9.184  21.260  0.00  0.00    +0.000 A 
ATOM     21  C   UNL     1      -0.258   9.175  22.661  0.00  0.00    +0.000 A 
ATOM     22  C   UNL     1      -0.641  10.327  23.346  0.00  0.00    +0.000 A 
ATOM     23  C   UNL     1      -0.865  11.498  22.638  0.00  0.00    +0.000 A 
ATOM     24  F   UNL     1      -1.248  12.603  23.293  0.00  0.00    +0.000 F 
ATOM     25  C   UNL     1      -0.700  11.544  21.260  0.00  0.00    +0.000 A 
ATOM     26  C   UNL     1      -0.307  10.397  20.573  0.00  0.00    +0.000 A 
ATOM     27 CL   UNL     1      -0.107  10.544  18.862  0.00  0.00    +0.000 Cl
ENDBRANCH  19  20
ENDBRANCH  10  19
TORSDOF 4
ENDMDL
MODEL 3
REMARK VINA RESULT:      -6.7      1.027      1.060
REMARK  Name = 
REMARK  4 active torsions:
REMARK  status: ('A' for Active; 'I' for Inactive)
REMARK    1  A    between atoms: C_2  and  C_4
REMARK    2  A    between atoms: C_4  and  N_5
REMARK    3  A    between atoms: N_14  and  C_15
REMARK    4  A    between atoms: C_15  and  C_16
REMARK                            x       y       z     vdW  Elec       q    Type
REMARK                         _______ _______ _______ _____ _____    ______ ____
ROOT
ATOM      1  N   UNL     1       5.762   5.051  16.344  0.00  0.00    +0.000 N 
ATOM      2  C   UNL     1       4.445   4.792  16.902  0.00  0.00    +0.000 C 
ATOM      3  C   UNL     1       4.331   5.398  18.310  0.00  0.00    +0.000 C 
ATOM      4  C   UNL     1       5.412   4.698  19.161  0.00  0.00    +0.000 C 
ATOM      5  C   UNL     1       6.811   4.808  18.560  0.00  0.00    +0.000 C 
ATOM      6  C   UNL     1       6.903   4.715  17.044  0.00  0.00    +0.000 C 
ATOM      7  O   UNL     1       7.977   4.500  16.481  0.00  0.00    +0.000 OA
ATOM      8  C   UNL     1       4.563   6.929  18.279  0.00  0.00    +0.000 C 
ATOM      9  C   UNL     1       3.399   7.683  17.633  0.00  0.00    +0.000 C 
ATOM     10  N   UNL     1       2.101   7.408  18.265  0.00  0.00    +0.000 NA
ATOM     11  C   UNL     1       1.826   5.963  18.254  0.00  0.00    +0.000 C 
ATOM     12  C   UNL     1       2.930   5.114  18.902  0.00  0.00    +0.000 C 
ENDROOT
BRANCH   1  13
ATOM     13  C   UNL     1       5.851   5.525  14.965  0.00  0.00    +0.000 C 
BRANCH  13  15
ATOM     14  N   UNL     1       7.840   5.254  13.581  0.00  0.00    +0.000 N 
ATOM     15  C   UNL     1       6.703   4.661  14.045  0.00  0.00    +0.000 C 
ATOM     16  O   UNL     1       6.360   3.548  13.661  0.00  0.00    +0.000 OA
ATOM     17  H   UNL     1       8.404   4.775  12.896  0.00  0.00    +0.000 HD
ATOM     18  H   UNL     1       8.077   6.208  13.856  0.00  0.00    +0.000 HD
ENDBRANCH  13  15
ENDBRANCH   1  13
BRANCH  10  19
ATOM     19  C   UNL     1       1.974   7.971  19.624  0.00  0.00    +0.000 C 
BRANCH  19  20
ATOM     20  C   UNL     1       1.015   9.142  19.708  0.00  0.00    +0.000 A 
ATOM     21  C   UNL     1       0.532   9.704  18.509  0.00  0.00    +0.000 A 
ATOM     22  C   UNL     1      -0.320  10.807  18.528  0.00  0.00    +0.000 A 
ATOM     23  C   UNL     1      -0.700  11.355  19.743  0.00  0.00    +0.000 A 
ATOM     24  F   UNL     1      -1.508  12.424  19.763  0.00  0.00    +0.000 F 
ATOM     25  C   UNL     1      -0.256  10.813  20.943  0.00  0.00    +0.000 A 
ATOM     26  C   UNL     1       0.589   9.705  20.928  0.00  0.00    +0.000 A 
ATOM     27 CL   UNL     1       1.082   9.081  22.464  0.00  0.00    +0.000 Cl
ENDBRANCH  19  20
ENDBRANCH  10  19
TORSDOF 4
ENDMDL
MODEL 4
REMARK VINA RESULT:      -6.5      3.163      4.452
REMARK  Name = 
REMARK  4 active torsions:
REMARK  status: ('A' for Active; 'I' for Inactive)
REMARK    1  A    between atoms: C_2  and  C_4
REMARK    2  A    between atoms: C_4  and  N_5
REMARK    3  A    between atoms: N_14  and  C_15
REMARK    4  A    between atoms: C_15  and  C_16
REMARK                            x       y       z     vdW  Elec       q    Type
REMARK                         _______ _______ _______ _____ _____    ______ ____
ROOT
ATOM      1  N   UNL     1       3.911   3.577  18.753  0.00  0.00    +0.000 N 
ATOM      2  C   UNL     1       3.655   4.981  18.478  0.00  0.00    +0.000 C 
ATOM      3  C   UNL     1       2.146   5.271  18.530  0.00  0.00    +0.000 C 
ATOM      4  C   UNL     1       1.509   4.393  17.432  0.00  0.00    +0.000 C 
ATOM      5  C   UNL     1       1.852   2.912  17.575  0.00  0.00    +0.000 C 
ATOM      6  C   UNL     1       3.265   2.589  18.038  0.00  0.00    +0.000 C 
ATOM      7  O   UNL     1       3.737   1.459  17.910  0.00  0.00    +0.000 OA
ATOM      8  C   UNL     1       1.559   4.923  19.921  0.00  0.00    +0.000 C 
ATOM      9  C   UNL     1       1.997   5.911  21.003  0.00  0.00    +0.000 C 
ATOM     10  N   UNL     1       1.678   7.310  20.683  0.00  0.00    +0.000 NA
ATOM     11  C   UNL     1       2.275   7.686  19.393  0.00  0.00    +0.000 C 
ATOM     12  C   UNL     1       1.878   6.765  18.230  0.00  0.00    +0.000 C 
ENDROOT
BRANCH   1  13
ATOM     13  C   UNL     1       4.981   3.236  19.688  0.00  0.00    +0.000 C 
BRANCH  13  15
ATOM     14  N   UNL     1       5.394   1.016  20.605  0.00  0.00    +0.000 N 
ATOM     15  C   UNL     1       4.631   2.143  20.689  0.00  0.00    +0.000 C 
ATOM     16  O   UNL     1       3.676   2.214  21.455  0.00  0.00    +0.000 OA
ATOM     17  H   UNL     1       5.159   0.216  21.175  0.00  0.00    +0.000 HD
ATOM     18  H   UNL     1       6.142   0.944  19.916  0.00  0.00    +0.000 HD
ENDBRANCH  13  15
ENDBRANCH   1  13
BRANCH  10  19
ATOM     19  C   UNL     1       0.231   7.607  20.715  0.00  0.00    +0.000 C 
BRANCH  19  20
ATOM     20  C   UNL     1      -0.095   8.966  21.304  0.00  0.00    +0.000 A 
ATOM     21  C   UNL     1      -0.209   9.084  22.704  0.00  0.00    +0.000 A 
ATOM     22  C   UNL     1      -0.547  10.300  23.295  0.00  0.00    +0.000 A 
ATOM     23  C   UNL     1      -0.771  11.409  22.493  0.00  0.00    +0.000 A 
ATOM     24  F   UNL     1      -1.110  12.575  23.058  0.00  0.00    +0.000 F 
ATOM     25  C   UNL     1      -0.649  11.330  21.112  0.00  0.00    +0.000 A 
ATOM     26  C   UNL     1      -0.302  10.117  20.518  0.00  0.00    +0.000 A 
ATOM     27 CL   UNL     1      -0.154  10.108  18.795  0.00  0.00    +0.000 Cl
ENDBRANCH  19  20
ENDBRANCH  10  19
TORSDOF 4
ENDMDL
MODEL 5
REMARK VINA RESULT:      -6.5      2.495      3.648
REMARK  Name = 
REMARK  4 active torsions:
REMARK  status: ('A' for Active; 'I' for Inactive)
REMARK    1  A    between atoms: C_2  and  C_4
REMARK    2  A    between atoms: C_4  and  N_5
REMARK    3  A    between atoms: N_14  and  C_15
REMARK    4  A    between atoms: C_15  and  C_16
REMARK                            x       y       z     vdW  Elec       q    Type
REMARK                         _______ _______ _______ _____ _____    ______ ____
ROOT
ATOM      1  N   UNL     1       4.644   5.099  18.754  0.00  0.00    +0.000 N 
ATOM      2  C   UNL     1       3.962   6.165  18.039  0.00  0.00    +0.000 C 
ATOM      3  C   UNL     1       2.455   6.134  18.339  0.00  0.00    +0.000 C 
ATOM      4  C   UNL     1       1.953   4.761  17.844  0.00  0.00    +0.000 C 
ATOM      5  C   UNL     1       2.721   3.589  18.451  0.00  0.00    +0.000 C 
ATOM      6  C   UNL     1       4.216   3.791  18.646  0.00  0.00    +0.000 C 
ATOM      7  O   UNL     1       4.970   2.838  18.846  0.00  0.00    +0.000 OA
ATOM      8  C   UNL     1       2.185   6.304  19.855  0.00  0.00    +0.000 C 
ATOM      9  C   UNL     1       2.464   7.727  20.342  0.00  0.00    +0.000 C 
ATOM     10  N   UNL     1       1.719   8.756  19.604  0.00  0.00    +0.000 NA
ATOM     11  C   UNL     1       2.004   8.657  18.164  0.00  0.00    +0.000 C 
ATOM     12  C   UNL     1       1.733   7.266  17.570  0.00  0.00    +0.000 C 
ENDROOT
BRANCH   1  13
ATOM     13  C   UNL     1       5.882   5.418  19.461  0.00  0.00    +0.000 C 
BRANCH  13  15
ATOM     14  N   UNL     1       7.629   4.370  18.121  0.00  0.00    +0.000 N 
ATOM     15  C   UNL     1       7.111   5.549  18.570  0.00  0.00    +0.000 C 
ATOM     16  O   UNL     1       7.666   6.619  18.344  0.00  0.00    +0.000 OA
ATOM     17  H   UNL     1       8.495   4.375  17.603  0.00  0.00    +0.000 HD
ATOM     18  H   UNL     1       7.196   3.482  18.375  0.00  0.00    +0.000 HD
ENDBRANCH  13  15
ENDBRANCH   1  13
BRANCH  10  19
ATOM     19  C   UNL     1       0.266   8.736  19.869  0.00  0.00    +0.000 C 
BRANCH  19  20
ATOM     20  C   UNL     1      -0.185   9.796  20.855  0.00  0.00    +0.000 A 
ATOM     21  C   UNL     1      -0.380   9.424  22.200  0.00  0.00    +0.000 A 
ATOM     22  C   UNL     1      -0.832  10.349  23.141  0.00  0.00    +0.000 A 
ATOM     23  C   UNL     1      -1.091  11.652  22.745  0.00  0.00    +0.000 A 
ATOM     24  F   UNL     1      -1.539  12.539  23.644  0.00  0.00    +0.000 F 
ATOM     25  C   UNL     1      -0.892  12.054  21.431  0.00  0.00    +0.000 A 
ATOM     26  C   UNL     1      -0.431  11.135  20.490  0.00  0.00    +0.000 A 
ATOM     27 CL   UNL     1      -0.193  11.720  18.881  0.00  0.00    +0.000 Cl
ENDBRANCH  19  20
ENDBRANCH  10  19
TORSDOF 4
ENDMDL
MODEL 6
REMARK VINA RESULT:      -6.4      4.825      8.070
REMARK  Name = 
REMARK  4 active torsions:
REMARK  status: ('A' for Active; 'I' for Inactive)
REMARK    1  A    between atoms: C_2  and  C_4
REMARK    2  A    between atoms: C_4  and  N_5
REMARK    3  A    between atoms: N_14  and  C_15
REMARK    4  A    between atoms: C_15  and  C_16
REMARK                            x       y       z     vdW  Elec       q    Type
REMARK                         _______ _______ _______ _____ _____    ______ ____
ROOT
ATOM      1  N   UNL     1       0.927  12.224  19.776  0.00  0.00    +0.000 N 
ATOM      2  C   UNL     1       1.039  10.926  20.420  0.00  0.00    +0.000 C 
ATOM      3  C   UNL     1       0.359   9.843  19.568  0.00  0.00    +0.000 C 
ATOM      4  C   UNL     1      -1.125  10.255  19.466  0.00  0.00    +0.000 C 
ATOM      5  C   UNL     1      -1.318  11.670  18.925  0.00  0.00    +0.000 C 
ATOM      6  C   UNL     1      -0.302  12.709  19.376  0.00  0.00    +0.000 C 
ATOM      7  O   UNL     1      -0.519  13.914  19.246  0.00  0.00    +0.000 OA
ATOM      8  C   UNL     1       1.002   9.755  18.161  0.00  0.00    +0.000 C 
ATOM      9  C   UNL     1       2.403   9.141  18.197  0.00  0.00    +0.000 C 
ATOM     10  N   UNL     1       2.444   7.814  18.828  0.00  0.00    +0.000 NA
ATOM     11  C   UNL     1       1.894   7.880  20.191  0.00  0.00    +0.000 C 
ATOM     12  C   UNL     1       0.475   8.465  20.261  0.00  0.00    +0.000 C 
ENDROOT
BRANCH   1  13
ATOM     13  C   UNL     1       2.116  13.070  19.705  0.00  0.00    +0.000 C 
BRANCH  13  15
ATOM     14  N   UNL     1       2.646  12.552  17.383  0.00  0.00    +0.000 N 
ATOM     15  C   UNL     1       2.481  13.543  18.304  0.00  0.00    +0.000 C 
ATOM     16  O   UNL     1       2.710  14.717  18.030  0.00  0.00    +0.000 OA
ATOM     17  H   UNL     1       2.977  12.786  16.459  0.00  0.00    +0.000 HD
ATOM     18  H   UNL     1       2.519  11.574  17.643  0.00  0.00    +0.000 HD
ENDBRANCH  13  15
ENDBRANCH   1  13
BRANCH  10  19
ATOM     19  C   UNL     1       1.785   6.760  18.030  0.00  0.00    +0.000 C 
BRANCH  19  20
ATOM     20  C   UNL     1       2.411   5.390  18.201  0.00  0.00    +0.000 A 
ATOM     21  C   UNL     1       1.704   4.412  18.929  0.00  0.00    +0.000 A 
ATOM     22  C   UNL     1       2.251   3.149  19.151  0.00  0.00    +0.000 A 
ATOM     23  C   UNL     1       3.506   2.851  18.644  0.00  0.00    +0.000 A 
ATOM     24  F   UNL     1       4.040   1.643  18.867  0.00  0.00    +0.000 F 
ATOM     25  C   UNL     1       4.221   3.787  17.906  0.00  0.00    +0.000 A 
ATOM     26  C   UNL     1       3.673   5.047  17.675  0.00  0.00    +0.000 A 
ATOM     27 CL   UNL     1       4.619   6.147  16.733  0.00  0.00    +0.000 Cl
ENDBRANCH  19  20
ENDBRANCH  10  19
TORSDOF 4
ENDMDL
MODEL 7
REMARK VINA RESULT:      -6.4      2.407      3.496
REMARK  Name = 
REMARK  4 active torsions:
REMARK  status: ('A' for Active; 'I' for Inactive)
REMARK    1  A    between atoms: C_2  and  C_4
REMARK    2  A    between atoms: C_4  and  N_5
REMARK    3  A    between atoms: N_14  and  C_15
REMARK    4  A    between atoms: C_15  and  C_16
REMARK                            x       y       z     vdW  Elec       q    Type
REMARK                         _______ _______ _______ _____ _____    ______ ____
ROOT
ATOM      1  N   UNL     1       3.993   3.986  18.714  0.00  0.00    +0.000 N 
ATOM      2  C   UNL     1       3.626   5.333  18.310  0.00  0.00    +0.000 C 
ATOM      3  C   UNL     1       2.118   5.560  18.503  0.00  0.00    +0.000 C 
ATOM      4  C   UNL     1       1.415   4.526  17.597  0.00  0.00    +0.000 C 
ATOM      5  C   UNL     1       1.858   3.091  17.871  0.00  0.00    +0.000 C 
ATOM      6  C   UNL     1       3.330   2.890  18.200  0.00  0.00    +0.000 C 
ATOM      7  O   UNL     1       3.850   1.775  18.150  0.00  0.00    +0.000 OA
ATOM      8  C   UNL     1       1.710   5.359  19.984  0.00  0.00    +0.000 C 
ATOM      9  C   UNL     1       2.207   6.491  20.885  0.00  0.00    +0.000 C 
ATOM     10  N   UNL     1       1.773   7.824  20.444  0.00  0.00    +0.000 NA
ATOM     11  C   UNL     1       2.201   8.066  19.058  0.00  0.00    +0.000 C 
ATOM     12  C   UNL     1       1.732   6.992  18.065  0.00  0.00    +0.000 C 
ENDROOT
BRANCH   1  13
ATOM     13  C   UNL     1       5.178   3.810  19.550  0.00  0.00    +0.000 C 
BRANCH  13  15
ATOM     14  N   UNL     1       6.942   4.229  17.921  0.00  0.00    +0.000 N 
ATOM     15  C   UNL     1       6.396   4.611  19.110  0.00  0.00    +0.000 C 
ATOM     16  O   UNL     1       6.921   5.474  19.807  0.00  0.00    +0.000 OA
ATOM     17  H   UNL     1       7.803   4.653  17.612  0.00  0.00    +0.000 HD
ATOM     18  H   UNL     1       6.534   3.463  17.385  0.00  0.00    +0.000 HD
ENDBRANCH  13  15
ENDBRANCH   1  13
BRANCH  10  19
ATOM     19  C   UNL     1       0.324   8.058  20.611  0.00  0.00    +0.000 C 
BRANCH  19  20
ATOM     20  C   UNL     1      -0.044   9.524  20.726  0.00  0.00    +0.000 A 
ATOM     21  C   UNL     1      -0.313  10.246  19.545  0.00  0.00    +0.000 A 
ATOM     22  C   UNL     1      -0.616  11.606  19.590  0.00  0.00    +0.000 A 
ATOM     23  C   UNL     1      -0.656  12.255  20.815  0.00  0.00    +0.000 A 
ATOM     24  F   UNL     1      -0.933  13.565  20.860  0.00  0.00    +0.000 F 
ATOM     25  C   UNL     1      -0.414  11.569  21.997  0.00  0.00    +0.000 A 
ATOM     26  C   UNL     1      -0.119  10.207  21.957  0.00  0.00    +0.000 A 
ATOM     27 CL   UNL     1       0.153   9.423  23.474  0.00  0.00    +0.000 Cl
ENDBRANCH  19  20
ENDBRANCH  10  19
TORSDOF 4
ENDMDL
MODEL 8
REMARK VINA RESULT:      -6.4      4.862      8.366
REMARK  Name = 
REMARK  4 active torsions:
REMARK  status: ('A' for Active; 'I' for Inactive)
REMARK    1  A    between atoms: C_2  and  C_4
REMARK    2  A    between atoms: C_4  and  N_5
REMARK    3  A    between atoms: N_14  and  C_15
REMARK    4  A    between atoms: C_15  and  C_16
REMARK                            x       y       z     vdW  Elec       q    Type
REMARK                         _______ _______ _______ _____ _____    ______ ____
ROOT
ATOM      1  N   UNL     1       0.984  12.327  19.304  0.00  0.00    +0.000 N 
ATOM      2  C   UNL     1       1.022  11.104  20.088  0.00  0.00    +0.000 C 
ATOM      3  C   UNL     1       0.363   9.950  19.315  0.00  0.00    +0.000 C 
ATOM      4  C   UNL     1      -1.100  10.381  19.078  0.00  0.00    +0.000 C 
ATOM      5  C   UNL     1      -1.220  11.733  18.378  0.00  0.00    +0.000 C 
ATOM      6  C   UNL     1      -0.204  12.792  18.779  0.00  0.00    +0.000 C 
ATOM      7  O   UNL     1      -0.379  13.980  18.509  0.00  0.00    +0.000 OA
ATOM      8  C   UNL     1       1.086   9.697  17.968  0.00  0.00    +0.000 C 
ATOM      9  C   UNL     1       2.465   9.061  18.156  0.00  0.00    +0.000 C 
ATOM     10  N   UNL     1       2.432   7.809  18.926  0.00  0.00    +0.000 NA
ATOM     11  C   UNL     1       1.803   8.033  20.237  0.00  0.00    +0.000 C 
ATOM     12  C   UNL     1       0.400   8.653  20.157  0.00  0.00    +0.000 C 
ENDROOT
BRANCH   1  13
ATOM     13  C   UNL     1       2.199  13.134  19.217  0.00  0.00    +0.000 C 
BRANCH  13  15
ATOM     14  N   UNL     1       1.935  15.233  20.429  0.00  0.00    +0.000 N 
ATOM     15  C   UNL     1       2.489  13.987  20.445  0.00  0.00    +0.000 C 
ATOM     16  O   UNL     1       3.243  13.634  21.346  0.00  0.00    +0.000 OA
ATOM     17  H   UNL     1       2.161  15.884  21.166  0.00  0.00    +0.000 HD
ATOM     18  H   UNL     1       1.366  15.538  19.640  0.00  0.00    +0.000 HD
ENDBRANCH  13  15
ENDBRANCH   1  13
BRANCH  10  19
ATOM     19  C   UNL     1       1.792   6.690  18.205  0.00  0.00    +0.000 C 
BRANCH  19  20
ATOM     20  C   UNL     1       2.459   5.350  18.451  0.00  0.00    +0.000 A 
ATOM     21  C   UNL     1       1.823   4.429  19.308  0.00  0.00    +0.000 A 
ATOM     22  C   UNL     1       2.412   3.199  19.600  0.00  0.00    +0.000 A 
ATOM     23  C   UNL     1       3.638   2.879  19.037  0.00  0.00    +0.000 A 
ATOM     24  F   UNL     1       4.212   1.704  19.328  0.00  0.00    +0.000 F 
ATOM     25  C   UNL     1       4.281   3.758  18.175  0.00  0.00    +0.000 A 
ATOM     26  C   UNL     1       3.691   4.984  17.873  0.00  0.00    +0.000 A 
ATOM     27 CL   UNL     1       4.547   6.012  16.778  0.00  0.00    +0.000 Cl
ENDBRANCH  19  20
ENDBRANCH  10  19
TORSDOF 4
ENDMDL
MODEL 9
REMARK VINA RESULT:      -6.4      4.754      8.218
REMARK  Name = 
REMARK  4 active torsions:
REMARK  status: ('A' for Active; 'I' for Inactive)
REMARK    1  A    between atoms: C_2  and  C_4
REMARK    2  A    between atoms: C_4  and  N_5
REMARK    3  A    between atoms: N_14  and  C_15
REMARK    4  A    between atoms: C_15  and  C_16
REMARK                            x       y       z     vdW  Elec       q    Type
REMARK                         _______ _______ _______ _____ _____    ______ ____
ROOT
ATOM      1  N   UNL     1       1.072  12.210  19.271  0.00  0.00    +0.000 N 
ATOM      2  C   UNL     1       1.106  10.995  20.066  0.00  0.00    +0.000 C 
ATOM      3  C   UNL     1       0.409   9.846  19.321  0.00  0.00    +0.000 C 
ATOM      4  C   UNL     1      -1.051  10.300  19.113  0.00  0.00    +0.000 C 
ATOM      5  C   UNL     1      -1.164  11.647  18.403  0.00  0.00    +0.000 C 
ATOM      6  C   UNL     1      -0.120  12.692  18.769  0.00  0.00    +0.000 C 
ATOM      7  O   UNL     1      -0.280  13.881  18.490  0.00  0.00    +0.000 OA
ATOM      8  C   UNL     1       1.096   9.566  17.961  0.00  0.00    +0.000 C 
ATOM      9  C   UNL     1       2.466   8.907  18.123  0.00  0.00    +0.000 C 
ATOM     10  N   UNL     1       2.429   7.664  18.906  0.00  0.00    +0.000 NA
ATOM     11  C   UNL     1       1.835   7.912  20.229  0.00  0.00    +0.000 C 
ATOM     12  C   UNL     1       0.442   8.556  20.175  0.00  0.00    +0.000 C 
ENDROOT
BRANCH   1  13
ATOM     13  C   UNL     1       2.298  12.995  19.148  0.00  0.00    +0.000 C 
BRANCH  13  15
ATOM     14  N   UNL     1       2.130  15.175  20.226  0.00  0.00    +0.000 N 
ATOM     15  C   UNL     1       2.601  13.900  20.335  0.00  0.00    +0.000 C 
ATOM     16  O   UNL     1       3.299  13.554  21.282  0.00  0.00    +0.000 OA
ATOM     17  H   UNL     1       2.373  15.853  20.932  0.00  0.00    +0.000 HD
ATOM     18  H   UNL     1       1.610  15.468  19.399  0.00  0.00    +0.000 HD
ENDBRANCH  13  15
ENDBRANCH   1  13
BRANCH  10  19
ATOM     19  C   UNL     1       1.752   6.549  18.212  0.00  0.00    +0.000 C 
BRANCH  19  20
ATOM     20  C   UNL     1       2.448   5.213  18.389  0.00  0.00    +0.000 A 
ATOM     21  C   UNL     1       3.520   4.894  17.531  0.00  0.00    +0.000 A 
ATOM     22  C   UNL     1       4.168   3.663  17.624  0.00  0.00    +0.000 A 
ATOM     23  C   UNL     1       3.754   2.744  18.575  0.00  0.00    +0.000 A 
ATOM     24  F   UNL     1       4.366   1.555  18.656  0.00  0.00    +0.000 F 
ATOM     25  C   UNL     1       2.713   3.035  19.447  0.00  0.00    +0.000 A 
ATOM     26  C   UNL     1       2.068   4.268  19.363  0.00  0.00    +0.000 A 
ATOM     27 CL   UNL     1       0.794   4.559  20.496  0.00  0.00    +0.000 Cl
ENDBRANCH  19  20
ENDBRANCH  10  19
TORSDOF 4
ENDMDL
