MODEL 1
REMARK VINA RESULT:      -8.2      0.000      0.000
REMARK  Name = 
REMARK  3 active torsions:
REMARK  status: ('A' for Active; 'I' for Inactive)
REMARK    1  A    between atoms: C_1  and  C_2
REMARK    2  A    between atoms: C_3  and  S_4
REMARK    3  A    between atoms: S_4  and  C_5
REMARK                            x       y       z     vdW  Elec       q    Type
REMARK                         _______ _______ _______ _____ _____    ______ ____
ROOT
ATOM      1  C   UNL     1       5.524   3.279  19.267  0.00  0.00    +0.000 C 
ATOM      2  C   UNL     1       5.549   4.366  18.257  0.00  0.00    +0.000 A 
ATOM      3  C   UNL     1       4.693   4.567  17.178  0.00  0.00    +0.000 A 
ATOM      4  O   UNL     1       5.091   5.674  16.479  0.00  0.00    +0.000 OA
ATOM      5  C   UNL     1       6.153   6.226  17.130  0.00  0.00    +0.000 A 
ATOM      6  N   UNL     1       6.759   7.348  16.723  0.00  0.00    +0.000 NA
ATOM      7  C   UNL     1       7.711   7.734  17.562  0.00  0.00    +0.000 A 
ATOM      8  N   UNL     1       8.404   8.898  17.271  0.00  0.00    +0.000 N 
ATOM      9  N   UNL     1       8.109   7.100  18.676  0.00  0.00    +0.000 NA
ATOM     10  C   UNL     1       7.491   5.966  19.047  0.00  0.00    +0.000 A 
ATOM     11  N   UNL     1       7.913   5.383  20.236  0.00  0.00    +0.000 N 
ATOM     12  C   UNL     1       6.454   5.476  18.251  0.00  0.00    +0.000 A 
ATOM     13  H   UNL     1       8.410   9.066  16.275  0.00  0.00    +0.000 HD
ATOM     14  H   UNL     1       9.296   8.896  17.748  0.00  0.00    +0.000 HD
ATOM     15  H   UNL     1       8.483   6.043  20.756  0.00  0.00    +0.000 HD
ATOM     16  H   UNL     1       7.180   4.936  20.769  0.00  0.00    +0.000 HD
ENDROOT
BRANCH   3  17
ATOM     17  S   UNL     1       3.216   3.715  16.738  0.00  0.00    +0.000 S 
BRANCH  17  18
ATOM     18  C   UNL     1       2.298   3.878  18.276  0.00  0.00    +0.000 A 
ATOM     19  C   UNL     1       1.816   2.703  18.873  0.00  0.00    +0.000 A 
ATOM     20  C   UNL     1       1.170   2.751  20.105  0.00  0.00    +0.000 A 
ATOM     21  C   UNL     1       1.054   3.964  20.777  0.00  0.00    +0.000 A 
ATOM     22  C   UNL     1       1.523   5.154  20.203  0.00  0.00    +0.000 A 
ATOM     23  C   UNL     1       1.459   6.358  20.926  0.00  0.00    +0.000 A 
ATOM     24  C   UNL     1       1.865   7.562  20.356  0.00  0.00    +0.000 A 
ATOM     25  C   UNL     1       2.279   7.589  19.031  0.00  0.00    +0.000 A 
ATOM     26  C   UNL     1       2.380   6.395  18.312  0.00  0.00    +0.000 A 
ATOM     27  C   UNL     1       2.076   5.141  18.899  0.00  0.00    +0.000 A 
ENDBRANCH  17  18
ENDBRANCH   3  17
TORSDOF 2
ENDMDL
MODEL 2
REMARK VINA RESULT:      -7.7      3.822      5.474
REMARK  Name = 
REMARK  3 active torsions:
REMARK  status: ('A' for Active; 'I' for Inactive)
REMARK    1  A    between atoms: C_1  and  C_2
REMARK    2  A    between atoms: C_3  and  S_4
REMARK    3  A    between atoms: S_4  and  C_5
REMARK                            x       y       z     vdW  Elec       q    Type
REMARK                         _______ _______ _______ _____ _____    ______ ____
ROOT
ATOM      1  C   UNL     1       5.108   6.939  17.137  0.00  0.00    +0.000 C 
ATOM      2  C   UNL     1       3.838   6.377  17.659  0.00  0.00    +0.000 A 
ATOM      3  C   UNL     1       2.674   7.051  18.018  0.00  0.00    +0.000 A 
ATOM      4  O   UNL     1       1.751   6.154  18.481  0.00  0.00    +0.000 OA
ATOM      5  C   UNL     1       2.280   4.904  18.365  0.00  0.00    +0.000 A 
ATOM      6  N   UNL     1       1.614   3.792  18.700  0.00  0.00    +0.000 NA
ATOM      7  C   UNL     1       2.303   2.694  18.420  0.00  0.00    +0.000 A 
ATOM      8  N   UNL     1       1.716   1.469  18.696  0.00  0.00    +0.000 N 
ATOM      9  N   UNL     1       3.543   2.628  17.912  0.00  0.00    +0.000 NA
ATOM     10  C   UNL     1       4.192   3.764  17.604  0.00  0.00    +0.000 A 
ATOM     11  N   UNL     1       5.452   3.630  17.034  0.00  0.00    +0.000 N 
ATOM     12  C   UNL     1       3.553   4.984  17.832  0.00  0.00    +0.000 A 
ATOM     13  H   UNL     1       1.053   1.556  19.452  0.00  0.00    +0.000 HD
ATOM     14  H   UNL     1       2.431   0.757  18.784  0.00  0.00    +0.000 HD
ATOM     15  H   UNL     1       5.591   2.671  16.733  0.00  0.00    +0.000 HD
ATOM     16  H   UNL     1       5.679   4.333  16.343  0.00  0.00    +0.000 HD
ENDROOT
BRANCH   3  17
ATOM     17  S   UNL     1       2.253   8.750  17.829  0.00  0.00    +0.000 S 
BRANCH  17  18
ATOM     18  C   UNL     1       1.340   9.012  19.356  0.00  0.00    +0.000 A 
ATOM     19  C   UNL     1       1.743   8.286  20.487  0.00  0.00    +0.000 A 
ATOM     20  C   UNL     1       1.133   8.503  21.719  0.00  0.00    +0.000 A 
ATOM     21  C   UNL     1       0.158   9.488  21.843  0.00  0.00    +0.000 A 
ATOM     22  C   UNL     1      -0.266  10.227  20.730  0.00  0.00    +0.000 A 
ATOM     23  C   UNL     1      -1.201  11.264  20.887  0.00  0.00    +0.000 A 
ATOM     24  C   UNL     1      -1.681  11.973  19.788  0.00  0.00    +0.000 A 
ATOM     25  C   UNL     1      -1.282  11.609  18.510  0.00  0.00    +0.000 A 
ATOM     26  C   UNL     1      -0.327  10.604  18.341  0.00  0.00    +0.000 A 
ATOM     27  C   UNL     1       0.260   9.937  19.447  0.00  0.00    +0.000 A 
ENDBRANCH  17  18
ENDBRANCH   3  17
TORSDOF 2
ENDMDL
MODEL 3
REMARK VINA RESULT:      -7.6      3.028      5.493
REMARK  Name = 
REMARK  3 active torsions:
REMARK  status: ('A' for Active; 'I' for Inactive)
REMARK    1  A    between atoms: C_1  and  C_2
REMARK    2  A    between atoms: C_3  and  S_4
REMARK    3  A    between atoms: S_4  and  C_5
REMARK                            x       y       z     vdW  Elec       q    Type
REMARK                         _______ _______ _______ _____ _____    ______ ____
ROOT
ATOM      1  C   UNL     1       2.245   5.131  20.803  0.00  0.00    +0.000 C 
ATOM      2  C   UNL     1       2.337   5.952  19.570  0.00  0.00    +0.000 A 
ATOM      3  C   UNL     1       2.689   5.549  18.284  0.00  0.00    +0.000 A 
ATOM      4  O   UNL     1       2.679   6.632  17.448  0.00  0.00    +0.000 OA
ATOM      5  C   UNL     1       2.264   7.715  18.163  0.00  0.00    +0.000 A 
ATOM      6  N   UNL     1       2.109   8.932  17.626  0.00  0.00    +0.000 NA
ATOM      7  C   UNL     1       1.616   9.803  18.496  0.00  0.00    +0.000 A 
ATOM      8  N   UNL     1       1.384  11.098  18.062  0.00  0.00    +0.000 N 
ATOM      9  N   UNL     1       1.332   9.578  19.788  0.00  0.00    +0.000 NA
ATOM     10  C   UNL     1       1.515   8.349  20.301  0.00  0.00    +0.000 A 
ATOM     11  N   UNL     1       1.156   8.165  21.630  0.00  0.00    +0.000 N 
ATOM     12  C   UNL     1       2.008   7.342  19.469  0.00  0.00    +0.000 A 
ATOM     13  H   UNL     1       2.005  11.332  17.301  0.00  0.00    +0.000 HD
ATOM     14  H   UNL     1       1.361  11.728  18.854  0.00  0.00    +0.000 HD
ATOM     15  H   UNL     1       0.593   8.950  21.943  0.00  0.00    +0.000 HD
ATOM     16  H   UNL     1       0.773   7.253  21.841  0.00  0.00    +0.000 HD
ENDROOT
BRANCH   3  17
ATOM     17  S   UNL     1       2.981   3.933  17.651  0.00  0.00    +0.000 S 
BRANCH  17  18
ATOM     18  C   UNL     1       4.589   4.188  16.888  0.00  0.00    +0.000 A 
ATOM     19  C   UNL     1       4.716   3.890  15.522  0.00  0.00    +0.000 A 
ATOM     20  C   UNL     1       5.908   4.143  14.852  0.00  0.00    +0.000 A 
ATOM     21  C   UNL     1       6.964   4.750  15.525  0.00  0.00    +0.000 A 
ATOM     22  C   UNL     1       6.868   5.056  16.890  0.00  0.00    +0.000 A 
ATOM     23  C   UNL     1       7.917   5.732  17.536  0.00  0.00    +0.000 A 
ATOM     24  C   UNL     1       7.869   5.995  18.903  0.00  0.00    +0.000 A 
ATOM     25  C   UNL     1       6.800   5.527  19.655  0.00  0.00    +0.000 A 
ATOM     26  C   UNL     1       5.734   4.885  19.020  0.00  0.00    +0.000 A 
ATOM     27  C   UNL     1       5.704   4.698  17.615  0.00  0.00    +0.000 A 
ENDBRANCH  17  18
ENDBRANCH   3  17
TORSDOF 2
ENDMDL
MODEL 4
REMARK VINA RESULT:      -7.6      3.933      5.810
REMARK  Name = 
REMARK  3 active torsions:
REMARK  status: ('A' for Active; 'I' for Inactive)
REMARK    1  A    between atoms: C_1  and  C_2
REMARK    2  A    between atoms: C_3  and  S_4
REMARK    3  A    between atoms: S_4  and  C_5
REMARK                            x       y       z     vdW  Elec       q    Type
REMARK                         _______ _______ _______ _____ _____    ______ ____
ROOT
ATOM      1  C   UNL     1       4.701   6.387  17.675  0.00  0.00    +0.000 C 
ATOM      2  C   UNL     1       3.619   6.150  18.662  0.00  0.00    +0.000 A 
ATOM      3  C   UNL     1       2.551   6.979  18.993  0.00  0.00    +0.000 A 
ATOM      4  O   UNL     1       1.804   6.391  19.978  0.00  0.00    +0.000 OA
ATOM      5  C   UNL     1       2.340   5.167  20.241  0.00  0.00    +0.000 A 
ATOM      6  N   UNL     1       1.821   4.316  21.135  0.00  0.00    +0.000 NA
ATOM      7  C   UNL     1       2.466   3.157  21.155  0.00  0.00    +0.000 A 
ATOM      8  N   UNL     1       2.014   2.175  22.022  0.00  0.00    +0.000 N 
ATOM      9  N   UNL     1       3.548   2.825  20.434  0.00  0.00    +0.000 NA
ATOM     10  C   UNL     1       4.056   3.708  19.558  0.00  0.00    +0.000 A 
ATOM     11  N   UNL     1       5.145   3.288  18.805  0.00  0.00    +0.000 N 
ATOM     12  C   UNL     1       3.442   4.956  19.433  0.00  0.00    +0.000 A 
ATOM     13  H   UNL     1       1.551   2.591  22.817  0.00  0.00    +0.000 HD
ATOM     14  H   UNL     1       2.757   1.514  22.210  0.00  0.00    +0.000 HD
ATOM     15  H   UNL     1       5.245   2.281  18.883  0.00  0.00    +0.000 HD
ATOM     16  H   UNL     1       5.169   3.650  17.861  0.00  0.00    +0.000 HD
ENDROOT
BRANCH   3  17
ATOM     17  S   UNL     1       2.028   8.490  18.257  0.00  0.00    +0.000 S 
BRANCH  17  18
ATOM     18  C   UNL     1       1.102   9.196  19.627  0.00  0.00    +0.000 A 
ATOM     19  C   UNL     1       1.531   8.890  20.928  0.00  0.00    +0.000 A 
ATOM     20  C   UNL     1       0.911   9.470  22.031  0.00  0.00    +0.000 A 
ATOM     21  C   UNL     1      -0.102  10.403  21.842  0.00  0.00    +0.000 A 
ATOM     22  C   UNL     1      -0.554  10.727  20.554  0.00  0.00    +0.000 A 
ATOM     23  C   UNL     1      -1.530  11.723  20.379  0.00  0.00    +0.000 A 
ATOM     24  C   UNL     1      -2.036  12.020  19.115  0.00  0.00    +0.000 A 
ATOM     25  C   UNL     1      -1.621  11.278  18.018  0.00  0.00    +0.000 A 
ATOM     26  C   UNL     1      -0.626  10.309  18.172  0.00  0.00    +0.000 A 
ATOM     27  C   UNL     1      -0.015  10.058  19.427  0.00  0.00    +0.000 A 
ENDBRANCH  17  18
ENDBRANCH   3  17
TORSDOF 2
ENDMDL
MODEL 5
REMARK VINA RESULT:      -7.5      3.479      6.058
REMARK  Name = 
REMARK  3 active torsions:
REMARK  status: ('A' for Active; 'I' for Inactive)
REMARK    1  A    between atoms: C_1  and  C_2
REMARK    2  A    between atoms: C_3  and  S_4
REMARK    3  A    between atoms: S_4  and  C_5
REMARK                            x       y       z     vdW  Elec       q    Type
REMARK                         _______ _______ _______ _____ _____    ______ ____
ROOT
ATOM      1  C   UNL     1       1.652   6.028  21.015  0.00  0.00    +0.000 C 
ATOM      2  C   UNL     1       1.944   6.847  19.813  0.00  0.00    +0.000 A 
ATOM      3  C   UNL     1       2.539   6.451  18.618  0.00  0.00    +0.000 A 
ATOM      4  O   UNL     1       2.651   7.530  17.784  0.00  0.00    +0.000 OA
ATOM      5  C   UNL     1       2.078   8.602  18.400  0.00  0.00    +0.000 A 
ATOM      6  N   UNL     1       1.987   9.811  17.832  0.00  0.00    +0.000 NA
ATOM      7  C   UNL     1       1.316  10.669  18.589  0.00  0.00    +0.000 A 
ATOM      8  N   UNL     1       1.129  11.955  18.107  0.00  0.00    +0.000 N 
ATOM      9  N   UNL     1       0.806  10.440  19.809  0.00  0.00    +0.000 NA
ATOM     10  C   UNL     1       0.929   9.219  20.358  0.00  0.00    +0.000 A 
ATOM     11  N   UNL     1       0.337   9.028  21.600  0.00  0.00    +0.000 N 
ATOM     12  C   UNL     1       1.597   8.225  19.640  0.00  0.00    +0.000 A 
ATOM     13  H   UNL     1       1.872  12.206  17.471  0.00  0.00    +0.000 HD
ATOM     14  H   UNL     1       0.941  12.586  18.876  0.00  0.00    +0.000 HD
ATOM     15  H   UNL     1      -0.297   9.796  21.797  0.00  0.00    +0.000 HD
ATOM     16  H   UNL     1      -0.050   8.106  21.745  0.00  0.00    +0.000 HD
ENDROOT
BRANCH   3  17
ATOM     17  S   UNL     1       2.992   4.843  18.064  0.00  0.00    +0.000 S 
BRANCH  17  18
ATOM     18  C   UNL     1       4.775   5.050  17.945  0.00  0.00    +0.000 A 
ATOM     19  C   UNL     1       5.482   5.301  19.131  0.00  0.00    +0.000 A 
ATOM     20  C   UNL     1       6.870   5.389  19.120  0.00  0.00    +0.000 A 
ATOM     21  C   UNL     1       7.567   5.167  17.937  0.00  0.00    +0.000 A 
ATOM     22  C   UNL     1       6.888   4.917  16.735  0.00  0.00    +0.000 A 
ATOM     23  C   UNL     1       7.609   4.628  15.565  0.00  0.00    +0.000 A 
ATOM     24  C   UNL     1       6.959   4.434  14.348  0.00  0.00    +0.000 A 
ATOM     25  C   UNL     1       5.582   4.592  14.274  0.00  0.00    +0.000 A 
ATOM     26  C   UNL     1       4.849   4.846  15.436  0.00  0.00    +0.000 A 
ATOM     27  C   UNL     1       5.472   4.942  16.706  0.00  0.00    +0.000 A 
ENDBRANCH  17  18
ENDBRANCH   3  17
TORSDOF 2
ENDMDL
MODEL 6
REMARK VINA RESULT:      -7.3      5.143      6.821
REMARK  Name = 
REMARK  3 active torsions:
REMARK  status: ('A' for Active; 'I' for Inactive)
REMARK    1  A    between atoms: C_1  and  C_2
REMARK    2  A    between atoms: C_3  and  S_4
REMARK    3  A    between atoms: S_4  and  C_5
REMARK                            x       y       z     vdW  Elec       q    Type
REMARK                         _______ _______ _______ _____ _____    ______ ____
ROOT
ATOM      1  C   UNL     1       0.568   8.382  21.269  0.00  0.00    +0.000 C 
ATOM      2  C   UNL     1       1.290   8.533  19.982  0.00  0.00    +0.000 A 
ATOM      3  C   UNL     1       1.327   9.636  19.133  0.00  0.00    +0.000 A 
ATOM      4  O   UNL     1       2.087   9.341  18.033  0.00  0.00    +0.000 OA
ATOM      5  C   UNL     1       2.591   8.085  18.193  0.00  0.00    +0.000 A 
ATOM      6  N   UNL     1       3.410   7.507  17.305  0.00  0.00    +0.000 NA
ATOM      7  C   UNL     1       3.835   6.320  17.718  0.00  0.00    +0.000 A 
ATOM      8  N   UNL     1       4.711   5.622  16.902  0.00  0.00    +0.000 N 
ATOM      9  N   UNL     1       3.489   5.689  18.851  0.00  0.00    +0.000 NA
ATOM     10  C   UNL     1       2.650   6.290  19.712  0.00  0.00    +0.000 A 
ATOM     11  N   UNL     1       2.369   5.609  20.890  0.00  0.00    +0.000 N 
ATOM     12  C   UNL     1       2.157   7.556  19.394  0.00  0.00    +0.000 A 
ATOM     13  H   UNL     1       4.578   5.882  15.935  0.00  0.00    +0.000 HD
ATOM     14  H   UNL     1       4.678   4.635  17.126  0.00  0.00    +0.000 HD
ATOM     15  H   UNL     1       3.031   4.849  21.011  0.00  0.00    +0.000 HD
ATOM     16  H   UNL     1       2.244   6.202  21.699  0.00  0.00    +0.000 HD
ENDROOT
BRANCH   3  17
ATOM     17  S   UNL     1       0.682  11.257  19.364  0.00  0.00    +0.000 S 
BRANCH  17  18
ATOM     18  C   UNL     1      -0.948  11.046  18.635  0.00  0.00    +0.000 A 
ATOM     19  C   UNL     1      -1.082  10.105  17.602  0.00  0.00    +0.000 A 
ATOM     20  C   UNL     1      -2.331   9.834  17.051  0.00  0.00    +0.000 A 
ATOM     21  C   UNL     1      -3.463  10.455  17.568  0.00  0.00    +0.000 A 
ATOM     22  C   UNL     1      -3.360  11.402  18.597  0.00  0.00    +0.000 A 
ATOM     23  C   UNL     1      -4.520  11.968  19.153  0.00  0.00    +0.000 A 
ATOM     24  C   UNL     1      -4.441  12.952  20.136  0.00  0.00    +0.000 A 
ATOM     25  C   UNL     1      -3.199  13.431  20.528  0.00  0.00    +0.000 A 
ATOM     26  C   UNL     1      -2.037  12.854  20.009  0.00  0.00    +0.000 A 
ATOM     27  C   UNL     1      -2.085  11.777  19.088  0.00  0.00    +0.000 A 
ENDBRANCH  17  18
ENDBRANCH   3  17
TORSDOF 2
ENDMDL
MODEL 7
REMARK VINA RESULT:      -7.3      3.381      5.202
REMARK  Name = 
REMARK  3 active torsions:
REMARK  status: ('A' for Active; 'I' for Inactive)
REMARK    1  A    between atoms: C_1  and  C_2
REMARK    2  A    between atoms: C_3  and  S_4
REMARK    3  A    between atoms: S_4  and  C_5
REMARK                            x       y       z     vdW  Elec       q    Type
REMARK                         _______ _______ _______ _____ _____    ______ ____
ROOT
ATOM      1  C   UNL     1       0.794   3.893  20.079  0.00  0.00    +0.000 C 
ATOM      2  C   UNL     1       1.959   4.634  19.537  0.00  0.00    +0.000 A 
ATOM      3  C   UNL     1       2.406   5.910  19.868  0.00  0.00    +0.000 A 
ATOM      4  O   UNL     1       3.498   6.223  19.106  0.00  0.00    +0.000 OA
ATOM      5  C   UNL     1       3.800   5.142  18.334  0.00  0.00    +0.000 A 
ATOM      6  N   UNL     1       4.843   5.108  17.495  0.00  0.00    +0.000 NA
ATOM      7  C   UNL     1       4.981   3.923  16.917  0.00  0.00    +0.000 A 
ATOM      8  N   UNL     1       6.040   3.744  16.041  0.00  0.00    +0.000 N 
ATOM      9  N   UNL     1       4.180   2.856  17.065  0.00  0.00    +0.000 NA
ATOM     10  C   UNL     1       3.130   2.928  17.901  0.00  0.00    +0.000 A 
ATOM     11  N   UNL     1       2.368   1.776  18.051  0.00  0.00    +0.000 N 
ATOM     12  C   UNL     1       2.901   4.123  18.586  0.00  0.00    +0.000 A 
ATOM     13  H   UNL     1       6.305   4.624  15.622  0.00  0.00    +0.000 HD
ATOM     14  H   UNL     1       5.843   2.972  15.416  0.00  0.00    +0.000 HD
ATOM     15  H   UNL     1       2.870   0.983  17.664  0.00  0.00    +0.000 HD
ATOM     16  H   UNL     1       1.995   1.636  18.980  0.00  0.00    +0.000 HD
ENDROOT
BRANCH   3  17
ATOM     17  S   UNL     1       1.857   7.001  21.135  0.00  0.00    +0.000 S 
BRANCH  17  18
ATOM     18  C   UNL     1       1.392   8.423  20.136  0.00  0.00    +0.000 A 
ATOM     19  C   UNL     1       1.776   8.422  18.786  0.00  0.00    +0.000 A 
ATOM     20  C   UNL     1       1.378   9.452  17.938  0.00  0.00    +0.000 A 
ATOM     21  C   UNL     1       0.544  10.457  18.418  0.00  0.00    +0.000 A 
ATOM     22  C   UNL     1       0.148  10.486  19.762  0.00  0.00    +0.000 A 
ATOM     23  C   UNL     1      -0.750  11.469  20.212  0.00  0.00    +0.000 A 
ATOM     24  C   UNL     1      -1.113  11.553  21.554  0.00  0.00    +0.000 A 
ATOM     25  C   UNL     1      -0.531  10.694  22.477  0.00  0.00    +0.000 A 
ATOM     26  C   UNL     1       0.335   9.689  22.039  0.00  0.00    +0.000 A 
ATOM     27  C   UNL     1       0.640   9.511  20.665  0.00  0.00    +0.000 A 
ENDBRANCH  17  18
ENDBRANCH   3  17
TORSDOF 2
ENDMDL
MODEL 8
REMARK VINA RESULT:      -7.2      1.754      2.215
REMARK  Name = 
REMARK  3 active torsions:
REMARK  status: ('A' for Active; 'I' for Inactive)
REMARK    1  A    between atoms: C_1  and  C_2
REMARK    2  A    between atoms: C_3  and  S_4
REMARK    3  A    between atoms: S_4  and  C_5
REMARK                            x       y       z     vdW  Elec       q    Type
REMARK                         _______ _______ _______ _____ _____    ______ ____
ROOT
ATOM      1  C   UNL     1       5.157   3.938  19.373  0.00  0.00    +0.000 C 
ATOM      2  C   UNL     1       5.063   3.824  17.897  0.00  0.00    +0.000 A 
ATOM      3  C   UNL     1       4.080   3.197  17.136  0.00  0.00    +0.000 A 
ATOM      4  O   UNL     1       4.395   3.299  15.808  0.00  0.00    +0.000 OA
ATOM      5  C   UNL     1       5.535   4.037  15.700  0.00  0.00    +0.000 A 
ATOM      6  N   UNL     1       6.094   4.354  14.525  0.00  0.00    +0.000 NA
ATOM      7  C   UNL     1       7.146   5.148  14.670  0.00  0.00    +0.000 A 
ATOM      8  N   UNL     1       7.806   5.571  13.527  0.00  0.00    +0.000 N 
ATOM      9  N   UNL     1       7.676   5.580  15.825  0.00  0.00    +0.000 NA
ATOM     10  C   UNL     1       7.102   5.229  16.988  0.00  0.00    +0.000 A 
ATOM     11  N   UNL     1       7.665   5.749  18.147  0.00  0.00    +0.000 N 
ATOM     12  C   UNL     1       5.969   4.414  16.957  0.00  0.00    +0.000 A 
ATOM     13  H   UNL     1       7.688   4.900  12.782  0.00  0.00    +0.000 HD
ATOM     14  H   UNL     1       8.751   5.849  13.758  0.00  0.00    +0.000 HD
ATOM     15  H   UNL     1       8.301   6.504  17.908  0.00  0.00    +0.000 HD
ATOM     16  H   UNL     1       7.002   5.962  18.879  0.00  0.00    +0.000 HD
ENDROOT
BRANCH   3  17
ATOM     17  S   UNL     1       2.553   2.480  17.640  0.00  0.00    +0.000 S 
BRANCH  17  18
ATOM     18  C   UNL     1       2.202   3.490  19.086  0.00  0.00    +0.000 A 
ATOM     19  C   UNL     1       2.034   2.831  20.314  0.00  0.00    +0.000 A 
ATOM     20  C   UNL     1       1.843   3.559  21.484  0.00  0.00    +0.000 A 
ATOM     21  C   UNL     1       1.876   4.949  21.447  0.00  0.00    +0.000 A 
ATOM     22  C   UNL     1       2.038   5.634  20.234  0.00  0.00    +0.000 A 
ATOM     23  C   UNL     1       2.139   7.036  20.225  0.00  0.00    +0.000 A 
ATOM     24  C   UNL     1       2.242   7.742  19.028  0.00  0.00    +0.000 A 
ATOM     25  C   UNL     1       2.179   7.059  17.821  0.00  0.00    +0.000 A 
ATOM     26  C   UNL     1       2.114   5.663  17.817  0.00  0.00    +0.000 A 
ATOM     27  C   UNL     1       2.116   4.911  19.018  0.00  0.00    +0.000 A 
ENDBRANCH  17  18
ENDBRANCH   3  17
TORSDOF 2
ENDMDL
MODEL 9
REMARK VINA RESULT:      -7.2      5.320      7.480
REMARK  Name = 
REMARK  3 active torsions:
REMARK  status: ('A' for Active; 'I' for Inactive)
REMARK    1  A    between atoms: C_1  and  C_2
REMARK    2  A    between atoms: C_3  and  S_4
REMARK    3  A    between atoms: S_4  and  C_5
REMARK                            x       y       z     vdW  Elec       q    Type
REMARK                         _______ _______ _______ _____ _____    ______ ____
ROOT
ATOM      1  C   UNL     1      -1.232   9.992  18.877  0.00  0.00    +0.000 C 
ATOM      2  C   UNL     1      -0.193  10.687  19.675  0.00  0.00    +0.000 A 
ATOM      3  C   UNL     1       0.612  10.173  20.689  0.00  0.00    +0.000 A 
ATOM      4  O   UNL     1       1.414  11.165  21.183  0.00  0.00    +0.000 OA
ATOM      5  C   UNL     1       1.184  12.296  20.458  0.00  0.00    +0.000 A 
ATOM      6  N   UNL     1       1.839  13.445  20.666  0.00  0.00    +0.000 NA
ATOM      7  C   UNL     1       1.503  14.377  19.784  0.00  0.00    +0.000 A 
ATOM      8  N   UNL     1       2.127  15.612  19.872  0.00  0.00    +0.000 N 
ATOM      9  N   UNL     1       0.589  14.271  18.808  0.00  0.00    +0.000 NA
ATOM     10  C   UNL     1      -0.065  13.109  18.638  0.00  0.00    +0.000 A 
ATOM     11  N   UNL     1      -0.963  13.044  17.579  0.00  0.00    +0.000 N 
ATOM     12  C   UNL     1       0.226  12.045  19.494  0.00  0.00    +0.000 A 
ATOM     13  H   UNL     1       2.419  15.794  20.821  0.00  0.00    +0.000 HD
ATOM     14  H   UNL     1       1.562  16.316  19.415  0.00  0.00    +0.000 HD
ATOM     15  H   UNL     1      -0.814  13.832  16.957  0.00  0.00    +0.000 HD
ATOM     16  H   UNL     1      -1.013  12.143  17.125  0.00  0.00    +0.000 HD
ENDROOT
BRANCH   3  17
ATOM     17  S   UNL     1       0.789   8.515  21.253  0.00  0.00    +0.000 S 
BRANCH  17  18
ATOM     18  C   UNL     1       1.732   7.825  19.887  0.00  0.00    +0.000 A 
ATOM     19  C   UNL     1       2.072   8.684  18.830  0.00  0.00    +0.000 A 
ATOM     20  C   UNL     1       2.870   8.235  17.783  0.00  0.00    +0.000 A 
ATOM     21  C   UNL     1       3.384   6.942  17.812  0.00  0.00    +0.000 A 
ATOM     22  C   UNL     1       3.059   6.060  18.853  0.00  0.00    +0.000 A 
ATOM     23  C   UNL     1       3.643   4.782  18.901  0.00  0.00    +0.000 A 
ATOM     24  C   UNL     1       3.291   3.868  19.892  0.00  0.00    +0.000 A 
ATOM     25  C   UNL     1       2.302   4.196  20.809  0.00  0.00    +0.000 A 
ATOM     26  C   UNL     1       1.739   5.475  20.793  0.00  0.00    +0.000 A 
ATOM     27  C   UNL     1       2.153   6.463  19.864  0.00  0.00    +0.000 A 
ENDBRANCH  17  18
ENDBRANCH   3  17
TORSDOF 2
ENDMDL
