MODEL 1
REMARK VINA RESULT:      -7.1      0.000      0.000
REMARK  Name = 
REMARK  8 active torsions:
REMARK  status: ('A' for Active; 'I' for Inactive)
REMARK    1  A    between atoms: C_1  and  N_2
REMARK    2  A    between atoms: C_10  and  C_12
REMARK    3  A    between atoms: C_12  and  C_13
REMARK    4  A    between atoms: C_16  and  C_17
REMARK    5  A    between atoms: C_17  and  O_18
REMARK    6  A    between atoms: O_18  and  C_19
REMARK    7  A    between atoms: C_19  and  C_20
REMARK    8  A    between atoms: C_20  and  N_21
REMARK                            x       y       z     vdW  Elec       q    Type
REMARK                         _______ _______ _______ _____ _____    ______ ____
ROOT
ATOM      1  C   UNL     1       6.838   4.446  14.105  0.00  0.00    +0.000 C 
ATOM      2  N   UNL     1       6.834   4.767  15.510  0.00  0.00    +0.000 N 
ATOM      3  N   UNL     1       7.596   4.080  16.377  0.00  0.00    +0.000 NA
ATOM      4  N   UNL     1       7.271   4.476  17.607  0.00  0.00    +0.000 NA
ATOM      5  C   UNL     1       6.249   5.377  17.508  0.00  0.00    +0.000 A 
ATOM      6  C   UNL     1       6.047   5.657  16.169  0.00  0.00    +0.000 A 
ATOM      7  C   UNL     1       5.086   6.644  15.647  0.00  0.00    +0.000 C 
ATOM      8  C   UNL     1       4.673   7.535  16.841  0.00  0.00    +0.000 C 
ATOM      9  N   UNL     1       4.285   6.719  18.015  0.00  0.00    +0.000 N 
ATOM     10  C   UNL     1       3.043   6.866  18.641  0.00  0.00    +0.000 C 
ATOM     11  O   UNL     1       2.834   6.520  19.803  0.00  0.00    +0.000 OA
ATOM     12  C   UNL     1       5.409   5.924  18.647  0.00  0.00    +0.000 C 
ENDROOT
BRANCH  10  13
ATOM     13  C   UNL     1       1.934   7.514  17.815  0.00  0.00    +0.000 C 
BRANCH  13  14
ATOM     14  C   UNL     1       1.774   8.996  18.047  0.00  0.00    +0.000 C 
ATOM     15  C   UNL     1       0.406   9.625  17.969  0.00  0.00    +0.000 C 
ATOM     16  C   UNL     1       1.105   9.518  19.294  0.00  0.00    +0.000 C 
ENDBRANCH  13  14
ENDBRANCH  10  13
BRANCH  12  17
ATOM     17  C   UNL     1       4.997   4.813  19.655  0.00  0.00    +0.000 C 
BRANCH  17  18
ATOM     18  O   UNL     1       5.443   3.486  19.353  0.00  0.00    +0.000 OA
BRANCH  18  19
ATOM     19  C   UNL     1       4.613   2.420  19.794  0.00  0.00    +0.000 C 
BRANCH  19  20
ATOM     20  C   UNL     1       3.165   2.825  20.144  0.00  0.00    +0.000 C 
BRANCH  20  21
ATOM     21  N   UNL     1       2.156   2.260  19.228  0.00  0.00    +0.000 NA
ATOM     22  C   UNL     1       2.729   2.057  17.887  0.00  0.00    +0.000 C 
ATOM     23  C   UNL     1       2.593   3.407  17.212  0.00  0.00    +0.000 C 
ATOM     24  C   UNL     1       1.264   3.925  17.736  0.00  0.00    +0.000 C 
ATOM     25  C   UNL     1       1.028   3.182  19.044  0.00  0.00    +0.000 C 
ENDBRANCH  20  21
ENDBRANCH  19  20
ENDBRANCH  18  19
ENDBRANCH  17  18
ENDBRANCH  12  17
TORSDOF 7
ENDMDL
MODEL 2
REMARK VINA RESULT:      -6.9      0.829      1.224
REMARK  Name = 
REMARK  8 active torsions:
REMARK  status: ('A' for Active; 'I' for Inactive)
REMARK    1  A    between atoms: C_1  and  N_2
REMARK    2  A    between atoms: C_10  and  C_12
REMARK    3  A    between atoms: C_12  and  C_13
REMARK    4  A    between atoms: C_16  and  C_17
REMARK    5  A    between atoms: C_17  and  O_18
REMARK    6  A    between atoms: O_18  and  C_19
REMARK    7  A    between atoms: C_19  and  C_20
REMARK    8  A    between atoms: C_20  and  N_21
REMARK                            x       y       z     vdW  Elec       q    Type
REMARK                         _______ _______ _______ _____ _____    ______ ____
ROOT
ATOM      1  C   UNL     1       6.503   4.385  13.672  0.00  0.00    +0.000 C 
ATOM      2  N   UNL     1       6.715   4.749  15.050  0.00  0.00    +0.000 N 
ATOM      3  N   UNL     1       7.647   4.128  15.793  0.00  0.00    +0.000 NA
ATOM      4  N   UNL     1       7.511   4.544  17.050  0.00  0.00    +0.000 NA
ATOM      5  C   UNL     1       6.439   5.390  17.105  0.00  0.00    +0.000 A 
ATOM      6  C   UNL     1       6.002   5.618  15.813  0.00  0.00    +0.000 A 
ATOM      7  C   UNL     1       4.915   6.539  15.438  0.00  0.00    +0.000 C 
ATOM      8  C   UNL     1       4.659   7.445  16.665  0.00  0.00    +0.000 C 
ATOM      9  N   UNL     1       4.517   6.647  17.905  0.00  0.00    +0.000 N 
ATOM     10  C   UNL     1       3.391   6.752  18.728  0.00  0.00    +0.000 C 
ATOM     11  O   UNL     1       3.398   6.431  19.915  0.00  0.00    +0.000 OA
ATOM     12  C   UNL     1       5.772   5.929  18.356  0.00  0.00    +0.000 C 
ENDROOT
BRANCH  10  13
ATOM     13  C   UNL     1       2.126   7.319  18.086  0.00  0.00    +0.000 C 
BRANCH  13  14
ATOM     14  C   UNL     1       1.685   8.645  18.652  0.00  0.00    +0.000 C 
ATOM     15  C   UNL     1       2.006   9.921  17.913  0.00  0.00    +0.000 C 
ATOM     16  C   UNL     1       0.585   9.441  17.995  0.00  0.00    +0.000 C 
ENDBRANCH  13  14
ENDBRANCH  10  13
BRANCH  12  17
ATOM     17  C   UNL     1       5.595   4.831  19.444  0.00  0.00    +0.000 C 
BRANCH  17  18
ATOM     18  O   UNL     1       5.311   3.510  18.970  0.00  0.00    +0.000 OA
BRANCH  18  19
ATOM     19  C   UNL     1       4.390   2.743  19.735  0.00  0.00    +0.000 C 
BRANCH  19  20
ATOM     20  C   UNL     1       3.282   2.051  18.913  0.00  0.00    +0.000 C 
BRANCH  20  21
ATOM     21  N   UNL     1       2.037   1.824  19.672  0.00  0.00    +0.000 NA
ATOM     22  C   UNL     1       0.878   2.353  18.935  0.00  0.00    +0.000 C 
ATOM     23  C   UNL     1       0.839   3.823  19.300  0.00  0.00    +0.000 C 
ATOM     24  C   UNL     1       1.269   3.830  20.758  0.00  0.00    +0.000 C 
ATOM     25  C   UNL     1       2.057   2.542  20.953  0.00  0.00    +0.000 C 
ENDBRANCH  20  21
ENDBRANCH  19  20
ENDBRANCH  18  19
ENDBRANCH  17  18
ENDBRANCH  12  17
TORSDOF 7
ENDMDL
MODEL 3
REMARK VINA RESULT:      -6.8      2.379      6.560
REMARK  Name = 
REMARK  8 active torsions:
REMARK  status: ('A' for Active; 'I' for Inactive)
REMARK    1  A    between atoms: C_1  and  N_2
REMARK    2  A    between atoms: C_10  and  C_12
REMARK    3  A    between atoms: C_12  and  C_13
REMARK    4  A    between atoms: C_16  and  C_17
REMARK    5  A    between atoms: C_17  and  O_18
REMARK    6  A    between atoms: O_18  and  C_19
REMARK    7  A    between atoms: C_19  and  C_20
REMARK    8  A    between atoms: C_20  and  N_21
REMARK                            x       y       z     vdW  Elec       q    Type
REMARK                         _______ _______ _______ _____ _____    ______ ____
ROOT
ATOM      1  C   UNL     1       1.835   2.185  20.809  0.00  0.00    +0.000 C 
ATOM      2  N   UNL     1       2.130   3.575  20.567  0.00  0.00    +0.000 N 
ATOM      3  N   UNL     1       1.267   4.538  20.931  0.00  0.00    +0.000 NA
ATOM      4  N   UNL     1       1.715   5.693  20.443  0.00  0.00    +0.000 NA
ATOM      5  C   UNL     1       2.842   5.438  19.712  0.00  0.00    +0.000 A 
ATOM      6  C   UNL     1       3.178   4.109  19.886  0.00  0.00    +0.000 A 
ATOM      7  C   UNL     1       4.378   3.459  19.328  0.00  0.00    +0.000 C 
ATOM      8  C   UNL     1       5.328   4.594  18.882  0.00  0.00    +0.000 C 
ATOM      9  N   UNL     1       4.618   5.601  18.059  0.00  0.00    +0.000 N 
ATOM     10  C   UNL     1       5.058   5.956  16.780  0.00  0.00    +0.000 C 
ATOM     11  O   UNL     1       4.760   7.020  16.241  0.00  0.00    +0.000 OA
ATOM     12  C   UNL     1       3.564   6.404  18.792  0.00  0.00    +0.000 C 
ENDROOT
BRANCH  10  13
ATOM     13  C   UNL     1       5.970   4.957  16.069  0.00  0.00    +0.000 C 
BRANCH  13  14
ATOM     14  C   UNL     1       5.813   4.934  14.570  0.00  0.00    +0.000 C 
ATOM     15  C   UNL     1       7.034   4.840  13.689  0.00  0.00    +0.000 C 
ATOM     16  C   UNL     1       6.088   3.677  13.781  0.00  0.00    +0.000 C 
ENDBRANCH  13  14
ENDBRANCH  10  13
BRANCH  12  17
ATOM     17  C   UNL     1       2.577   7.226  17.915  0.00  0.00    +0.000 C 
BRANCH  17  18
ATOM     18  O   UNL     1       2.649   8.650  18.044  0.00  0.00    +0.000 OA
BRANCH  18  19
ATOM     19  C   UNL     1       1.474   9.310  18.498  0.00  0.00    +0.000 C 
BRANCH  19  20
ATOM     20  C   UNL     1       1.261   9.276  20.026  0.00  0.00    +0.000 C 
BRANCH  20  21
ATOM     21  N   UNL     1      -0.158   9.326  20.427  0.00  0.00    +0.000 NA
ATOM     22  C   UNL     1      -0.598  10.720  20.603  0.00  0.00    +0.000 C 
ATOM     23  C   UNL     1      -0.181  11.070  22.017  0.00  0.00    +0.000 C 
ATOM     24  C   UNL     1      -0.413   9.775  22.778  0.00  0.00    +0.000 C 
ATOM     25  C   UNL     1      -0.368   8.674  21.727  0.00  0.00    +0.000 C 
ENDBRANCH  20  21
ENDBRANCH  19  20
ENDBRANCH  18  19
ENDBRANCH  17  18
ENDBRANCH  12  17
TORSDOF 7
ENDMDL
MODEL 4
REMARK VINA RESULT:      -6.8      1.534      4.989
REMARK  Name = 
REMARK  8 active torsions:
REMARK  status: ('A' for Active; 'I' for Inactive)
REMARK    1  A    between atoms: C_1  and  N_2
REMARK    2  A    between atoms: C_10  and  C_12
REMARK    3  A    between atoms: C_12  and  C_13
REMARK    4  A    between atoms: C_16  and  C_17
REMARK    5  A    between atoms: C_17  and  O_18
REMARK    6  A    between atoms: O_18  and  C_19
REMARK    7  A    between atoms: C_19  and  C_20
REMARK    8  A    between atoms: C_20  and  N_21
REMARK                            x       y       z     vdW  Elec       q    Type
REMARK                         _______ _______ _______ _____ _____    ______ ____
ROOT
ATOM      1  C   UNL     1       1.286   2.319  22.284  0.00  0.00    +0.000 C 
ATOM      2  N   UNL     1       2.305   2.543  21.290  0.00  0.00    +0.000 N 
ATOM      3  N   UNL     1       3.527   1.998  21.418  0.00  0.00    +0.000 NA
ATOM      4  N   UNL     1       4.301   2.501  20.459  0.00  0.00    +0.000 NA
ATOM      5  C   UNL     1       3.569   3.418  19.758  0.00  0.00    +0.000 A 
ATOM      6  C   UNL     1       2.263   3.363  20.207  0.00  0.00    +0.000 A 
ATOM      7  C   UNL     1       1.142   4.141  19.649  0.00  0.00    +0.000 C 
ATOM      8  C   UNL     1       1.619   4.686  18.283  0.00  0.00    +0.000 C 
ATOM      9  N   UNL     1       2.947   5.333  18.394  0.00  0.00    +0.000 N 
ATOM     10  C   UNL     1       3.166   6.650  17.977  0.00  0.00    +0.000 C 
ATOM     11  O   UNL     1       4.279   7.084  17.686  0.00  0.00    +0.000 OA
ATOM     12  C   UNL     1       4.093   4.400  18.728  0.00  0.00    +0.000 C 
ENDROOT
BRANCH  10  13
ATOM     13  C   UNL     1       1.934   7.546  17.868  0.00  0.00    +0.000 C 
BRANCH  13  14
ATOM     14  C   UNL     1       2.095   8.903  18.507  0.00  0.00    +0.000 C 
ATOM     15  C   UNL     1       1.370  10.094  17.933  0.00  0.00    +0.000 C 
ATOM     16  C   UNL     1       0.961   9.541  19.268  0.00  0.00    +0.000 C 
ENDBRANCH  13  14
ENDBRANCH  10  13
BRANCH  12  17
ATOM     17  C   UNL     1       5.426   5.064  19.176  0.00  0.00    +0.000 C 
BRANCH  17  18
ATOM     18  O   UNL     1       6.624   4.528  18.605  0.00  0.00    +0.000 OA
BRANCH  18  19
ATOM     19  C   UNL     1       7.325   5.363  17.692  0.00  0.00    +0.000 C 
BRANCH  19  20
ATOM     20  C   UNL     1       7.681   4.698  16.346  0.00  0.00    +0.000 C 
BRANCH  20  21
ATOM     21  N   UNL     1       7.175   5.434  15.171  0.00  0.00    +0.000 NA
ATOM     22  C   UNL     1       5.711   5.567  15.234  0.00  0.00    +0.000 C 
ATOM     23  C   UNL     1       5.189   4.269  14.653  0.00  0.00    +0.000 C 
ATOM     24  C   UNL     1       6.184   3.959  13.547  0.00  0.00    +0.000 C 
ATOM     25  C   UNL     1       7.455   4.706  13.926  0.00  0.00    +0.000 C 
ENDBRANCH  20  21
ENDBRANCH  19  20
ENDBRANCH  18  19
ENDBRANCH  17  18
ENDBRANCH  12  17
TORSDOF 7
ENDMDL
MODEL 5
REMARK VINA RESULT:      -6.6      4.767      7.812
REMARK  Name = 
REMARK  8 active torsions:
REMARK  status: ('A' for Active; 'I' for Inactive)
REMARK    1  A    between atoms: C_1  and  N_2
REMARK    2  A    between atoms: C_10  and  C_12
REMARK    3  A    between atoms: C_12  and  C_13
REMARK    4  A    between atoms: C_16  and  C_17
REMARK    5  A    between atoms: C_17  and  O_18
REMARK    6  A    between atoms: O_18  and  C_19
REMARK    7  A    between atoms: C_19  and  C_20
REMARK    8  A    between atoms: C_20  and  N_21
REMARK                            x       y       z     vdW  Elec       q    Type
REMARK                         _______ _______ _______ _____ _____    ______ ____
ROOT
ATOM      1  C   UNL     1      -4.113  10.999  16.934  0.00  0.00    +0.000 C 
ATOM      2  N   UNL     1      -2.777  10.820  17.446  0.00  0.00    +0.000 N 
ATOM      3  N   UNL     1      -1.958   9.889  16.930  0.00  0.00    +0.000 NA
ATOM      4  N   UNL     1      -0.869   9.835  17.694  0.00  0.00    +0.000 NA
ATOM      5  C   UNL     1      -1.037  10.702  18.737  0.00  0.00    +0.000 A 
ATOM      6  C   UNL     1      -2.198  11.420  18.520  0.00  0.00    +0.000 A 
ATOM      7  C   UNL     1      -2.691  12.513  19.377  0.00  0.00    +0.000 C 
ATOM      8  C   UNL     1      -1.508  12.936  20.278  0.00  0.00    +0.000 C 
ATOM      9  N   UNL     1      -0.871  11.762  20.920  0.00  0.00    +0.000 N 
ATOM     10  C   UNL     1      -0.717  11.669  22.306  0.00  0.00    +0.000 C 
ATOM     11  O   UNL     1       0.120  10.943  22.840  0.00  0.00    +0.000 OA
ATOM     12  C   UNL     1      -0.164  10.815  19.973  0.00  0.00    +0.000 C 
ENDROOT
BRANCH  10  13
ATOM     13  C   UNL     1      -1.636  12.545  23.156  0.00  0.00    +0.000 C 
BRANCH  13  14
ATOM     14  C   UNL     1      -3.043  12.019  23.292  0.00  0.00    +0.000 C 
ATOM     15  C   UNL     1      -3.967  12.605  24.330  0.00  0.00    +0.000 C 
ATOM     16  C   UNL     1      -4.226  12.855  22.871  0.00  0.00    +0.000 C 
ENDBRANCH  13  14
ENDBRANCH  10  13
BRANCH  12  17
ATOM     17  C   UNL     1       0.227   9.421  20.542  0.00  0.00    +0.000 C 
BRANCH  17  18
ATOM     18  O   UNL     1       1.426   8.838  20.021  0.00  0.00    +0.000 OA
BRANCH  18  19
ATOM     19  C   UNL     1       1.740   7.523  20.463  0.00  0.00    +0.000 C 
BRANCH  19  20
ATOM     20  C   UNL     1       2.540   6.673  19.454  0.00  0.00    +0.000 C 
BRANCH  20  21
ATOM     21  N   UNL     1       2.882   5.328  19.955  0.00  0.00    +0.000 NA
ATOM     22  C   UNL     1       2.940   4.362  18.846  0.00  0.00    +0.000 C 
ATOM     23  C   UNL     1       1.501   3.929  18.648  0.00  0.00    +0.000 C 
ATOM     24  C   UNL     1       0.952   3.893  20.065  0.00  0.00    +0.000 C 
ATOM     25  C   UNL     1       1.850   4.822  20.870  0.00  0.00    +0.000 C 
ENDBRANCH  20  21
ENDBRANCH  19  20
ENDBRANCH  18  19
ENDBRANCH  17  18
ENDBRANCH  12  17
TORSDOF 7
ENDMDL
MODEL 6
REMARK VINA RESULT:      -6.5      2.224      6.559
REMARK  Name = 
REMARK  8 active torsions:
REMARK  status: ('A' for Active; 'I' for Inactive)
REMARK    1  A    between atoms: C_1  and  N_2
REMARK    2  A    between atoms: C_10  and  C_12
REMARK    3  A    between atoms: C_12  and  C_13
REMARK    4  A    between atoms: C_16  and  C_17
REMARK    5  A    between atoms: C_17  and  O_18
REMARK    6  A    between atoms: O_18  and  C_19
REMARK    7  A    between atoms: C_19  and  C_20
REMARK    8  A    between atoms: C_20  and  N_21
REMARK                            x       y       z     vdW  Elec       q    Type
REMARK                         _______ _______ _______ _____ _____    ______ ____
ROOT
ATOM      1  C   UNL     1       1.732   1.724  19.009  0.00  0.00    +0.000 C 
ATOM      2  N   UNL     1       2.046   3.107  19.271  0.00  0.00    +0.000 N 
ATOM      3  N   UNL     1       1.081   3.984  19.596  0.00  0.00    +0.000 NA
ATOM      4  N   UNL     1       1.625   5.199  19.617  0.00  0.00    +0.000 NA
ATOM      5  C   UNL     1       2.934   5.086  19.239  0.00  0.00    +0.000 A 
ATOM      6  C   UNL     1       3.239   3.742  19.133  0.00  0.00    +0.000 A 
ATOM      7  C   UNL     1       4.574   3.199  18.825  0.00  0.00    +0.000 C 
ATOM      8  C   UNL     1       5.581   4.353  19.038  0.00  0.00    +0.000 C 
ATOM      9  N   UNL     1       5.140   5.588  18.348  0.00  0.00    +0.000 N 
ATOM     10  C   UNL     1       5.955   6.252  17.426  0.00  0.00    +0.000 C 
ATOM     11  O   UNL     1       5.812   7.439  17.139  0.00  0.00    +0.000 OA
ATOM     12  C   UNL     1       3.882   6.222  18.903  0.00  0.00    +0.000 C 
ENDROOT
BRANCH  10  13
ATOM     13  C   UNL     1       7.078   5.433  16.791  0.00  0.00    +0.000 C 
BRANCH  13  14
ATOM     14  C   UNL     1       6.832   5.058  15.351  0.00  0.00    +0.000 C 
ATOM     15  C   UNL     1       6.214   3.723  15.018  0.00  0.00    +0.000 C 
ATOM     16  C   UNL     1       5.431   4.986  14.797  0.00  0.00    +0.000 C 
ENDBRANCH  13  14
ENDBRANCH  10  13
BRANCH  12  17
ATOM     17  C   UNL     1       3.202   7.311  18.024  0.00  0.00    +0.000 C 
BRANCH  17  18
ATOM     18  O   UNL     1       2.362   8.245  18.711  0.00  0.00    +0.000 OA
BRANCH  18  19
ATOM     19  C   UNL     1       1.593   9.125  17.901  0.00  0.00    +0.000 C 
BRANCH  19  20
ATOM     20  C   UNL     1       1.309  10.505  18.531  0.00  0.00    +0.000 C 
BRANCH  20  21
ATOM     21  N   UNL     1       0.115  10.525  19.398  0.00  0.00    +0.000 NA
ATOM     22  C   UNL     1      -1.103  10.285  18.607  0.00  0.00    +0.000 C 
ATOM     23  C   UNL     1      -1.470  11.649  18.059  0.00  0.00    +0.000 C 
ATOM     24  C   UNL     1      -1.106  12.589  19.196  0.00  0.00    +0.000 C 
ATOM     25  C   UNL     1      -0.068  11.842  20.022  0.00  0.00    +0.000 C 
ENDBRANCH  20  21
ENDBRANCH  19  20
ENDBRANCH  18  19
ENDBRANCH  17  18
ENDBRANCH  12  17
TORSDOF 7
ENDMDL
MODEL 7
REMARK VINA RESULT:      -6.5      2.376      5.945
REMARK  Name = 
REMARK  8 active torsions:
REMARK  status: ('A' for Active; 'I' for Inactive)
REMARK    1  A    between atoms: C_1  and  N_2
REMARK    2  A    between atoms: C_10  and  C_12
REMARK    3  A    between atoms: C_12  and  C_13
REMARK    4  A    between atoms: C_16  and  C_17
REMARK    5  A    between atoms: C_17  and  O_18
REMARK    6  A    between atoms: O_18  and  C_19
REMARK    7  A    between atoms: C_19  and  C_20
REMARK    8  A    between atoms: C_20  and  N_21
REMARK                            x       y       z     vdW  Elec       q    Type
REMARK                         _______ _______ _______ _____ _____    ______ ____
ROOT
ATOM      1  C   UNL     1       7.766   4.439  16.693  0.00  0.00    +0.000 C 
ATOM      2  N   UNL     1       6.527   5.163  16.553  0.00  0.00    +0.000 N 
ATOM      3  N   UNL     1       6.452   6.263  15.785  0.00  0.00    +0.000 NA
ATOM      4  N   UNL     1       5.253   6.810  15.972  0.00  0.00    +0.000 NA
ATOM      5  C   UNL     1       4.592   6.075  16.916  0.00  0.00    +0.000 A 
ATOM      6  C   UNL     1       5.351   4.956  17.202  0.00  0.00    +0.000 A 
ATOM      7  C   UNL     1       4.948   3.870  18.113  0.00  0.00    +0.000 C 
ATOM      8  C   UNL     1       3.428   4.029  18.347  0.00  0.00    +0.000 C 
ATOM      9  N   UNL     1       3.081   5.424  18.707  0.00  0.00    +0.000 N 
ATOM     10  C   UNL     1       2.377   5.734  19.875  0.00  0.00    +0.000 C 
ATOM     11  O   UNL     1       1.742   6.778  20.017  0.00  0.00    +0.000 OA
ATOM     12  C   UNL     1       3.294   6.445  17.609  0.00  0.00    +0.000 C 
ENDROOT
BRANCH  10  13
ATOM     13  C   UNL     1       2.405   4.687  20.988  0.00  0.00    +0.000 C 
BRANCH  13  14
ATOM     14  C   UNL     1       1.264   3.703  20.941  0.00  0.00    +0.000 C 
ATOM     15  C   UNL     1       1.492   2.315  20.395  0.00  0.00    +0.000 C 
ATOM     16  C   UNL     1       1.233   2.509  21.862  0.00  0.00    +0.000 C 
ENDBRANCH  13  14
ENDBRANCH  10  13
BRANCH  12  17
ATOM     17  C   UNL     1       3.263   7.942  18.032  0.00  0.00    +0.000 C 
BRANCH  17  18
ATOM     18  O   UNL     1       2.338   8.779  17.329  0.00  0.00    +0.000 OA
BRANCH  18  19
ATOM     19  C   UNL     1       1.955   9.987  17.974  0.00  0.00    +0.000 C 
BRANCH  19  20
ATOM     20  C   UNL     1       0.548   9.966  18.608  0.00  0.00    +0.000 C 
BRANCH  20  21
ATOM     21  N   UNL     1       0.271  11.132  19.469  0.00  0.00    +0.000 NA
ATOM     22  C   UNL     1      -1.174  11.254  19.724  0.00  0.00    +0.000 C 
ATOM     23  C   UNL     1      -1.705  12.008  18.522  0.00  0.00    +0.000 C 
ATOM     24  C   UNL     1      -0.591  12.993  18.209  0.00  0.00    +0.000 C 
ATOM     25  C   UNL     1       0.668  12.385  18.813  0.00  0.00    +0.000 C 
ENDBRANCH  20  21
ENDBRANCH  19  20
ENDBRANCH  18  19
ENDBRANCH  17  18
ENDBRANCH  12  17
TORSDOF 7
ENDMDL
MODEL 8
REMARK VINA RESULT:      -6.4      3.554      6.498
REMARK  Name = 
REMARK  8 active torsions:
REMARK  status: ('A' for Active; 'I' for Inactive)
REMARK    1  A    between atoms: C_1  and  N_2
REMARK    2  A    between atoms: C_10  and  C_12
REMARK    3  A    between atoms: C_12  and  C_13
REMARK    4  A    between atoms: C_16  and  C_17
REMARK    5  A    between atoms: C_17  and  O_18
REMARK    6  A    between atoms: O_18  and  C_19
REMARK    7  A    between atoms: C_19  and  C_20
REMARK    8  A    between atoms: C_20  and  N_21
REMARK                            x       y       z     vdW  Elec       q    Type
REMARK                         _______ _______ _______ _____ _____    ______ ____
ROOT
ATOM      1  C   UNL     1       6.397   3.394  13.003  0.00  0.00    +0.000 C 
ATOM      2  N   UNL     1       6.551   4.394  14.030  0.00  0.00    +0.000 N 
ATOM      3  N   UNL     1       7.540   5.300  13.969  0.00  0.00    +0.000 NA
ATOM      4  N   UNL     1       7.541   5.980  15.114  0.00  0.00    +0.000 NA
ATOM      5  C   UNL     1       6.578   5.449  15.926  0.00  0.00    +0.000 A 
ATOM      6  C   UNL     1       5.864   4.517  15.196  0.00  0.00    +0.000 A 
ATOM      7  C   UNL     1       4.688   3.778  15.688  0.00  0.00    +0.000 C 
ATOM      8  C   UNL     1       4.203   4.513  16.959  0.00  0.00    +0.000 C 
ATOM      9  N   UNL     1       5.323   4.769  17.895  0.00  0.00    +0.000 N 
ATOM     10  C   UNL     1       5.290   4.340  19.225  0.00  0.00    +0.000 C 
ATOM     11  O   UNL     1       5.976   4.847  20.110  0.00  0.00    +0.000 OA
ATOM     12  C   UNL     1       6.367   5.748  17.398  0.00  0.00    +0.000 C 
ENDROOT
BRANCH  10  13
ATOM     13  C   UNL     1       4.322   3.204  19.552  0.00  0.00    +0.000 C 
BRANCH  13  14
ATOM     14  C   UNL     1       3.026   3.655  20.178  0.00  0.00    +0.000 C 
ATOM     15  C   UNL     1       1.773   2.837  19.983  0.00  0.00    +0.000 C 
ATOM     16  C   UNL     1       2.421   2.902  21.336  0.00  0.00    +0.000 C 
ENDBRANCH  13  14
ENDBRANCH  10  13
BRANCH  12  17
ATOM     17  C   UNL     1       7.708   5.797  18.184  0.00  0.00    +0.000 C 
BRANCH  17  18
ATOM     18  O   UNL     1       8.028   7.043  18.813  0.00  0.00    +0.000 OA
BRANCH  18  19
ATOM     19  C   UNL     1       8.301   8.141  17.952  0.00  0.00    +0.000 C 
BRANCH  19  20
ATOM     20  C   UNL     1       8.298   9.522  18.640  0.00  0.00    +0.000 C 
BRANCH  20  21
ATOM     21  N   UNL     1       9.641  10.119  18.773  0.00  0.00    +0.000 NA
ATOM     22  C   UNL     1       9.757  10.855  20.043  0.00  0.00    +0.000 C 
ATOM     23  C   UNL     1       9.173  12.220  19.741  0.00  0.00    +0.000 C 
ATOM     24  C   UNL     1       9.622  12.482  18.313  0.00  0.00    +0.000 C 
ATOM     25  C   UNL     1       9.891  11.107  17.715  0.00  0.00    +0.000 C 
ENDBRANCH  20  21
ENDBRANCH  19  20
ENDBRANCH  18  19
ENDBRANCH  17  18
ENDBRANCH  12  17
TORSDOF 7
ENDMDL
MODEL 9
REMARK VINA RESULT:      -6.4      2.312      6.817
REMARK  Name = 
REMARK  8 active torsions:
REMARK  status: ('A' for Active; 'I' for Inactive)
REMARK    1  A    between atoms: C_1  and  N_2
REMARK    2  A    between atoms: C_10  and  C_12
REMARK    3  A    between atoms: C_12  and  C_13
REMARK    4  A    between atoms: C_16  and  C_17
REMARK    5  A    between atoms: C_17  and  O_18
REMARK    6  A    between atoms: O_18  and  C_19
REMARK    7  A    between atoms: C_19  and  C_20
REMARK    8  A    between atoms: C_20  and  N_21
REMARK                            x       y       z     vdW  Elec       q    Type
REMARK                         _______ _______ _______ _____ _____    ______ ____
ROOT
ATOM      1  C   UNL     1       1.466   2.567  20.588  0.00  0.00    +0.000 C 
ATOM      2  N   UNL     1       2.040   3.869  20.363  0.00  0.00    +0.000 N 
ATOM      3  N   UNL     1       1.427   4.980  20.805  0.00  0.00    +0.000 NA
ATOM      4  N   UNL     1       2.085   6.030  20.318  0.00  0.00    +0.000 NA
ATOM      5  C   UNL     1       3.087   5.569  19.512  0.00  0.00    +0.000 A 
ATOM      6  C   UNL     1       3.138   4.192  19.631  0.00  0.00    +0.000 A 
ATOM      7  C   UNL     1       4.136   3.323  18.981  0.00  0.00    +0.000 C 
ATOM      8  C   UNL     1       5.282   4.245  18.504  0.00  0.00    +0.000 C 
ATOM      9  N   UNL     1       4.761   5.411  17.754  0.00  0.00    +0.000 N 
ATOM     10  C   UNL     1       5.194   5.713  16.459  0.00  0.00    +0.000 C 
ATOM     11  O   UNL     1       5.102   6.835  15.966  0.00  0.00    +0.000 OA
ATOM     12  C   UNL     1       3.947   6.393  18.572  0.00  0.00    +0.000 C 
ENDROOT
BRANCH  10  13
ATOM     13  C   UNL     1       5.826   4.569  15.667  0.00  0.00    +0.000 C 
BRANCH  13  14
ATOM     14  C   UNL     1       5.851   4.788  14.175  0.00  0.00    +0.000 C 
ATOM     15  C   UNL     1       7.168   4.803  13.439  0.00  0.00    +0.000 C 
ATOM     16  C   UNL     1       6.208   3.666  13.233  0.00  0.00    +0.000 C 
ENDBRANCH  13  14
ENDBRANCH  10  13
BRANCH  12  17
ATOM     17  C   UNL     1       3.112   7.439  17.780  0.00  0.00    +0.000 C 
BRANCH  17  18
ATOM     18  O   UNL     1       2.202   8.235  18.547  0.00  0.00    +0.000 OA
BRANCH  18  19
ATOM     19  C   UNL     1       1.493   9.248  17.845  0.00  0.00    +0.000 C 
BRANCH  19  20
ATOM     20  C   UNL     1       0.552  10.105  18.717  0.00  0.00    +0.000 C 
BRANCH  20  21
ATOM     21  N   UNL     1       1.180  10.592  19.961  0.00  0.00    +0.000 NA
ATOM     22  C   UNL     1       0.440  10.107  21.138  0.00  0.00    +0.000 C 
ATOM     23  C   UNL     1      -0.688  11.104  21.310  0.00  0.00    +0.000 C 
ATOM     24  C   UNL     1      -0.044  12.426  20.926  0.00  0.00    +0.000 C 
ATOM     25  C   UNL     1       1.138  12.058  20.040  0.00  0.00    +0.000 C 
ENDBRANCH  20  21
ENDBRANCH  19  20
ENDBRANCH  18  19
ENDBRANCH  17  18
ENDBRANCH  12  17
TORSDOF 7
ENDMDL
