MODEL 1
REMARK VINA RESULT:      -7.0      0.000      0.000
REMARK  Name = 
REMARK  9 active torsions:
REMARK  status: ('A' for Active; 'I' for Inactive)
REMARK    1  A    between atoms: C_1  and  C_2
REMARK    2  A    between atoms: C_2  and  O_3
REMARK    3  A    between atoms: O_3  and  C_4
REMARK    4  A    between atoms: C_4  and  C_6
REMARK    5  A    between atoms: C_12  and  N_13
REMARK    6  A    between atoms: N_13  and  C_14
REMARK    7  A    between atoms: N_13  and  C_15
REMARK    8  A    between atoms: C_18  and  O_19
REMARK    9  A    between atoms: O_19  and  C_20
REMARK                            x       y       z     vdW  Elec       q    Type
REMARK                         _______ _______ _______ _____ _____    ______ ____
ROOT
ATOM      1  C   UNL     1       6.698   4.913  16.615  0.00  0.00    +0.000 A 
ATOM      2  C   UNL     1       7.521   4.946  15.471  0.00  0.00    +0.000 A 
ATOM      3  C   UNL     1       7.013   4.600  14.231  0.00  0.00    +0.000 A 
ATOM      4  C   UNL     1       5.689   4.231  14.180  0.00  0.00    +0.000 A 
ATOM      5 CL   UNL     1       4.980   3.735  12.699  0.00  0.00    +0.000 Cl
ATOM      6  N   UNL     1       4.862   4.190  15.246  0.00  0.00    +0.000 NA
ATOM      7  C   UNL     1       5.347   4.526  16.476  0.00  0.00    +0.000 A 
ENDROOT
BRANCH   1   8
ATOM      8  C   UNL     1       7.350   5.131  17.932  0.00  0.00    +0.000 C 
ATOM      9  O   UNL     1       8.123   4.363  18.482  0.00  0.00    +0.000 OA
BRANCH   8  10
ATOM     10  O   UNL     1       7.036   6.375  18.386  0.00  0.00    +0.000 OA
BRANCH  10  12
ATOM     11  C   UNL     1       7.839   8.536  17.586  0.00  0.00    +0.000 C 
ATOM     12  C   UNL     1       8.121   7.312  18.443  0.00  0.00    +0.000 C 
ENDBRANCH  10  12
ENDBRANCH   8  10
ENDBRANCH   1   8
BRANCH   7  13
ATOM     13  N   UNL     1       4.463   4.423  17.574  0.00  0.00    +0.000 N 
ATOM     14  C   UNL     1       3.922   3.076  17.830  0.00  0.00    +0.000 C 
BRANCH  13  15
ATOM     15  C   UNL     1       3.642   5.440  18.130  0.00  0.00    +0.000 A 
ATOM     16  C   UNL     1       2.921   5.255  19.318  0.00  0.00    +0.000 A 
ATOM     17  C   UNL     1       2.208   6.315  19.895  0.00  0.00    +0.000 A 
ATOM     18  C   UNL     1       2.208   7.578  19.302  0.00  0.00    +0.000 A 
ATOM     19  C   UNL     1       2.846   7.758  18.082  0.00  0.00    +0.000 A 
ATOM     20  C   UNL     1       3.549   6.698  17.506  0.00  0.00    +0.000 A 
BRANCH  18  21
ATOM     21  O   UNL     1       1.541   8.559  19.983  0.00  0.00    +0.000 OA
ATOM     22  C   UNL     1       1.147   8.204  21.306  0.00  0.00    +0.000 C 
ENDBRANCH  18  21
ENDBRANCH  13  15
ENDBRANCH   7  13
TORSDOF 6
ENDMDL
MODEL 2
REMARK VINA RESULT:      -6.7      0.718      1.320
REMARK  Name = 
REMARK  9 active torsions:
REMARK  status: ('A' for Active; 'I' for Inactive)
REMARK    1  A    between atoms: C_1  and  C_2
REMARK    2  A    between atoms: C_2  and  O_3
REMARK    3  A    between atoms: O_3  and  C_4
REMARK    4  A    between atoms: C_4  and  C_6
REMARK    5  A    between atoms: C_12  and  N_13
REMARK    6  A    between atoms: N_13  and  C_14
REMARK    7  A    between atoms: N_13  and  C_15
REMARK    8  A    between atoms: C_18  and  O_19
REMARK    9  A    between atoms: O_19  and  C_20
REMARK                            x       y       z     vdW  Elec       q    Type
REMARK                         _______ _______ _______ _____ _____    ______ ____
ROOT
ATOM      1  C   UNL     1       6.585   4.977  16.499  0.00  0.00    +0.000 A 
ATOM      2  C   UNL     1       7.427   4.893  15.371  0.00  0.00    +0.000 A 
ATOM      3  C   UNL     1       6.921   4.500  14.145  0.00  0.00    +0.000 A 
ATOM      4  C   UNL     1       5.579   4.205  14.089  0.00  0.00    +0.000 A 
ATOM      5 CL   UNL     1       4.867   3.660  12.628  0.00  0.00    +0.000 Cl
ATOM      6  N   UNL     1       4.733   4.276  15.140  0.00  0.00    +0.000 NA
ATOM      7  C   UNL     1       5.217   4.659  16.357  0.00  0.00    +0.000 A 
ENDROOT
BRANCH   1   8
ATOM      8  C   UNL     1       7.227   5.238  17.813  0.00  0.00    +0.000 C 
ATOM      9  O   UNL     1       8.033   4.510  18.372  0.00  0.00    +0.000 OA
BRANCH   8  10
ATOM     10  O   UNL     1       6.858   6.472  18.254  0.00  0.00    +0.000 OA
BRANCH  10  12
ATOM     11  C   UNL     1       8.262   8.452  18.010  0.00  0.00    +0.000 C 
ATOM     12  C   UNL     1       7.191   7.569  17.390  0.00  0.00    +0.000 C 
ENDBRANCH  10  12
ENDBRANCH   8  10
ENDBRANCH   1   8
BRANCH   7  13
ATOM     13  N   UNL     1       4.310   4.674  17.441  0.00  0.00    +0.000 N 
ATOM     14  C   UNL     1       3.558   3.424  17.658  0.00  0.00    +0.000 C 
BRANCH  13  15
ATOM     15  C   UNL     1       3.651   5.796  18.011  0.00  0.00    +0.000 A 
ATOM     16  C   UNL     1       3.531   7.017  17.335  0.00  0.00    +0.000 A 
ATOM     17  C   UNL     1       2.781   8.068  17.882  0.00  0.00    +0.000 A 
ATOM     18  C   UNL     1       2.133   7.916  19.108  0.00  0.00    +0.000 A 
ATOM     19  C   UNL     1       2.311   6.744  19.831  0.00  0.00    +0.000 A 
ATOM     20  C   UNL     1       3.065   5.702  19.287  0.00  0.00    +0.000 A 
BRANCH  18  21
ATOM     21  O   UNL     1       1.370   8.975  19.518  0.00  0.00    +0.000 OA
ATOM     22  C   UNL     1       1.105   9.945  18.507  0.00  0.00    +0.000 C 
ENDBRANCH  18  21
ENDBRANCH  13  15
ENDBRANCH   7  13
TORSDOF 6
ENDMDL
MODEL 3
REMARK VINA RESULT:      -6.6      1.798      2.519
REMARK  Name = 
REMARK  9 active torsions:
REMARK  status: ('A' for Active; 'I' for Inactive)
REMARK    1  A    between atoms: C_1  and  C_2
REMARK    2  A    between atoms: C_2  and  O_3
REMARK    3  A    between atoms: O_3  and  C_4
REMARK    4  A    between atoms: C_4  and  C_6
REMARK    5  A    between atoms: C_12  and  N_13
REMARK    6  A    between atoms: N_13  and  C_14
REMARK    7  A    between atoms: N_13  and  C_15
REMARK    8  A    between atoms: C_18  and  O_19
REMARK    9  A    between atoms: O_19  and  C_20
REMARK                            x       y       z     vdW  Elec       q    Type
REMARK                         _______ _______ _______ _____ _____    ______ ____
ROOT
ATOM      1  C   UNL     1       6.379   5.350  17.014  0.00  0.00    +0.000 A 
ATOM      2  C   UNL     1       7.393   4.729  16.256  0.00  0.00    +0.000 A 
ATOM      3  C   UNL     1       7.119   4.225  14.996  0.00  0.00    +0.000 A 
ATOM      4  C   UNL     1       5.831   4.363  14.536  0.00  0.00    +0.000 A 
ATOM      5 CL   UNL     1       5.379   3.725  13.010  0.00  0.00    +0.000 Cl
ATOM      6  N   UNL     1       4.830   4.954  15.222  0.00  0.00    +0.000 NA
ATOM      7  C   UNL     1       5.082   5.454  16.466  0.00  0.00    +0.000 A 
ENDROOT
BRANCH   1   8
ATOM      8  C   UNL     1       6.701   5.712  18.418  0.00  0.00    +0.000 C 
ATOM      9  O   UNL     1       6.193   5.226  19.416  0.00  0.00    +0.000 OA
BRANCH   8  10
ATOM     10  O   UNL     1       7.733   6.601  18.425  0.00  0.00    +0.000 OA
BRANCH  10  12
ATOM     11  C   UNL     1       8.334   8.949  18.150  0.00  0.00    +0.000 C 
ATOM     12  C   UNL     1       7.565   7.760  17.597  0.00  0.00    +0.000 C 
ENDBRANCH  10  12
ENDBRANCH   8  10
ENDBRANCH   1   8
BRANCH   7  13
ATOM     13  N   UNL     1       3.996   6.021  17.172  0.00  0.00    +0.000 N 
ATOM     14  C   UNL     1       4.086   7.472  17.418  0.00  0.00    +0.000 C 
BRANCH  13  15
ATOM     15  C   UNL     1       3.124   5.379  18.091  0.00  0.00    +0.000 A 
ATOM     16  C   UNL     1       2.599   4.100  17.859  0.00  0.00    +0.000 A 
ATOM     17  C   UNL     1       1.829   3.454  18.836  0.00  0.00    +0.000 A 
ATOM     18  C   UNL     1       1.577   4.067  20.063  0.00  0.00    +0.000 A 
ATOM     19  C   UNL     1       2.017   5.367  20.278  0.00  0.00    +0.000 A 
ATOM     20  C   UNL     1       2.776   6.011  19.300  0.00  0.00    +0.000 A 
BRANCH  18  21
ATOM     21  O   UNL     1       0.877   3.322  20.973  0.00  0.00    +0.000 OA
ATOM     22  C   UNL     1       1.677   2.456  21.776  0.00  0.00    +0.000 C 
ENDBRANCH  18  21
ENDBRANCH  13  15
ENDBRANCH   7  13
TORSDOF 6
ENDMDL
MODEL 4
REMARK VINA RESULT:      -6.5      3.286      6.387
REMARK  Name = 
REMARK  9 active torsions:
REMARK  status: ('A' for Active; 'I' for Inactive)
REMARK    1  A    between atoms: C_1  and  C_2
REMARK    2  A    between atoms: C_2  and  O_3
REMARK    3  A    between atoms: O_3  and  C_4
REMARK    4  A    between atoms: C_4  and  C_6
REMARK    5  A    between atoms: C_12  and  N_13
REMARK    6  A    between atoms: N_13  and  C_14
REMARK    7  A    between atoms: N_13  and  C_15
REMARK    8  A    between atoms: C_18  and  O_19
REMARK    9  A    between atoms: O_19  and  C_20
REMARK                            x       y       z     vdW  Elec       q    Type
REMARK                         _______ _______ _______ _____ _____    ______ ____
ROOT
ATOM      1  C   UNL     1       3.464   4.048  19.944  0.00  0.00    +0.000 A 
ATOM      2  C   UNL     1       2.213   4.313  20.538  0.00  0.00    +0.000 A 
ATOM      3  C   UNL     1       1.663   5.581  20.481  0.00  0.00    +0.000 A 
ATOM      4  C   UNL     1       2.390   6.547  19.824  0.00  0.00    +0.000 A 
ATOM      5 CL   UNL     1       1.819   8.162  19.744  0.00  0.00    +0.000 Cl
ATOM      6  N   UNL     1       3.587   6.339  19.236  0.00  0.00    +0.000 NA
ATOM      7  C   UNL     1       4.144   5.095  19.286  0.00  0.00    +0.000 A 
ENDROOT
BRANCH   1   8
ATOM      8  C   UNL     1       4.068   2.713  20.191  0.00  0.00    +0.000 C 
ATOM      9  O   UNL     1       4.184   2.172  21.279  0.00  0.00    +0.000 OA
BRANCH   8  10
ATOM     10  O   UNL     1       4.380   2.136  18.998  0.00  0.00    +0.000 OA
BRANCH  10  12
ATOM     11  C   UNL     1       2.436   2.115  17.523  0.00  0.00    +0.000 C 
ATOM     12  C   UNL     1       3.361   1.307  18.420  0.00  0.00    +0.000 C 
ENDBRANCH  10  12
ENDBRANCH   8  10
ENDBRANCH   1   8
BRANCH   7  13
ATOM     13  N   UNL     1       5.421   4.930  18.701  0.00  0.00    +0.000 N 
ATOM     14  C   UNL     1       6.558   5.393  19.516  0.00  0.00    +0.000 C 
BRANCH  13  15
ATOM     15  C   UNL     1       5.745   4.875  17.318  0.00  0.00    +0.000 A 
ATOM     16  C   UNL     1       7.055   5.045  16.849  0.00  0.00    +0.000 A 
ATOM     17  C   UNL     1       7.356   4.877  15.490  0.00  0.00    +0.000 A 
ATOM     18  C   UNL     1       6.358   4.528  14.579  0.00  0.00    +0.000 A 
ATOM     19  C   UNL     1       5.042   4.440  15.011  0.00  0.00    +0.000 A 
ATOM     20  C   UNL     1       4.744   4.616  16.364  0.00  0.00    +0.000 A 
BRANCH  18  21
ATOM     21  O   UNL     1       6.770   4.319  13.291  0.00  0.00    +0.000 OA
ATOM     22  C   UNL     1       5.985   3.379  12.560  0.00  0.00    +0.000 C 
ENDBRANCH  18  21
ENDBRANCH  13  15
ENDBRANCH   7  13
TORSDOF 6
ENDMDL
MODEL 5
REMARK VINA RESULT:      -6.5      1.780      2.560
REMARK  Name = 
REMARK  9 active torsions:
REMARK  status: ('A' for Active; 'I' for Inactive)
REMARK    1  A    between atoms: C_1  and  C_2
REMARK    2  A    between atoms: C_2  and  O_3
REMARK    3  A    between atoms: O_3  and  C_4
REMARK    4  A    between atoms: C_4  and  C_6
REMARK    5  A    between atoms: C_12  and  N_13
REMARK    6  A    between atoms: N_13  and  C_14
REMARK    7  A    between atoms: N_13  and  C_15
REMARK    8  A    between atoms: C_18  and  O_19
REMARK    9  A    between atoms: O_19  and  C_20
REMARK                            x       y       z     vdW  Elec       q    Type
REMARK                         _______ _______ _______ _____ _____    ______ ____
ROOT
ATOM      1  C   UNL     1       6.487   5.364  16.908  0.00  0.00    +0.000 A 
ATOM      2  C   UNL     1       7.491   4.825  16.077  0.00  0.00    +0.000 A 
ATOM      3  C   UNL     1       7.175   4.333  14.823  0.00  0.00    +0.000 A 
ATOM      4  C   UNL     1       5.856   4.400  14.441  0.00  0.00    +0.000 A 
ATOM      5 CL   UNL     1       5.355   3.769  12.927  0.00  0.00    +0.000 Cl
ATOM      6  N   UNL     1       4.862   4.911  15.198  0.00  0.00    +0.000 NA
ATOM      7  C   UNL     1       5.156   5.398  16.438  0.00  0.00    +0.000 A 
ENDROOT
BRANCH   1   8
ATOM      8  C   UNL     1       6.868   5.715  18.300  0.00  0.00    +0.000 C 
ATOM      9  O   UNL     1       6.438   5.185  19.313  0.00  0.00    +0.000 OA
BRANCH   8  10
ATOM     10  O   UNL     1       7.855   6.652  18.271  0.00  0.00    +0.000 OA
BRANCH  10  12
ATOM     11  C   UNL     1       8.349   9.038  18.154  0.00  0.00    +0.000 C 
ATOM     12  C   UNL     1       7.530   7.880  17.604  0.00  0.00    +0.000 C 
ENDBRANCH  10  12
ENDBRANCH   8  10
ENDBRANCH   1   8
BRANCH   7  13
ATOM     13  N   UNL     1       4.080   5.879  17.219  0.00  0.00    +0.000 N 
ATOM     14  C   UNL     1       4.046   7.339  17.423  0.00  0.00    +0.000 C 
BRANCH  13  15
ATOM     15  C   UNL     1       3.353   5.185  18.223  0.00  0.00    +0.000 A 
ATOM     16  C   UNL     1       2.826   5.832  19.349  0.00  0.00    +0.000 A 
ATOM     17  C   UNL     1       2.022   5.137  20.264  0.00  0.00    +0.000 A 
ATOM     18  C   UNL     1       1.723   3.789  20.066  0.00  0.00    +0.000 A 
ATOM     19  C   UNL     1       2.306   3.111  19.003  0.00  0.00    +0.000 A 
ATOM     20  C   UNL     1       3.112   3.804  18.099  0.00  0.00    +0.000 A 
BRANCH  18  21
ATOM     21  O   UNL     1       0.873   3.224  20.977  0.00  0.00    +0.000 OA
ATOM     22  C   UNL     1       1.512   2.429  21.974  0.00  0.00    +0.000 C 
ENDBRANCH  18  21
ENDBRANCH  13  15
ENDBRANCH   7  13
TORSDOF 6
ENDMDL
MODEL 6
REMARK VINA RESULT:      -6.5      2.883      4.394
REMARK  Name = 
REMARK  9 active torsions:
REMARK  status: ('A' for Active; 'I' for Inactive)
REMARK    1  A    between atoms: C_1  and  C_2
REMARK    2  A    between atoms: C_2  and  O_3
REMARK    3  A    between atoms: O_3  and  C_4
REMARK    4  A    between atoms: C_4  and  C_6
REMARK    5  A    between atoms: C_12  and  N_13
REMARK    6  A    between atoms: N_13  and  C_14
REMARK    7  A    between atoms: N_13  and  C_15
REMARK    8  A    between atoms: C_18  and  O_19
REMARK    9  A    between atoms: O_19  and  C_20
REMARK                            x       y       z     vdW  Elec       q    Type
REMARK                         _______ _______ _______ _____ _____    ______ ____
ROOT
ATOM      1  C   UNL     1       3.546   4.485  17.468  0.00  0.00    +0.000 A 
ATOM      2  C   UNL     1       4.421   4.040  16.456  0.00  0.00    +0.000 A 
ATOM      3  C   UNL     1       5.675   4.606  16.312  0.00  0.00    +0.000 A 
ATOM      4  C   UNL     1       6.013   5.605  17.195  0.00  0.00    +0.000 A 
ATOM      5 CL   UNL     1       7.523   6.407  17.066  0.00  0.00    +0.000 Cl
ATOM      6  N   UNL     1       5.212   6.060  18.182  0.00  0.00    +0.000 NA
ATOM      7  C   UNL     1       3.972   5.514  18.336  0.00  0.00    +0.000 A 
ENDROOT
BRANCH   1   8
ATOM      8  C   UNL     1       2.160   3.953  17.455  0.00  0.00    +0.000 C 
ATOM      9  O   UNL     1       1.139   4.619  17.378  0.00  0.00    +0.000 OA
BRANCH   8  10
ATOM     10  O   UNL     1       2.203   2.592  17.435  0.00  0.00    +0.000 OA
BRANCH  10  12
ATOM     11  C   UNL     1       3.725   1.179  18.715  0.00  0.00    +0.000 C 
ATOM     12  C   UNL     1       2.418   1.955  18.703  0.00  0.00    +0.000 C 
ENDBRANCH  10  12
ENDBRANCH   8  10
ENDBRANCH   1   8
BRANCH   7  13
ATOM     13  N   UNL     1       3.146   6.052  19.349  0.00  0.00    +0.000 N 
ATOM     14  C   UNL     1       2.626   5.080  20.328  0.00  0.00    +0.000 C 
BRANCH  13  15
ATOM     15  C   UNL     1       2.348   7.226  19.292  0.00  0.00    +0.000 A 
ATOM     16  C   UNL     1       1.700   7.748  20.420  0.00  0.00    +0.000 A 
ATOM     17  C   UNL     1       1.011   8.966  20.350  0.00  0.00    +0.000 A 
ATOM     18  C   UNL     1       0.963   9.689  19.158  0.00  0.00    +0.000 A 
ATOM     19  C   UNL     1       1.525   9.146  18.010  0.00  0.00    +0.000 A 
ATOM     20  C   UNL     1       2.204   7.928  18.081  0.00  0.00    +0.000 A 
BRANCH  18  21
ATOM     21  O   UNL     1       0.326  10.898  19.215  0.00  0.00    +0.000 OA
ATOM     22  C   UNL     1       1.193  12.030  19.187  0.00  0.00    +0.000 C 
ENDBRANCH  18  21
ENDBRANCH  13  15
ENDBRANCH   7  13
TORSDOF 6
ENDMDL
MODEL 7
REMARK VINA RESULT:      -6.5      2.913      6.495
REMARK  Name = 
REMARK  9 active torsions:
REMARK  status: ('A' for Active; 'I' for Inactive)
REMARK    1  A    between atoms: C_1  and  C_2
REMARK    2  A    between atoms: C_2  and  O_3
REMARK    3  A    between atoms: O_3  and  C_4
REMARK    4  A    between atoms: C_4  and  C_6
REMARK    5  A    between atoms: C_12  and  N_13
REMARK    6  A    between atoms: N_13  and  C_14
REMARK    7  A    between atoms: N_13  and  C_15
REMARK    8  A    between atoms: C_18  and  O_19
REMARK    9  A    between atoms: O_19  and  C_20
REMARK                            x       y       z     vdW  Elec       q    Type
REMARK                         _______ _______ _______ _____ _____    ______ ____
ROOT
ATOM      1  C   UNL     1       3.917   5.142  18.352  0.00  0.00    +0.000 A 
ATOM      2  C   UNL     1       2.722   5.512  19.001  0.00  0.00    +0.000 A 
ATOM      3  C   UNL     1       2.194   6.780  18.833  0.00  0.00    +0.000 A 
ATOM      4  C   UNL     1       2.886   7.640  18.013  0.00  0.00    +0.000 A 
ATOM      5 CL   UNL     1       2.342   9.249  17.781  0.00  0.00    +0.000 Cl
ATOM      6  N   UNL     1       4.030   7.330  17.366  0.00  0.00    +0.000 NA
ATOM      7  C   UNL     1       4.565   6.084  17.523  0.00  0.00    +0.000 A 
ENDROOT
BRANCH   1   8
ATOM      8  C   UNL     1       4.513   3.830  18.711  0.00  0.00    +0.000 C 
ATOM      9  O   UNL     1       5.409   3.650  19.521  0.00  0.00    +0.000 OA
BRANCH   8  10
ATOM     10  O   UNL     1       3.830   2.839  18.074  0.00  0.00    +0.000 OA
BRANCH  10  12
ATOM     11  C   UNL     1       1.639   2.062  18.812  0.00  0.00    +0.000 C 
ATOM     12  C   UNL     1       3.147   1.906  18.923  0.00  0.00    +0.000 C 
ENDBRANCH  10  12
ENDBRANCH   8  10
ENDBRANCH   1   8
BRANCH   7  13
ATOM     13  N   UNL     1       5.788   5.815  16.868  0.00  0.00    +0.000 N 
ATOM     14  C   UNL     1       6.927   6.659  17.276  0.00  0.00    +0.000 C 
BRANCH  13  15
ATOM     15  C   UNL     1       5.981   5.250  15.579  0.00  0.00    +0.000 A 
ATOM     16  C   UNL     1       7.170   5.418  14.857  0.00  0.00    +0.000 A 
ATOM     17  C   UNL     1       7.367   4.757  13.637  0.00  0.00    +0.000 A 
ATOM     18  C   UNL     1       6.385   3.911  13.120  0.00  0.00    +0.000 A 
ATOM     19  C   UNL     1       5.168   3.800  13.778  0.00  0.00    +0.000 A 
ATOM     20  C   UNL     1       4.972   4.466  14.990  0.00  0.00    +0.000 A 
BRANCH  18  21
ATOM     21  O   UNL     1       6.705   3.260  11.960  0.00  0.00    +0.000 OA
ATOM     22  C   UNL     1       5.806   2.215  11.597  0.00  0.00    +0.000 C 
ENDBRANCH  18  21
ENDBRANCH  13  15
ENDBRANCH   7  13
TORSDOF 6
ENDMDL
MODEL 8
REMARK VINA RESULT:      -6.4      2.222      2.726
REMARK  Name = 
REMARK  9 active torsions:
REMARK  status: ('A' for Active; 'I' for Inactive)
REMARK    1  A    between atoms: C_1  and  C_2
REMARK    2  A    between atoms: C_2  and  O_3
REMARK    3  A    between atoms: O_3  and  C_4
REMARK    4  A    between atoms: C_4  and  C_6
REMARK    5  A    between atoms: C_12  and  N_13
REMARK    6  A    between atoms: N_13  and  C_14
REMARK    7  A    between atoms: N_13  and  C_15
REMARK    8  A    between atoms: C_18  and  O_19
REMARK    9  A    between atoms: O_19  and  C_20
REMARK                            x       y       z     vdW  Elec       q    Type
REMARK                         _______ _______ _______ _____ _____    ______ ____
ROOT
ATOM      1  C   UNL     1       6.639   5.400  15.973  0.00  0.00    +0.000 A 
ATOM      2  C   UNL     1       7.539   5.028  14.954  0.00  0.00    +0.000 A 
ATOM      3  C   UNL     1       7.081   4.408  13.805  0.00  0.00    +0.000 A 
ATOM      4  C   UNL     1       5.727   4.183  13.715  0.00  0.00    +0.000 A 
ATOM      5 CL   UNL     1       5.067   3.374  12.355  0.00  0.00    +0.000 Cl
ATOM      6  N   UNL     1       4.828   4.526  14.662  0.00  0.00    +0.000 NA
ATOM      7  C   UNL     1       5.263   5.135  15.802  0.00  0.00    +0.000 A 
ENDROOT
BRANCH   1   8
ATOM      8  C   UNL     1       7.218   5.903  17.245  0.00  0.00    +0.000 C 
ATOM      9  O   UNL     1       7.383   5.249  18.264  0.00  0.00    +0.000 OA
BRANCH   8  10
ATOM     10  O   UNL     1       7.639   7.186  17.069  0.00  0.00    +0.000 OA
BRANCH  10  12
ATOM     11  C   UNL     1       8.282   9.338  18.020  0.00  0.00    +0.000 C 
ATOM     12  C   UNL     1       8.158   7.839  18.237  0.00  0.00    +0.000 C 
ENDBRANCH  10  12
ENDBRANCH   8  10
ENDBRANCH   1   8
BRANCH   7  13
ATOM     13  N   UNL     1       4.297   5.433  16.789  0.00  0.00    +0.000 N 
ATOM     14  C   UNL     1       4.335   6.807  17.322  0.00  0.00    +0.000 C 
BRANCH  13  15
ATOM     15  C   UNL     1       3.660   4.534  17.686  0.00  0.00    +0.000 A 
ATOM     16  C   UNL     1       4.268   4.103  18.873  0.00  0.00    +0.000 A 
ATOM     17  C   UNL     1       3.568   3.302  19.786  0.00  0.00    +0.000 A 
ATOM     18  C   UNL     1       2.249   2.924  19.535  0.00  0.00    +0.000 A 
ATOM     19  C   UNL     1       1.660   3.269  18.326  0.00  0.00    +0.000 A 
ATOM     20  C   UNL     1       2.362   4.061  17.415  0.00  0.00    +0.000 A 
BRANCH  18  21
ATOM     21  O   UNL     1       1.635   2.202  20.522  0.00  0.00    +0.000 OA
ATOM     22  C   UNL     1       1.753   2.760  21.829  0.00  0.00    +0.000 C 
ENDBRANCH  18  21
ENDBRANCH  13  15
ENDBRANCH   7  13
TORSDOF 6
ENDMDL
MODEL 9
REMARK VINA RESULT:      -6.4      3.021      4.770
REMARK  Name = 
REMARK  9 active torsions:
REMARK  status: ('A' for Active; 'I' for Inactive)
REMARK    1  A    between atoms: C_1  and  C_2
REMARK    2  A    between atoms: C_2  and  O_3
REMARK    3  A    between atoms: O_3  and  C_4
REMARK    4  A    between atoms: C_4  and  C_6
REMARK    5  A    between atoms: C_12  and  N_13
REMARK    6  A    between atoms: N_13  and  C_14
REMARK    7  A    between atoms: N_13  and  C_15
REMARK    8  A    between atoms: C_18  and  O_19
REMARK    9  A    between atoms: O_19  and  C_20
REMARK                            x       y       z     vdW  Elec       q    Type
REMARK                         _______ _______ _______ _____ _____    ______ ____
ROOT
ATOM      1  C   UNL     1       3.388   4.367  17.722  0.00  0.00    +0.000 A 
ATOM      2  C   UNL     1       4.272   3.771  16.799  0.00  0.00    +0.000 A 
ATOM      3  C   UNL     1       5.592   4.178  16.727  0.00  0.00    +0.000 A 
ATOM      4  C   UNL     1       5.985   5.175  17.589  0.00  0.00    +0.000 A 
ATOM      5 CL   UNL     1       7.587   5.785  17.542  0.00  0.00    +0.000 Cl
ATOM      6  N   UNL     1       5.178   5.771  18.493  0.00  0.00    +0.000 NA
ATOM      7  C   UNL     1       3.873   5.383  18.575  0.00  0.00    +0.000 A 
ENDROOT
BRANCH   1   8
ATOM      8  C   UNL     1       1.952   4.002  17.627  0.00  0.00    +0.000 C 
ATOM      9  O   UNL     1       1.052   4.733  17.243  0.00  0.00    +0.000 OA
BRANCH   8  10
ATOM     10  O   UNL     1       1.804   2.684  17.934  0.00  0.00    +0.000 OA
BRANCH  10  12
ATOM     11  C   UNL     1       1.340   2.184  20.276  0.00  0.00    +0.000 C 
ATOM     12  C   UNL     1       0.770   2.375  18.880  0.00  0.00    +0.000 C 
ENDBRANCH  10  12
ENDBRANCH   8  10
ENDBRANCH   1   8
BRANCH   7  13
ATOM     13  N   UNL     1       3.049   6.065  19.499  0.00  0.00    +0.000 N 
ATOM     14  C   UNL     1       2.375   5.215  20.498  0.00  0.00    +0.000 C 
BRANCH  13  15
ATOM     15  C   UNL     1       2.382   7.306  19.321  0.00  0.00    +0.000 A 
ATOM     16  C   UNL     1       2.364   7.978  18.091  0.00  0.00    +0.000 A 
ATOM     17  C   UNL     1       1.607   9.145  17.923  0.00  0.00    +0.000 A 
ATOM     18  C   UNL     1       0.847   9.657  18.975  0.00  0.00    +0.000 A 
ATOM     19  C   UNL     1       0.919   9.054  20.224  0.00  0.00    +0.000 A 
ATOM     20  C   UNL     1       1.682   7.896  20.390  0.00  0.00    +0.000 A 
BRANCH  18  21
ATOM     21  O   UNL     1       0.088  10.758  18.687  0.00  0.00    +0.000 OA
ATOM     22  C   UNL     1      -1.320  10.544  18.747  0.00  0.00    +0.000 C 
ENDBRANCH  18  21
ENDBRANCH  13  15
ENDBRANCH   7  13
TORSDOF 6
ENDMDL
