MODEL 1
REMARK VINA RESULT:      -7.4      0.000      0.000
REMARK  Name = 
REMARK  5 active torsions:
REMARK  status: ('A' for Active; 'I' for Inactive)
REMARK    1  A    between atoms: C_1  and  C_2
REMARK    2  A    between atoms: N_4  and  C_5
REMARK    3  A    between atoms: C_5  and  C_6
REMARK    4  A    between atoms: C_5  and  C_7
REMARK    5  A    between atoms: C_17  and  O_18
REMARK                            x       y       z     vdW  Elec       q    Type
REMARK                         _______ _______ _______ _____ _____    ______ ____
ROOT
ATOM      1  C   UNL     1       5.388   5.737  17.821  0.00  0.00    +0.000 A 
ATOM      2  C   UNL     1       4.428   6.745  17.662  0.00  0.00    +0.000 A 
ATOM      3  C   UNL     1       3.187   6.661  18.302  0.00  0.00    +0.000 A 
ATOM      4 CL   UNL     1       2.065   7.948  18.011  0.00  0.00    +0.000 Cl
ATOM      5  C   UNL     1       2.862   5.562  19.133  0.00  0.00    +0.000 A 
ATOM      6  C   UNL     1       1.633   5.393  19.810  0.00  0.00    +0.000 A 
ATOM      7  C   UNL     1       1.405   4.272  20.599  0.00  0.00    +0.000 A 
ATOM      8  C   UNL     1       2.417   3.338  20.699  0.00  0.00    +0.000 A 
ATOM      9  N   UNL     1       3.609   3.458  20.079  0.00  0.00    +0.000 NA
ATOM     10  C   UNL     1       3.823   4.549  19.310  0.00  0.00    +0.000 A 
ATOM     11  C   UNL     1       5.053   4.665  18.658  0.00  0.00    +0.000 A 
ENDROOT
BRANCH   1  12
ATOM     12  C   UNL     1       6.713   5.791  17.081  0.00  0.00    +0.000 C 
ATOM     13  C   UNL     1       7.445   7.118  17.309  0.00  0.00    +0.000 C 
BRANCH  12  17
ATOM     14  C   UNL     1       6.034   4.347  13.641  0.00  0.00    +0.000 C 
ATOM     15  C   UNL     1       6.228   4.330  15.134  0.00  0.00    +0.000 C 
ATOM     16  O   UNL     1       6.138   3.304  15.797  0.00  0.00    +0.000 OA
ATOM     17  N   UNL     1       6.490   5.574  15.656  0.00  0.00    +0.000 N 
ATOM     18  H   UNL     1       6.626   6.345  15.019  0.00  0.00    +0.000 HD
ENDBRANCH  12  17
ENDBRANCH   1  12
BRANCH  11  19
ATOM     19  O   UNL     1       5.971   3.656  18.860  0.00  0.00    +0.000 OA
ATOM     20  H   UNL     1       6.497   3.635  18.031  0.00  0.00    +0.000 HD
ENDBRANCH  11  19
TORSDOF 3
ENDMDL
MODEL 2
REMARK VINA RESULT:      -7.3      1.260      1.347
REMARK  Name = 
REMARK  5 active torsions:
REMARK  status: ('A' for Active; 'I' for Inactive)
REMARK    1  A    between atoms: C_1  and  C_2
REMARK    2  A    between atoms: N_4  and  C_5
REMARK    3  A    between atoms: C_5  and  C_6
REMARK    4  A    between atoms: C_5  and  C_7
REMARK    5  A    between atoms: C_17  and  O_18
REMARK                            x       y       z     vdW  Elec       q    Type
REMARK                         _______ _______ _______ _____ _____    ______ ____
ROOT
ATOM      1  C   UNL     1       4.611   5.311  18.048  0.00  0.00    +0.000 A 
ATOM      2  C   UNL     1       3.897   6.368  18.627  0.00  0.00    +0.000 A 
ATOM      3  C   UNL     1       2.791   6.121  19.448  0.00  0.00    +0.000 A 
ATOM      4 CL   UNL     1       1.964   7.503  20.086  0.00  0.00    +0.000 Cl
ATOM      5  C   UNL     1       2.362   4.801  19.726  0.00  0.00    +0.000 A 
ATOM      6  C   UNL     1       1.255   4.462  20.535  0.00  0.00    +0.000 A 
ATOM      7  C   UNL     1       0.907   3.132  20.741  0.00  0.00    +0.000 A 
ATOM      8  C   UNL     1       1.678   2.163  20.133  0.00  0.00    +0.000 A 
ATOM      9  N   UNL     1       2.748   2.436  19.358  0.00  0.00    +0.000 NA
ATOM     10  C   UNL     1       3.079   3.731  19.158  0.00  0.00    +0.000 A 
ATOM     11  C   UNL     1       4.179   4.012  18.345  0.00  0.00    +0.000 A 
ENDROOT
BRANCH   1  12
ATOM     12  C   UNL     1       5.774   5.572  17.106  0.00  0.00    +0.000 C 
ATOM     13  C   UNL     1       6.029   7.071  16.910  0.00  0.00    +0.000 C 
BRANCH  12  17
ATOM     14  C   UNL     1       6.035   3.946  13.691  0.00  0.00    +0.000 C 
ATOM     15  C   UNL     1       6.533   4.599  14.952  0.00  0.00    +0.000 C 
ATOM     16  O   UNL     1       7.723   4.790  15.169  0.00  0.00    +0.000 OA
ATOM     17  N   UNL     1       5.521   4.928  15.822  0.00  0.00    +0.000 N 
ATOM     18  H   UNL     1       4.566   4.806  15.518  0.00  0.00    +0.000 HD
ENDBRANCH  12  17
ENDBRANCH   1  12
BRANCH  11  19
ATOM     19  O   UNL     1       4.860   2.938  17.812  0.00  0.00    +0.000 OA
ATOM     20  H   UNL     1       4.373   2.152  18.143  0.00  0.00    +0.000 HD
ENDBRANCH  11  19
TORSDOF 3
ENDMDL
MODEL 3
REMARK VINA RESULT:      -7.1      2.401      3.219
REMARK  Name = 
REMARK  5 active torsions:
REMARK  status: ('A' for Active; 'I' for Inactive)
REMARK    1  A    between atoms: C_1  and  C_2
REMARK    2  A    between atoms: N_4  and  C_5
REMARK    3  A    between atoms: C_5  and  C_6
REMARK    4  A    between atoms: C_5  and  C_7
REMARK    5  A    between atoms: C_17  and  O_18
REMARK                            x       y       z     vdW  Elec       q    Type
REMARK                         _______ _______ _______ _____ _____    ______ ____
ROOT
ATOM      1  C   UNL     1       4.439   5.179  16.848  0.00  0.00    +0.000 A 
ATOM      2  C   UNL     1       4.406   3.782  16.953  0.00  0.00    +0.000 A 
ATOM      3  C   UNL     1       3.670   3.157  17.966  0.00  0.00    +0.000 A 
ATOM      4 CL   UNL     1       3.724   1.427  18.022  0.00  0.00    +0.000 Cl
ATOM      5  C   UNL     1       2.933   3.910  18.912  0.00  0.00    +0.000 A 
ATOM      6  C   UNL     1       2.171   3.363  19.968  0.00  0.00    +0.000 A 
ATOM      7  C   UNL     1       1.487   4.189  20.852  0.00  0.00    +0.000 A 
ATOM      8  C   UNL     1       1.576   5.552  20.660  0.00  0.00    +0.000 A 
ATOM      9  N   UNL     1       2.284   6.123  19.662  0.00  0.00    +0.000 NA
ATOM     10  C   UNL     1       2.950   5.314  18.808  0.00  0.00    +0.000 A 
ATOM     11  C   UNL     1       3.693   5.906  17.784  0.00  0.00    +0.000 A 
ENDROOT
BRANCH   1  12
ATOM     12  C   UNL     1       5.284   5.866  15.790  0.00  0.00    +0.000 C 
ATOM     13  C   UNL     1       6.157   4.872  15.017  0.00  0.00    +0.000 C 
BRANCH  12  17
ATOM     14  C   UNL     1       7.912   7.801  17.720  0.00  0.00    +0.000 C 
ATOM     15  C   UNL     1       7.212   6.584  17.180  0.00  0.00    +0.000 C 
ATOM     16  O   UNL     1       7.608   5.445  17.398  0.00  0.00    +0.000 OA
ATOM     17  N   UNL     1       6.114   6.891  16.413  0.00  0.00    +0.000 N 
ATOM     18  H   UNL     1       5.819   7.856  16.359  0.00  0.00    +0.000 HD
ENDBRANCH  12  17
ENDBRANCH   1  12
BRANCH  11  19
ATOM     19  O   UNL     1       3.680   7.283  17.711  0.00  0.00    +0.000 OA
ATOM     20  H   UNL     1       4.476   7.507  17.182  0.00  0.00    +0.000 HD
ENDBRANCH  11  19
TORSDOF 3
ENDMDL
MODEL 4
REMARK VINA RESULT:      -7.1      1.011      1.019
REMARK  Name = 
REMARK  5 active torsions:
REMARK  status: ('A' for Active; 'I' for Inactive)
REMARK    1  A    between atoms: C_1  and  C_2
REMARK    2  A    between atoms: N_4  and  C_5
REMARK    3  A    between atoms: C_5  and  C_6
REMARK    4  A    between atoms: C_5  and  C_7
REMARK    5  A    between atoms: C_17  and  O_18
REMARK                            x       y       z     vdW  Elec       q    Type
REMARK                         _______ _______ _______ _____ _____    ______ ____
ROOT
ATOM      1  C   UNL     1       5.297   5.162  18.405  0.00  0.00    +0.000 A 
ATOM      2  C   UNL     1       4.496   6.305  18.283  0.00  0.00    +0.000 A 
ATOM      3  C   UNL     1       3.196   6.327  18.799  0.00  0.00    +0.000 A 
ATOM      4 CL   UNL     1       2.283   7.780  18.566  0.00  0.00    +0.000 Cl
ATOM      5  C   UNL     1       2.650   5.203  19.465  0.00  0.00    +0.000 A 
ATOM      6  C   UNL     1       1.347   5.136  20.009  0.00  0.00    +0.000 A 
ATOM      7  C   UNL     1       0.899   3.981  20.638  0.00  0.00    +0.000 A 
ATOM      8  C   UNL     1       1.767   2.911  20.714  0.00  0.00    +0.000 A 
ATOM      9  N   UNL     1       3.022   2.928  20.218  0.00  0.00    +0.000 NA
ATOM     10  C   UNL     1       3.450   4.053  19.603  0.00  0.00    +0.000 A 
ATOM     11  C   UNL     1       4.744   4.065  19.078  0.00  0.00    +0.000 A 
ENDROOT
BRANCH   1  12
ATOM     12  C   UNL     1       6.686   5.108  17.793  0.00  0.00    +0.000 C 
ATOM     13  C   UNL     1       7.256   6.508  17.539  0.00  0.00    +0.000 C 
BRANCH  12  17
ATOM     14  C   UNL     1       6.248   3.907  14.224  0.00  0.00    +0.000 C 
ATOM     15  C   UNL     1       6.198   4.881  15.370  0.00  0.00    +0.000 C 
ATOM     16  O   UNL     1       5.810   6.035  15.236  0.00  0.00    +0.000 OA
ATOM     17  N   UNL     1       6.648   4.343  16.552  0.00  0.00    +0.000 N 
ATOM     18  H   UNL     1       6.870   3.358  16.580  0.00  0.00    +0.000 HD
ENDBRANCH  12  17
ENDBRANCH   1  12
BRANCH  11  19
ATOM     19  O   UNL     1       5.500   2.923  19.238  0.00  0.00    +0.000 OA
ATOM     20  H   UNL     1       5.802   2.959  20.172  0.00  0.00    +0.000 HD
ENDBRANCH  11  19
TORSDOF 3
ENDMDL
MODEL 5
REMARK VINA RESULT:      -6.4      2.313      5.149
REMARK  Name = 
REMARK  5 active torsions:
REMARK  status: ('A' for Active; 'I' for Inactive)
REMARK    1  A    between atoms: C_1  and  C_2
REMARK    2  A    between atoms: N_4  and  C_5
REMARK    3  A    between atoms: C_5  and  C_6
REMARK    4  A    between atoms: C_5  and  C_7
REMARK    5  A    between atoms: C_17  and  O_18
REMARK                            x       y       z     vdW  Elec       q    Type
REMARK                         _______ _______ _______ _____ _____    ______ ____
ROOT
ATOM      1  C   UNL     1       4.309   3.938  17.897  0.00  0.00    +0.000 A 
ATOM      2  C   UNL     1       4.155   4.831  16.828  0.00  0.00    +0.000 A 
ATOM      3  C   UNL     1       5.052   5.888  16.643  0.00  0.00    +0.000 A 
ATOM      4 CL   UNL     1       4.749   6.949  15.308  0.00  0.00    +0.000 Cl
ATOM      5  C   UNL     1       6.144   6.089  17.521  0.00  0.00    +0.000 A 
ATOM      6  C   UNL     1       7.091   7.132  17.412  0.00  0.00    +0.000 A 
ATOM      7  C   UNL     1       8.127   7.249  18.332  0.00  0.00    +0.000 A 
ATOM      8  C   UNL     1       8.197   6.315  19.345  0.00  0.00    +0.000 A 
ATOM      9  N   UNL     1       7.323   5.297  19.487  0.00  0.00    +0.000 NA
ATOM     10  C   UNL     1       6.315   5.190  18.591  0.00  0.00    +0.000 A 
ATOM     11  C   UNL     1       5.403   4.144  18.747  0.00  0.00    +0.000 A 
ENDROOT
BRANCH   1  12
ATOM     12  C   UNL     1       3.305   2.825  18.141  0.00  0.00    +0.000 C 
ATOM     13  C   UNL     1       2.597   2.396  16.851  0.00  0.00    +0.000 C 
BRANCH  12  17
ATOM     14  C   UNL     1       1.313   3.463  21.303  0.00  0.00    +0.000 C 
ATOM     15  C   UNL     1       2.434   2.912  20.464  0.00  0.00    +0.000 C 
ATOM     16  O   UNL     1       3.346   2.247  20.939  0.00  0.00    +0.000 OA
ATOM     17  N   UNL     1       2.329   3.252  19.137  0.00  0.00    +0.000 N 
ATOM     18  H   UNL     1       1.497   3.735  18.827  0.00  0.00    +0.000 HD
ENDBRANCH  12  17
ENDBRANCH   1  12
BRANCH  11  19
ATOM     19  O   UNL     1       5.607   3.282  19.803  0.00  0.00    +0.000 OA
ATOM     20  H   UNL     1       6.458   3.575  20.197  0.00  0.00    +0.000 HD
ENDBRANCH  11  19
TORSDOF 3
ENDMDL
MODEL 6
REMARK VINA RESULT:      -6.3      1.474      2.407
REMARK  Name = 
REMARK  5 active torsions:
REMARK  status: ('A' for Active; 'I' for Inactive)
REMARK    1  A    between atoms: C_1  and  C_2
REMARK    2  A    between atoms: N_4  and  C_5
REMARK    3  A    between atoms: C_5  and  C_6
REMARK    4  A    between atoms: C_5  and  C_7
REMARK    5  A    between atoms: C_17  and  O_18
REMARK                            x       y       z     vdW  Elec       q    Type
REMARK                         _______ _______ _______ _____ _____    ______ ____
ROOT
ATOM      1  C   UNL     1       4.677   5.320  17.367  0.00  0.00    +0.000 A 
ATOM      2  C   UNL     1       4.034   6.386  18.011  0.00  0.00    +0.000 A 
ATOM      3  C   UNL     1       2.965   6.156  18.883  0.00  0.00    +0.000 A 
ATOM      4 CL   UNL     1       2.224   7.547  19.600  0.00  0.00    +0.000 Cl
ATOM      5  C   UNL     1       2.502   4.844  19.150  0.00  0.00    +0.000 A 
ATOM      6  C   UNL     1       1.428   4.523  20.009  0.00  0.00    +0.000 A 
ATOM      7  C   UNL     1       1.043   3.201  20.200  0.00  0.00    +0.000 A 
ATOM      8  C   UNL     1       1.745   2.222  19.526  0.00  0.00    +0.000 A 
ATOM      9  N   UNL     1       2.782   2.477  18.702  0.00  0.00    +0.000 NA
ATOM     10  C   UNL     1       3.149   3.765  18.518  0.00  0.00    +0.000 A 
ATOM     11  C   UNL     1       4.214   4.030  17.654  0.00  0.00    +0.000 A 
ENDROOT
BRANCH   1  12
ATOM     12  C   UNL     1       5.797   5.566  16.371  0.00  0.00    +0.000 C 
ATOM     13  C   UNL     1       6.864   4.467  16.425  0.00  0.00    +0.000 C 
BRANCH  12  17
ATOM     14  C   UNL     1       7.815   8.498  17.677  0.00  0.00    +0.000 C 
ATOM     15  C   UNL     1       7.337   7.073  17.604  0.00  0.00    +0.000 C 
ATOM     16  O   UNL     1       7.766   6.196  18.344  0.00  0.00    +0.000 OA
ATOM     17  N   UNL     1       6.399   6.870  16.619  0.00  0.00    +0.000 N 
ATOM     18  H   UNL     1       6.048   7.673  16.116  0.00  0.00    +0.000 HD
ENDBRANCH  12  17
ENDBRANCH   1  12
BRANCH  11  19
ATOM     19  O   UNL     1       4.826   2.947  17.058  0.00  0.00    +0.000 OA
ATOM     20  H   UNL     1       5.775   3.043  17.292  0.00  0.00    +0.000 HD
ENDBRANCH  11  19
TORSDOF 3
ENDMDL
MODEL 7
REMARK VINA RESULT:      -6.2      1.719      1.842
REMARK  Name = 
REMARK  5 active torsions:
REMARK  status: ('A' for Active; 'I' for Inactive)
REMARK    1  A    between atoms: C_1  and  C_2
REMARK    2  A    between atoms: N_4  and  C_5
REMARK    3  A    between atoms: C_5  and  C_6
REMARK    4  A    between atoms: C_5  and  C_7
REMARK    5  A    between atoms: C_17  and  O_18
REMARK                            x       y       z     vdW  Elec       q    Type
REMARK                         _______ _______ _______ _____ _____    ______ ____
ROOT
ATOM      1  C   UNL     1       4.635   4.342  17.712  0.00  0.00    +0.000 A 
ATOM      2  C   UNL     1       3.376   4.610  17.160  0.00  0.00    +0.000 A 
ATOM      3  C   UNL     1       2.206   4.283  17.854  0.00  0.00    +0.000 A 
ATOM      4 CL   UNL     1       0.703   4.631  17.066  0.00  0.00    +0.000 Cl
ATOM      5  C   UNL     1       2.253   3.679  19.134  0.00  0.00    +0.000 A 
ATOM      6  C   UNL     1       1.124   3.310  19.899  0.00  0.00    +0.000 A 
ATOM      7  C   UNL     1       1.275   2.713  21.145  0.00  0.00    +0.000 A 
ATOM      8  C   UNL     1       2.559   2.498  21.604  0.00  0.00    +0.000 A 
ATOM      9  N   UNL     1       3.668   2.838  20.915  0.00  0.00    +0.000 NA
ATOM     10  C   UNL     1       3.514   3.416  19.702  0.00  0.00    +0.000 A 
ATOM     11  C   UNL     1       4.662   3.756  18.984  0.00  0.00    +0.000 A 
ENDROOT
BRANCH   1  12
ATOM     12  C   UNL     1       5.909   4.636  16.940  0.00  0.00    +0.000 C 
ATOM     13  C   UNL     1       6.254   6.130  16.948  0.00  0.00    +0.000 C 
BRANCH  12  17
ATOM     14  C   UNL     1       6.339   3.870  13.251  0.00  0.00    +0.000 C 
ATOM     15  C   UNL     1       6.680   4.478  14.585  0.00  0.00    +0.000 C 
ATOM     16  O   UNL     1       7.675   5.171  14.757  0.00  0.00    +0.000 OA
ATOM     17  N   UNL     1       5.777   4.155  15.569  0.00  0.00    +0.000 N 
ATOM     18  H   UNL     1       4.944   3.645  15.311  0.00  0.00    +0.000 HD
ENDBRANCH  12  17
ENDBRANCH   1  12
BRANCH  11  19
ATOM     19  O   UNL     1       5.878   3.488  19.576  0.00  0.00    +0.000 OA
ATOM     20  H   UNL     1       5.649   3.198  20.486  0.00  0.00    +0.000 HD
ENDBRANCH  11  19
TORSDOF 3
ENDMDL
MODEL 8
REMARK VINA RESULT:      -6.2      2.459      2.830
REMARK  Name = 
REMARK  5 active torsions:
REMARK  status: ('A' for Active; 'I' for Inactive)
REMARK    1  A    between atoms: C_1  and  C_2
REMARK    2  A    between atoms: N_4  and  C_5
REMARK    3  A    between atoms: C_5  and  C_6
REMARK    4  A    between atoms: C_5  and  C_7
REMARK    5  A    between atoms: C_17  and  O_18
REMARK                            x       y       z     vdW  Elec       q    Type
REMARK                         _______ _______ _______ _____ _____    ______ ____
ROOT
ATOM      1  C   UNL     1       4.539   4.935  16.984  0.00  0.00    +0.000 A 
ATOM      2  C   UNL     1       4.437   3.542  17.099  0.00  0.00    +0.000 A 
ATOM      3  C   UNL     1       3.652   2.961  18.101  0.00  0.00    +0.000 A 
ATOM      4 CL   UNL     1       3.621   1.231  18.169  0.00  0.00    +0.000 Cl
ATOM      5  C   UNL     1       2.934   3.756  19.026  0.00  0.00    +0.000 A 
ATOM      6  C   UNL     1       2.126   3.255  20.071  0.00  0.00    +0.000 A 
ATOM      7  C   UNL     1       1.465   4.120  20.936  0.00  0.00    +0.000 A 
ATOM      8  C   UNL     1       1.624   5.476  20.736  0.00  0.00    +0.000 A 
ATOM      9  N   UNL     1       2.378   6.004  19.749  0.00  0.00    +0.000 NA
ATOM     10  C   UNL     1       3.021   5.157  18.913  0.00  0.00    +0.000 A 
ATOM     11  C   UNL     1       3.811   5.704  17.900  0.00  0.00    +0.000 A 
ENDROOT
BRANCH   1  12
ATOM     12  C   UNL     1       5.438   5.572  15.939  0.00  0.00    +0.000 C 
ATOM     13  C   UNL     1       4.939   6.961  15.524  0.00  0.00    +0.000 C 
BRANCH  12  17
ATOM     14  C   UNL     1       6.528   3.680  12.839  0.00  0.00    +0.000 C 
ATOM     15  C   UNL     1       6.657   4.649  13.983  0.00  0.00    +0.000 C 
ATOM     16  O   UNL     1       7.675   5.301  14.182  0.00  0.00    +0.000 OA
ATOM     17  N   UNL     1       5.534   4.700  14.774  0.00  0.00    +0.000 N 
ATOM     18  H   UNL     1       4.715   4.185  14.482  0.00  0.00    +0.000 HD
ENDBRANCH  12  17
ENDBRANCH   1  12
BRANCH  11  19
ATOM     19  O   UNL     1       3.867   7.080  17.818  0.00  0.00    +0.000 OA
ATOM     20  H   UNL     1       2.928   7.365  17.846  0.00  0.00    +0.000 HD
ENDBRANCH  11  19
TORSDOF 3
ENDMDL
MODEL 9
REMARK VINA RESULT:      -6.2      2.032      5.242
REMARK  Name = 
REMARK  5 active torsions:
REMARK  status: ('A' for Active; 'I' for Inactive)
REMARK    1  A    between atoms: C_1  and  C_2
REMARK    2  A    between atoms: N_4  and  C_5
REMARK    3  A    between atoms: C_5  and  C_6
REMARK    4  A    between atoms: C_5  and  C_7
REMARK    5  A    between atoms: C_17  and  O_18
REMARK                            x       y       z     vdW  Elec       q    Type
REMARK                         _______ _______ _______ _____ _____    ______ ____
ROOT
ATOM      1  C   UNL     1       3.090   4.051  18.178  0.00  0.00    +0.000 A 
ATOM      2  C   UNL     1       2.744   5.368  17.848  0.00  0.00    +0.000 A 
ATOM      3  C   UNL     1       3.726   6.354  17.711  0.00  0.00    +0.000 A 
ATOM      4 CL   UNL     1       3.184   7.955  17.331  0.00  0.00    +0.000 Cl
ATOM      5  C   UNL     1       5.098   6.057  17.894  0.00  0.00    +0.000 A 
ATOM      6  C   UNL     1       6.152   6.990  17.783  0.00  0.00    +0.000 A 
ATOM      7  C   UNL     1       7.471   6.600  17.990  0.00  0.00    +0.000 A 
ATOM      8  C   UNL     1       7.709   5.278  18.304  0.00  0.00    +0.000 A 
ATOM      9  N   UNL     1       6.738   4.347  18.414  0.00  0.00    +0.000 NA
ATOM     10  C   UNL     1       5.458   4.734  18.215  0.00  0.00    +0.000 A 
ATOM     11  C   UNL     1       4.453   3.773  18.342  0.00  0.00    +0.000 A 
ENDROOT
BRANCH   1  12
ATOM     12  C   UNL     1       2.025   2.989  18.390  0.00  0.00    +0.000 C 
ATOM     13  C   UNL     1       0.622   3.508  18.056  0.00  0.00    +0.000 C 
BRANCH  12  17
ATOM     14  C   UNL     1       1.744   2.552  22.145  0.00  0.00    +0.000 C 
ATOM     15  C   UNL     1       1.582   3.244  20.819  0.00  0.00    +0.000 C 
ATOM     16  O   UNL     1       1.048   4.341  20.710  0.00  0.00    +0.000 OA
ATOM     17  N   UNL     1       2.074   2.510  19.766  0.00  0.00    +0.000 N 
ATOM     18  H   UNL     1       2.571   1.653  19.966  0.00  0.00    +0.000 HD
ENDBRANCH  12  17
ENDBRANCH   1  12
BRANCH  11  19
ATOM     19  O   UNL     1       4.845   2.487  18.651  0.00  0.00    +0.000 OA
ATOM     20  H   UNL     1       5.309   2.573  19.512  0.00  0.00    +0.000 HD
ENDBRANCH  11  19
TORSDOF 3
ENDMDL
