MODEL 1
REMARK VINA RESULT:      -7.8      0.000      0.000
REMARK  Name = 
REMARK  10 active torsions:
REMARK  status: ('A' for Active; 'I' for Inactive)
REMARK    1  A    between atoms: C_1  and  O_2
REMARK    2  A    between atoms: O_2  and  C_3
REMARK    3  A    between atoms: C_5  and  C_6
REMARK    4  A    between atoms: C_9  and  C_10
REMARK    5  A    between atoms: C_21  and  C_22
REMARK    6  A    between atoms: C_23  and  C_24
REMARK    7  A    between atoms: C_31  and  O_32
REMARK    8  A    between atoms: O_32  and  C_33
REMARK    9  A    between atoms: C_34  and  O_35
REMARK   10  A    between atoms: O_35  and  C_36
REMARK                            x       y       z     vdW  Elec       q    Type
REMARK                         _______ _______ _______ _____ _____    ______ ____
ROOT
ATOM      1  C   UNL     1       1.613   8.018  21.156  0.00  0.00    +0.000 C 
ATOM      2  C   UNL     1       0.690   8.929  20.831  0.00  0.00    +0.000 C 
ATOM      3  N   UNL     1       0.068   9.075  19.624  0.00  0.00    +0.000 NA
ATOM      4  C   UNL     1      -0.749  10.081  19.773  0.00  0.00    +0.000 C 
ATOM      5  N   UNL     1      -0.722  10.640  21.033  0.00  0.00    +0.000 N 
ATOM      6  C   UNL     1      -1.364  11.788  21.454  0.00  0.00    +0.000 A 
ATOM      7  N   UNL     1      -1.953  12.650  20.667  0.00  0.00    +0.000 NA
ATOM      8  C   UNL     1      -2.624  13.610  21.395  0.00  0.00    +0.000 A 
ATOM      9  C   UNL     1      -3.438  14.616  20.852  0.00  0.00    +0.000 A 
ATOM     10  C   UNL     1      -4.068  15.556  21.683  0.00  0.00    +0.000 A 
ATOM     11  C   UNL     1      -4.930  16.601  21.033  0.00  0.00    +0.000 C 
ATOM     12  C   UNL     1      -3.865  15.496  23.074  0.00  0.00    +0.000 A 
ATOM     13  C   UNL     1      -4.453  16.516  24.017  0.00  0.00    +0.000 C 
ATOM     14  C   UNL     1      -3.053  14.482  23.629  0.00  0.00    +0.000 A 
ATOM     15  C   UNL     1      -2.458  13.541  22.772  0.00  0.00    +0.000 A 
ATOM     16  S   UNL     1      -1.472  12.177  23.128  0.00  0.00    +0.000 S 
ATOM     17  C   UNL     1       0.194   9.952  21.790  0.00  0.00    +0.000 C 
ATOM     18  O   UNL     1       0.599  10.086  22.931  0.00  0.00    +0.000 OA
ENDROOT
BRANCH   1  21
ATOM     19  C   UNL     1       1.822   4.576  19.648  0.00  0.00    +0.000 A 
ATOM     20  C   UNL     1       1.628   5.624  20.568  0.00  0.00    +0.000 A 
ATOM     21  C   UNL     1       2.069   6.917  20.295  0.00  0.00    +0.000 A 
ATOM     22  C   UNL     1       2.807   7.128  19.131  0.00  0.00    +0.000 A 
ATOM     23  C   UNL     1       3.094   6.080  18.246  0.00  0.00    +0.000 A 
ATOM     24  C   UNL     1       2.605   4.782  18.494  0.00  0.00    +0.000 A 
BRANCH  19  26
ATOM     25  C   UNL     1       1.373   2.877  21.228  0.00  0.00    +0.000 C 
ATOM     26  O   UNL     1       1.241   3.353  19.884  0.00  0.00    +0.000 OA
ENDBRANCH  19  26
BRANCH  23  27
ATOM     27  O   UNL     1       3.889   6.488  17.199  0.00  0.00    +0.000 OA
ATOM     28  C   UNL     1       5.292   6.512  17.418  0.00  0.00    +0.000 C 
ENDBRANCH  23  27
BRANCH  24  29
ATOM     29  O   UNL     1       2.951   3.853  17.553  0.00  0.00    +0.000 OA
ATOM     30  C   UNL     1       3.994   2.924  17.773  0.00  0.00    +0.000 C 
ENDBRANCH  24  29
ENDBRANCH   1  21
BRANCH   4  31
ATOM     31  C   UNL     1      -1.597  10.464  18.608  0.00  0.00    +0.000 A 
ATOM     32  C   UNL     1      -1.342  11.552  17.773  0.00  0.00    +0.000 A 
ATOM     33  C   UNL     1      -2.176  11.824  16.683  0.00  0.00    +0.000 A 
ATOM     34  C   UNL     1      -3.330  11.072  16.476  0.00  0.00    +0.000 A 
ATOM     35  C   UNL     1      -3.657  10.050  17.361  0.00  0.00    +0.000 A 
ATOM     36  C   UNL     1      -2.792   9.744  18.416  0.00  0.00    +0.000 A 
ENDBRANCH   4  31
TORSDOF 5
ENDMDL
MODEL 2
REMARK VINA RESULT:      -7.5      0.614      2.195
REMARK  Name = 
REMARK  10 active torsions:
REMARK  status: ('A' for Active; 'I' for Inactive)
REMARK    1  A    between atoms: C_1  and  O_2
REMARK    2  A    between atoms: O_2  and  C_3
REMARK    3  A    between atoms: C_5  and  C_6
REMARK    4  A    between atoms: C_9  and  C_10
REMARK    5  A    between atoms: C_21  and  C_22
REMARK    6  A    between atoms: C_23  and  C_24
REMARK    7  A    between atoms: C_31  and  O_32
REMARK    8  A    between atoms: O_32  and  C_33
REMARK    9  A    between atoms: C_34  and  O_35
REMARK   10  A    between atoms: O_35  and  C_36
REMARK                            x       y       z     vdW  Elec       q    Type
REMARK                         _______ _______ _______ _____ _____    ______ ____
ROOT
ATOM      1  C   UNL     1       1.482   8.239  20.931  0.00  0.00    +0.000 C 
ATOM      2  C   UNL     1       0.552   9.155  20.644  0.00  0.00    +0.000 C 
ATOM      3  N   UNL     1      -0.187   9.246  19.499  0.00  0.00    +0.000 NA
ATOM      4  C   UNL     1      -0.962  10.282  19.666  0.00  0.00    +0.000 C 
ATOM      5  N   UNL     1      -0.793  10.915  20.879  0.00  0.00    +0.000 N 
ATOM      6  C   UNL     1      -1.363  12.104  21.291  0.00  0.00    +0.000 A 
ATOM      7  N   UNL     1      -2.010  12.933  20.514  0.00  0.00    +0.000 NA
ATOM      8  C   UNL     1      -2.581  13.955  21.244  0.00  0.00    +0.000 A 
ATOM      9  C   UNL     1      -3.424  14.949  20.724  0.00  0.00    +0.000 A 
ATOM     10  C   UNL     1      -3.944  15.954  21.554  0.00  0.00    +0.000 A 
ATOM     11  C   UNL     1      -4.845  16.983  20.929  0.00  0.00    +0.000 C 
ATOM     12  C   UNL     1      -3.602  15.973  22.918  0.00  0.00    +0.000 A 
ATOM     13  C   UNL     1      -4.067  17.064  23.849  0.00  0.00    +0.000 C 
ATOM     14  C   UNL     1      -2.760  14.971  23.451  0.00  0.00    +0.000 A 
ATOM     15  C   UNL     1      -2.277  13.964  22.599  0.00  0.00    +0.000 A 
ATOM     16  S   UNL     1      -1.291  12.596  22.938  0.00  0.00    +0.000 S 
ATOM     17  C   UNL     1       0.179  10.247  21.582  0.00  0.00    +0.000 C 
ATOM     18  O   UNL     1       0.701  10.438  22.666  0.00  0.00    +0.000 OA
ENDROOT
BRANCH   1  21
ATOM     19  C   UNL     1       3.128   6.195  18.232  0.00  0.00    +0.000 A 
ATOM     20  C   UNL     1       2.560   7.276  18.934  0.00  0.00    +0.000 A 
ATOM     21  C   UNL     1       1.824   7.075  20.099  0.00  0.00    +0.000 A 
ATOM     22  C   UNL     1       1.570   5.764  20.499  0.00  0.00    +0.000 A 
ATOM     23  C   UNL     1       2.044   4.670  19.765  0.00  0.00    +0.000 A 
ATOM     24  C   UNL     1       2.833   4.869  18.614  0.00  0.00    +0.000 A 
BRANCH  19  26
ATOM     25  C   UNL     1       5.357   6.538  17.527  0.00  0.00    +0.000 C 
ATOM     26  O   UNL     1       3.971   6.442  17.176  0.00  0.00    +0.000 OA
ENDBRANCH  19  26
BRANCH  23  27
ATOM     27  O   UNL     1       1.626   3.469  20.292  0.00  0.00    +0.000 OA
ATOM     28  C   UNL     1       2.044   3.158  21.613  0.00  0.00    +0.000 C 
ENDBRANCH  23  27
BRANCH  24  29
ATOM     29  O   UNL     1       3.237   3.722  17.992  0.00  0.00    +0.000 OA
ATOM     30  C   UNL     1       4.410   3.037  18.385  0.00  0.00    +0.000 C 
ENDBRANCH  24  29
ENDBRANCH   1  21
BRANCH   4  31
ATOM     31  C   UNL     1      -1.916  10.619  18.571  0.00  0.00    +0.000 A 
ATOM     32  C   UNL     1      -3.172  11.193  18.770  0.00  0.00    +0.000 A 
ATOM     33  C   UNL     1      -3.993  11.503  17.681  0.00  0.00    +0.000 A 
ATOM     34  C   UNL     1      -3.611  11.151  16.388  0.00  0.00    +0.000 A 
ATOM     35  C   UNL     1      -2.408  10.483  16.182  0.00  0.00    +0.000 A 
ATOM     36  C   UNL     1      -1.563  10.226  17.266  0.00  0.00    +0.000 A 
ENDBRANCH   4  31
TORSDOF 5
ENDMDL
MODEL 3
REMARK VINA RESULT:      -7.4      0.694      2.213
REMARK  Name = 
REMARK  10 active torsions:
REMARK  status: ('A' for Active; 'I' for Inactive)
REMARK    1  A    between atoms: C_1  and  O_2
REMARK    2  A    between atoms: O_2  and  C_3
REMARK    3  A    between atoms: C_5  and  C_6
REMARK    4  A    between atoms: C_9  and  C_10
REMARK    5  A    between atoms: C_21  and  C_22
REMARK    6  A    between atoms: C_23  and  C_24
REMARK    7  A    between atoms: C_31  and  O_32
REMARK    8  A    between atoms: O_32  and  C_33
REMARK    9  A    between atoms: C_34  and  O_35
REMARK   10  A    between atoms: O_35  and  C_36
REMARK                            x       y       z     vdW  Elec       q    Type
REMARK                         _______ _______ _______ _____ _____    ______ ____
ROOT
ATOM      1  C   UNL     1       1.802   8.309  20.352  0.00  0.00    +0.000 C 
ATOM      2  C   UNL     1       0.782   9.156  20.175  0.00  0.00    +0.000 C 
ATOM      3  N   UNL     1      -0.016   9.263  19.073  0.00  0.00    +0.000 NA
ATOM      4  C   UNL     1      -0.870  10.209  19.352  0.00  0.00    +0.000 C 
ATOM      5  N   UNL     1      -0.699  10.764  20.602  0.00  0.00    +0.000 N 
ATOM      6  C   UNL     1      -1.350  11.863  21.127  0.00  0.00    +0.000 A 
ATOM      7  N   UNL     1      -2.104  12.684  20.445  0.00  0.00    +0.000 NA
ATOM      8  C   UNL     1      -2.727  13.593  21.275  0.00  0.00    +0.000 A 
ATOM      9  C   UNL     1      -3.677  14.542  20.868  0.00  0.00    +0.000 A 
ATOM     10  C   UNL     1      -4.243  15.433  21.795  0.00  0.00    +0.000 A 
ATOM     11  C   UNL     1      -5.259  16.418  21.290  0.00  0.00    +0.000 C 
ATOM     12  C   UNL     1      -3.838  15.382  23.141  0.00  0.00    +0.000 A 
ATOM     13  C   UNL     1      -4.351  16.355  24.172  0.00  0.00    +0.000 C 
ATOM     14  C   UNL     1      -2.887  14.425  23.560  0.00  0.00    +0.000 A 
ATOM     15  C   UNL     1      -2.359  13.531  22.613  0.00  0.00    +0.000 A 
ATOM     16  S   UNL     1      -1.241  12.237  22.804  0.00  0.00    +0.000 S 
ATOM     17  C   UNL     1       0.361  10.138  21.210  0.00  0.00    +0.000 C 
ATOM     18  O   UNL     1       0.916  10.295  22.282  0.00  0.00    +0.000 OA
ENDROOT
BRANCH   1  21
ATOM     19  C   UNL     1       3.670   6.561  17.591  0.00  0.00    +0.000 A 
ATOM     20  C   UNL     1       3.054   7.565  18.363  0.00  0.00    +0.000 A 
ATOM     21  C   UNL     1       2.203   7.246  19.419  0.00  0.00    +0.000 A 
ATOM     22  C   UNL     1       1.888   5.904  19.628  0.00  0.00    +0.000 A 
ATOM     23  C   UNL     1       2.414   4.893  18.812  0.00  0.00    +0.000 A 
ATOM     24  C   UNL     1       3.315   5.208  17.776  0.00  0.00    +0.000 A 
BRANCH  19  26
ATOM     25  C   UNL     1       5.957   6.973  17.163  0.00  0.00    +0.000 C 
ATOM     26  O   UNL     1       4.617   6.909  16.660  0.00  0.00    +0.000 OA
ENDBRANCH  19  26
BRANCH  23  27
ATOM     27  O   UNL     1       1.924   3.650  19.145  0.00  0.00    +0.000 OA
ATOM     28  C   UNL     1       1.220   3.536  20.373  0.00  0.00    +0.000 C 
ENDBRANCH  23  27
BRANCH  24  29
ATOM     29  O   UNL     1       3.759   4.133  17.059  0.00  0.00    +0.000 OA
ATOM     30  C   UNL     1       4.958   3.461  17.390  0.00  0.00    +0.000 C 
ENDBRANCH  24  29
ENDBRANCH   1  21
BRANCH   4  31
ATOM     31  C   UNL     1      -1.902  10.537  18.326  0.00  0.00    +0.000 A 
ATOM     32  C   UNL     1      -1.672  11.337  17.207  0.00  0.00    +0.000 A 
ATOM     33  C   UNL     1      -2.692  11.571  16.278  0.00  0.00    +0.000 A 
ATOM     34  C   UNL     1      -3.978  11.091  16.510  0.00  0.00    +0.000 A 
ATOM     35  C   UNL     1      -4.251  10.381  17.675  0.00  0.00    +0.000 A 
ATOM     36  C   UNL     1      -3.217  10.100  18.573  0.00  0.00    +0.000 A 
ENDBRANCH   4  31
TORSDOF 5
ENDMDL
MODEL 4
REMARK VINA RESULT:      -7.0      2.167      2.644
REMARK  Name = 
REMARK  10 active torsions:
REMARK  status: ('A' for Active; 'I' for Inactive)
REMARK    1  A    between atoms: C_1  and  O_2
REMARK    2  A    between atoms: O_2  and  C_3
REMARK    3  A    between atoms: C_5  and  C_6
REMARK    4  A    between atoms: C_9  and  C_10
REMARK    5  A    between atoms: C_21  and  C_22
REMARK    6  A    between atoms: C_23  and  C_24
REMARK    7  A    between atoms: C_31  and  O_32
REMARK    8  A    between atoms: O_32  and  C_33
REMARK    9  A    between atoms: C_34  and  O_35
REMARK   10  A    between atoms: O_35  and  C_36
REMARK                            x       y       z     vdW  Elec       q    Type
REMARK                         _______ _______ _______ _____ _____    ______ ____
ROOT
ATOM      1  C   UNL     1       0.711   7.734  21.544  0.00  0.00    +0.000 C 
ATOM      2  C   UNL     1       0.536   9.057  21.455  0.00  0.00    +0.000 C 
ATOM      3  N   UNL     1       1.193   9.918  20.624  0.00  0.00    +0.000 NA
ATOM      4  C   UNL     1       0.695  11.097  20.881  0.00  0.00    +0.000 C 
ATOM      5  N   UNL     1      -0.281  11.090  21.855  0.00  0.00    +0.000 N 
ATOM      6  C   UNL     1      -0.893  12.184  22.435  0.00  0.00    +0.000 A 
ATOM      7  N   UNL     1      -0.503  13.424  22.293  0.00  0.00    +0.000 NA
ATOM      8  C   UNL     1      -1.400  14.296  22.876  0.00  0.00    +0.000 A 
ATOM      9  C   UNL     1      -1.325  15.696  22.811  0.00  0.00    +0.000 A 
ATOM     10  C   UNL     1      -2.286  16.495  23.452  0.00  0.00    +0.000 A 
ATOM     11  C   UNL     1      -2.147  17.987  23.336  0.00  0.00    +0.000 C 
ATOM     12  C   UNL     1      -3.322  15.883  24.179  0.00  0.00    +0.000 A 
ATOM     13  C   UNL     1      -4.344  16.681  24.950  0.00  0.00    +0.000 C 
ATOM     14  C   UNL     1      -3.408  14.474  24.243  0.00  0.00    +0.000 A 
ATOM     15  C   UNL     1      -2.446  13.703  23.569  0.00  0.00    +0.000 A 
ATOM     16  S   UNL     1      -2.299  11.996  23.410  0.00  0.00    +0.000 S 
ATOM     17  C   UNL     1      -0.447   9.799  22.288  0.00  0.00    +0.000 C 
ATOM     18  O   UNL     1      -1.149   9.293  23.146  0.00  0.00    +0.000 OA
ENDROOT
BRANCH   1  21
ATOM     19  C   UNL     1       2.292   4.695  19.986  0.00  0.00    +0.000 A 
ATOM     20  C   UNL     1       1.679   5.556  20.916  0.00  0.00    +0.000 A 
ATOM     21  C   UNL     1       1.584   6.926  20.681  0.00  0.00    +0.000 A 
ATOM     22  C   UNL     1       2.209   7.443  19.546  0.00  0.00    +0.000 A 
ATOM     23  C   UNL     1       2.907   6.618  18.655  0.00  0.00    +0.000 A 
ATOM     24  C   UNL     1       2.961   5.225  18.863  0.00  0.00    +0.000 A 
BRANCH  19  26
ATOM     25  C   UNL     1       1.459   2.927  21.314  0.00  0.00    +0.000 C 
ATOM     26  O   UNL     1       2.233   3.336  20.181  0.00  0.00    +0.000 OA
ENDBRANCH  19  26
BRANCH  23  27
ATOM     27  O   UNL     1       3.504   7.335  17.642  0.00  0.00    +0.000 OA
ATOM     28  C   UNL     1       3.052   8.665  17.434  0.00  0.00    +0.000 C 
ENDBRANCH  23  27
BRANCH  24  29
ATOM     29  O   UNL     1       3.667   4.534  17.919  0.00  0.00    +0.000 OA
ATOM     30  C   UNL     1       5.016   4.164  18.122  0.00  0.00    +0.000 C 
ENDBRANCH  24  29
ENDBRANCH   1  21
BRANCH   4  31
ATOM     31  C   UNL     1       1.211  12.254  20.094  0.00  0.00    +0.000 A 
ATOM     32  C   UNL     1       2.322  13.017  20.453  0.00  0.00    +0.000 A 
ATOM     33  C   UNL     1       2.755  14.071  19.640  0.00  0.00    +0.000 A 
ATOM     34  C   UNL     1       2.022  14.436  18.514  0.00  0.00    +0.000 A 
ATOM     35  C   UNL     1       0.852  13.753  18.200  0.00  0.00    +0.000 A 
ATOM     36  C   UNL     1       0.453  12.665  18.981  0.00  0.00    +0.000 A 
ENDBRANCH   4  31
TORSDOF 5
ENDMDL
MODEL 5
REMARK VINA RESULT:      -6.8      3.300     10.041
REMARK  Name = 
REMARK  10 active torsions:
REMARK  status: ('A' for Active; 'I' for Inactive)
REMARK    1  A    between atoms: C_1  and  O_2
REMARK    2  A    between atoms: O_2  and  C_3
REMARK    3  A    between atoms: C_5  and  C_6
REMARK    4  A    between atoms: C_9  and  C_10
REMARK    5  A    between atoms: C_21  and  C_22
REMARK    6  A    between atoms: C_23  and  C_24
REMARK    7  A    between atoms: C_31  and  O_32
REMARK    8  A    between atoms: O_32  and  C_33
REMARK    9  A    between atoms: C_34  and  O_35
REMARK   10  A    between atoms: O_35  and  C_36
REMARK                            x       y       z     vdW  Elec       q    Type
REMARK                         _______ _______ _______ _____ _____    ______ ____
ROOT
ATOM      1  C   UNL     1      -1.963  11.649  23.212  0.00  0.00    +0.000 C 
ATOM      2  C   UNL     1      -1.018  11.371  22.309  0.00  0.00    +0.000 C 
ATOM      3  N   UNL     1      -0.372  12.257  21.495  0.00  0.00    +0.000 NA
ATOM      4  C   UNL     1       0.461  11.541  20.792  0.00  0.00    +0.000 C 
ATOM      5  N   UNL     1       0.422  10.193  21.083  0.00  0.00    +0.000 N 
ATOM      6  C   UNL     1       1.079   9.174  20.422  0.00  0.00    +0.000 A 
ATOM      7  N   UNL     1       1.698   9.299  19.278  0.00  0.00    +0.000 NA
ATOM      8  C   UNL     1       2.374   8.143  18.949  0.00  0.00    +0.000 A 
ATOM      9  C   UNL     1       3.216   7.986  17.838  0.00  0.00    +0.000 A 
ATOM     10  C   UNL     1       3.849   6.758  17.586  0.00  0.00    +0.000 A 
ATOM     11  C   UNL     1       4.742   6.663  16.381  0.00  0.00    +0.000 C 
ATOM     12  C   UNL     1       3.622   5.671  18.449  0.00  0.00    +0.000 A 
ATOM     13  C   UNL     1       4.212   4.306  18.198  0.00  0.00    +0.000 C 
ATOM     14  C   UNL     1       2.781   5.823  19.575  0.00  0.00    +0.000 A 
ATOM     15  C   UNL     1       2.183   7.072  19.813  0.00  0.00    +0.000 A 
ATOM     16  S   UNL     1       1.165   7.594  21.098  0.00  0.00    +0.000 S 
ATOM     17  C   UNL     1      -0.519   9.992  22.062  0.00  0.00    +0.000 C 
ATOM     18  O   UNL     1      -0.941   8.993  22.617  0.00  0.00    +0.000 OA
ENDROOT
BRANCH   1  21
ATOM     19  C   UNL     1      -4.322  14.464  24.037  0.00  0.00    +0.000 A 
ATOM     20  C   UNL     1      -3.782  13.293  23.472  0.00  0.00    +0.000 A 
ATOM     21  C   UNL     1      -2.426  12.995  23.581  0.00  0.00    +0.000 A 
ATOM     22  C   UNL     1      -1.591  13.941  24.174  0.00  0.00    +0.000 A 
ATOM     23  C   UNL     1      -2.090  15.157  24.659  0.00  0.00    +0.000 A 
ATOM     24  C   UNL     1      -3.469  15.439  24.597  0.00  0.00    +0.000 A 
BRANCH  19  26
ATOM     25  C   UNL     1      -6.220  15.173  22.822  0.00  0.00    +0.000 C 
ATOM     26  O   UNL     1      -5.683  14.648  24.041  0.00  0.00    +0.000 OA
ENDBRANCH  19  26
BRANCH  23  27
ATOM     27  O   UNL     1      -1.092  15.973  25.141  0.00  0.00    +0.000 OA
ATOM     28  C   UNL     1      -0.851  15.949  26.541  0.00  0.00    +0.000 C 
ENDBRANCH  23  27
BRANCH  24  29
ATOM     29  O   UNL     1      -3.828  16.653  25.108  0.00  0.00    +0.000 OA
ATOM     30  C   UNL     1      -3.952  17.799  24.289  0.00  0.00    +0.000 C 
ENDBRANCH  24  29
ENDBRANCH   1  21
BRANCH   4  31
ATOM     31  C   UNL     1       1.337  12.252  19.817  0.00  0.00    +0.000 A 
ATOM     32  C   UNL     1       1.417  11.942  18.459  0.00  0.00    +0.000 A 
ATOM     33  C   UNL     1       2.246  12.681  17.608  0.00  0.00    +0.000 A 
ATOM     34  C   UNL     1       3.078  13.672  18.123  0.00  0.00    +0.000 A 
ATOM     35  C   UNL     1       3.088  13.923  19.491  0.00  0.00    +0.000 A 
ATOM     36  C   UNL     1       2.218  13.223  20.331  0.00  0.00    +0.000 A 
ENDBRANCH   4  31
TORSDOF 5
ENDMDL
MODEL 6
REMARK VINA RESULT:      -6.8      3.470     10.355
REMARK  Name = 
REMARK  10 active torsions:
REMARK  status: ('A' for Active; 'I' for Inactive)
REMARK    1  A    between atoms: C_1  and  O_2
REMARK    2  A    between atoms: O_2  and  C_3
REMARK    3  A    between atoms: C_5  and  C_6
REMARK    4  A    between atoms: C_9  and  C_10
REMARK    5  A    between atoms: C_21  and  C_22
REMARK    6  A    between atoms: C_23  and  C_24
REMARK    7  A    between atoms: C_31  and  O_32
REMARK    8  A    between atoms: O_32  and  C_33
REMARK    9  A    between atoms: C_34  and  O_35
REMARK   10  A    between atoms: O_35  and  C_36
REMARK                            x       y       z     vdW  Elec       q    Type
REMARK                         _______ _______ _______ _____ _____    ______ ____
ROOT
ATOM      1  C   UNL     1      -2.084  13.051  23.693  0.00  0.00    +0.000 C 
ATOM      2  C   UNL     1      -1.210  12.610  22.783  0.00  0.00    +0.000 C 
ATOM      3  N   UNL     1      -0.518  13.360  21.876  0.00  0.00    +0.000 NA
ATOM      4  C   UNL     1       0.212  12.511  21.206  0.00  0.00    +0.000 C 
ATOM      5  N   UNL     1       0.056  11.202  21.609  0.00  0.00    +0.000 N 
ATOM      6  C   UNL     1       0.583  10.073  21.013  0.00  0.00    +0.000 A 
ATOM      7  N   UNL     1       1.161  10.045  19.840  0.00  0.00    +0.000 NA
ATOM      8  C   UNL     1       1.708   8.804  19.585  0.00  0.00    +0.000 A 
ATOM      9  C   UNL     1       2.482   8.477  18.462  0.00  0.00    +0.000 A 
ATOM     10  C   UNL     1       2.983   7.176  18.291  0.00  0.00    +0.000 A 
ATOM     11  C   UNL     1       3.810   6.898  17.067  0.00  0.00    +0.000 C 
ATOM     12  C   UNL     1       2.689   6.190  19.249  0.00  0.00    +0.000 A 
ATOM     13  C   UNL     1       3.134   4.757  19.091  0.00  0.00    +0.000 C 
ATOM     14  C   UNL     1       1.916   6.513  20.386  0.00  0.00    +0.000 A 
ATOM     15  C   UNL     1       1.452   7.830  20.541  0.00  0.00    +0.000 A 
ATOM     16  S   UNL     1       0.545   8.550  21.814  0.00  0.00    +0.000 S 
ATOM     17  C   UNL     1      -0.857  11.172  22.634  0.00  0.00    +0.000 C 
ATOM     18  O   UNL     1      -1.349  10.268  23.284  0.00  0.00    +0.000 OA
ENDROOT
BRANCH   1  21
ATOM     19  C   UNL     1      -3.928  16.331  23.612  0.00  0.00    +0.000 A 
ATOM     20  C   UNL     1      -3.413  15.076  23.235  0.00  0.00    +0.000 A 
ATOM     21  C   UNL     1      -2.398  14.461  23.965  0.00  0.00    +0.000 A 
ATOM     22  C   UNL     1      -1.827  15.169  25.021  0.00  0.00    +0.000 A 
ATOM     23  C   UNL     1      -2.257  16.460  25.356  0.00  0.00    +0.000 A 
ATOM     24  C   UNL     1      -3.318  17.064  24.652  0.00  0.00    +0.000 A 
BRANCH  19  26
ATOM     25  C   UNL     1      -6.265  16.194  23.290  0.00  0.00    +0.000 C 
ATOM     26  O   UNL     1      -5.027  16.835  22.960  0.00  0.00    +0.000 OA
ENDBRANCH  19  26
BRANCH  23  27
ATOM     27  O   UNL     1      -1.518  17.005  26.381  0.00  0.00    +0.000 OA
ATOM     28  C   UNL     1      -0.143  17.255  26.129  0.00  0.00    +0.000 C 
ENDBRANCH  23  27
BRANCH  24  29
ATOM     29  O   UNL     1      -3.646  18.319  25.080  0.00  0.00    +0.000 OA
ATOM     30  C   UNL     1      -4.823  18.569  25.820  0.00  0.00    +0.000 C 
ENDBRANCH  24  29
ENDBRANCH   1  21
BRANCH   4  31
ATOM     31  C   UNL     1       1.109  13.053  20.145  0.00  0.00    +0.000 A 
ATOM     32  C   UNL     1       0.812  13.040  18.782  0.00  0.00    +0.000 A 
ATOM     33  C   UNL     1       1.701  13.596  17.855  0.00  0.00    +0.000 A 
ATOM     34  C   UNL     1       2.939  14.080  18.271  0.00  0.00    +0.000 A 
ATOM     35  C   UNL     1       3.295  14.004  19.614  0.00  0.00    +0.000 A 
ATOM     36  C   UNL     1       2.382  13.500  20.545  0.00  0.00    +0.000 A 
ENDBRANCH   4  31
TORSDOF 5
ENDMDL
MODEL 7
REMARK VINA RESULT:      -6.7      3.416     10.279
REMARK  Name = 
REMARK  10 active torsions:
REMARK  status: ('A' for Active; 'I' for Inactive)
REMARK    1  A    between atoms: C_1  and  O_2
REMARK    2  A    between atoms: O_2  and  C_3
REMARK    3  A    between atoms: C_5  and  C_6
REMARK    4  A    between atoms: C_9  and  C_10
REMARK    5  A    between atoms: C_21  and  C_22
REMARK    6  A    between atoms: C_23  and  C_24
REMARK    7  A    between atoms: C_31  and  O_32
REMARK    8  A    between atoms: O_32  and  C_33
REMARK    9  A    between atoms: C_34  and  O_35
REMARK   10  A    between atoms: O_35  and  C_36
REMARK                            x       y       z     vdW  Elec       q    Type
REMARK                         _______ _______ _______ _____ _____    ______ ____
ROOT
ATOM      1  C   UNL     1      -2.087  12.666  23.589  0.00  0.00    +0.000 C 
ATOM      2  C   UNL     1      -1.192  12.293  22.669  0.00  0.00    +0.000 C 
ATOM      3  N   UNL     1      -0.524  13.103  21.797  0.00  0.00    +0.000 NA
ATOM      4  C   UNL     1       0.241  12.309  21.100  0.00  0.00    +0.000 C 
ATOM      5  N   UNL     1       0.134  10.980  21.452  0.00  0.00    +0.000 N 
ATOM      6  C   UNL     1       0.706   9.896  20.816  0.00  0.00    +0.000 A 
ATOM      7  N   UNL     1       1.291   9.935  19.648  0.00  0.00    +0.000 NA
ATOM      8  C   UNL     1       1.886   8.727  19.349  0.00  0.00    +0.000 A 
ATOM      9  C   UNL     1       2.679   8.472  18.220  0.00  0.00    +0.000 A 
ATOM     10  C   UNL     1       3.229   7.199  18.003  0.00  0.00    +0.000 A 
ATOM     11  C   UNL     1       4.073   7.000  16.775  0.00  0.00    +0.000 C 
ATOM     12  C   UNL     1       2.968   6.165  18.920  0.00  0.00    +0.000 A 
ATOM     13  C   UNL     1       3.468   4.758  18.710  0.00  0.00    +0.000 C 
ATOM     14  C   UNL     1       2.177   6.416  20.064  0.00  0.00    +0.000 A 
ATOM     15  C   UNL     1       1.662   7.707  20.266  0.00  0.00    +0.000 A 
ATOM     16  S   UNL     1       0.722   8.343  21.558  0.00  0.00    +0.000 S 
ATOM     17  C   UNL     1      -0.784  10.877  22.468  0.00  0.00    +0.000 C 
ATOM     18  O   UNL     1      -1.245   9.930  23.080  0.00  0.00    +0.000 OA
ENDROOT
BRANCH   1  21
ATOM     19  C   UNL     1      -1.739  16.224  24.766  0.00  0.00    +0.000 A 
ATOM     20  C   UNL     1      -1.561  14.833  24.639  0.00  0.00    +0.000 A 
ATOM     21  C   UNL     1      -2.457  14.052  23.913  0.00  0.00    +0.000 A 
ATOM     22  C   UNL     1      -3.599  14.665  23.401  0.00  0.00    +0.000 A 
ATOM     23  C   UNL     1      -3.847  16.030  23.595  0.00  0.00    +0.000 A 
ATOM     24  C   UNL     1      -2.917  16.834  24.285  0.00  0.00    +0.000 A 
BRANCH  19  26
ATOM     25  C   UNL     1       0.267  17.435  24.468  0.00  0.00    +0.000 C 
ATOM     26  O   UNL     1      -0.758  16.981  25.358  0.00  0.00    +0.000 OA
ENDBRANCH  19  26
BRANCH  23  27
ATOM     27  O   UNL     1      -5.059  16.418  23.070  0.00  0.00    +0.000 OA
ATOM     28  C   UNL     1      -6.229  16.011  23.764  0.00  0.00    +0.000 C 
ENDBRANCH  23  27
BRANCH  24  29
ATOM     29  O   UNL     1      -3.274  18.147  24.402  0.00  0.00    +0.000 OA
ATOM     30  C   UNL     1      -3.975  18.631  25.529  0.00  0.00    +0.000 C 
ENDBRANCH  24  29
ENDBRANCH   1  21
BRANCH   4  31
ATOM     31  C   UNL     1       1.123  12.924  20.067  0.00  0.00    +0.000 A 
ATOM     32  C   UNL     1       0.816  12.989  18.708  0.00  0.00    +0.000 A 
ATOM     33  C   UNL     1       1.691  13.611  17.809  0.00  0.00    +0.000 A 
ATOM     34  C   UNL     1       2.925  14.086  18.245  0.00  0.00    +0.000 A 
ATOM     35  C   UNL     1       3.293  13.935  19.578  0.00  0.00    +0.000 A 
ATOM     36  C   UNL     1       2.394  13.365  20.484  0.00  0.00    +0.000 A 
ENDBRANCH   4  31
TORSDOF 5
ENDMDL
MODEL 8
REMARK VINA RESULT:      -6.6      3.295     10.025
REMARK  Name = 
REMARK  10 active torsions:
REMARK  status: ('A' for Active; 'I' for Inactive)
REMARK    1  A    between atoms: C_1  and  O_2
REMARK    2  A    between atoms: O_2  and  C_3
REMARK    3  A    between atoms: C_5  and  C_6
REMARK    4  A    between atoms: C_9  and  C_10
REMARK    5  A    between atoms: C_21  and  C_22
REMARK    6  A    between atoms: C_23  and  C_24
REMARK    7  A    between atoms: C_31  and  O_32
REMARK    8  A    between atoms: O_32  and  C_33
REMARK    9  A    between atoms: C_34  and  O_35
REMARK   10  A    between atoms: O_35  and  C_36
REMARK                            x       y       z     vdW  Elec       q    Type
REMARK                         _______ _______ _______ _____ _____    ______ ____
ROOT
ATOM      1  C   UNL     1      -1.961  11.554  23.214  0.00  0.00    +0.000 C 
ATOM      2  C   UNL     1      -1.009  11.303  22.309  0.00  0.00    +0.000 C 
ATOM      3  N   UNL     1      -0.363  12.212  21.522  0.00  0.00    +0.000 NA
ATOM      4  C   UNL     1       0.477  11.518  20.805  0.00  0.00    +0.000 C 
ATOM      5  N   UNL     1       0.444  10.164  21.062  0.00  0.00    +0.000 N 
ATOM      6  C   UNL     1       1.109   9.165  20.379  0.00  0.00    +0.000 A 
ATOM      7  N   UNL     1       1.733   9.322  19.242  0.00  0.00    +0.000 NA
ATOM      8  C   UNL     1       2.417   8.177  18.888  0.00  0.00    +0.000 A 
ATOM      9  C   UNL     1       3.266   8.052  17.778  0.00  0.00    +0.000 A 
ATOM     10  C   UNL     1       3.906   6.834  17.498  0.00  0.00    +0.000 A 
ATOM     11  C   UNL     1       4.807   6.774  16.296  0.00  0.00    +0.000 C 
ATOM     12  C   UNL     1       3.679   5.725  18.332  0.00  0.00    +0.000 A 
ATOM     13  C   UNL     1       4.277   4.370  18.050  0.00  0.00    +0.000 C 
ATOM     14  C   UNL     1       2.831   5.844  19.457  0.00  0.00    +0.000 A 
ATOM     15  C   UNL     1       2.226   7.084  19.723  0.00  0.00    +0.000 A 
ATOM     16  S   UNL     1       1.198   7.568  21.015  0.00  0.00    +0.000 S 
ATOM     17  C   UNL     1      -0.502   9.933  22.030  0.00  0.00    +0.000 C 
ATOM     18  O   UNL     1      -0.923   8.918  22.557  0.00  0.00    +0.000 OA
ENDROOT
BRANCH   1  21
ATOM     19  C   UNL     1      -1.861  15.218  24.068  0.00  0.00    +0.000 A 
ATOM     20  C   UNL     1      -1.491  13.867  23.923  0.00  0.00    +0.000 A 
ATOM     21  C   UNL     1      -2.432  12.888  23.614  0.00  0.00    +0.000 A 
ATOM     22  C   UNL     1      -3.774  13.260  23.558  0.00  0.00    +0.000 A 
ATOM     23  C   UNL     1      -4.178  14.580  23.794  0.00  0.00    +0.000 A 
ATOM     24  C   UNL     1      -3.224  15.584  24.055  0.00  0.00    +0.000 A 
BRANCH  19  26
ATOM     25  C   UNL     1      -0.164  16.489  23.026  0.00  0.00    +0.000 C 
ATOM     26  O   UNL     1      -0.887  16.174  24.222  0.00  0.00    +0.000 OA
ENDBRANCH  19  26
BRANCH  23  27
ATOM     27  O   UNL     1      -5.547  14.719  23.758  0.00  0.00    +0.000 OA
ATOM     28  C   UNL     1      -6.324  13.535  23.864  0.00  0.00    +0.000 C 
ENDBRANCH  23  27
BRANCH  24  29
ATOM     29  O   UNL     1      -3.746  16.829  24.261  0.00  0.00    +0.000 OA
ATOM     30  C   UNL     1      -3.848  17.775  23.216  0.00  0.00    +0.000 C 
ENDBRANCH  24  29
ENDBRANCH   1  21
BRANCH   4  31
ATOM     31  C   UNL     1       1.355  12.258  19.854  0.00  0.00    +0.000 A 
ATOM     32  C   UNL     1       1.385  12.036  18.477  0.00  0.00    +0.000 A 
ATOM     33  C   UNL     1       2.221  12.798  17.652  0.00  0.00    +0.000 A 
ATOM     34  C   UNL     1       3.107  13.719  18.206  0.00  0.00    +0.000 A 
ATOM     35  C   UNL     1       3.165  13.877  19.587  0.00  0.00    +0.000 A 
ATOM     36  C   UNL     1       2.289  13.156  20.404  0.00  0.00    +0.000 A 
ENDBRANCH   4  31
TORSDOF 5
ENDMDL
MODEL 9
REMARK VINA RESULT:      -6.6      2.206      3.345
REMARK  Name = 
REMARK  10 active torsions:
REMARK  status: ('A' for Active; 'I' for Inactive)
REMARK    1  A    between atoms: C_1  and  O_2
REMARK    2  A    between atoms: O_2  and  C_3
REMARK    3  A    between atoms: C_5  and  C_6
REMARK    4  A    between atoms: C_9  and  C_10
REMARK    5  A    between atoms: C_21  and  C_22
REMARK    6  A    between atoms: C_23  and  C_24
REMARK    7  A    between atoms: C_31  and  O_32
REMARK    8  A    between atoms: O_32  and  C_33
REMARK    9  A    between atoms: C_34  and  O_35
REMARK   10  A    between atoms: O_35  and  C_36
REMARK                            x       y       z     vdW  Elec       q    Type
REMARK                         _______ _______ _______ _____ _____    ______ ____
ROOT
ATOM      1  C   UNL     1       0.674   7.585  21.509  0.00  0.00    +0.000 C 
ATOM      2  C   UNL     1       0.536   8.911  21.420  0.00  0.00    +0.000 C 
ATOM      3  N   UNL     1       1.197   9.752  20.571  0.00  0.00    +0.000 NA
ATOM      4  C   UNL     1       0.740  10.945  20.837  0.00  0.00    +0.000 C 
ATOM      5  N   UNL     1      -0.212  10.968  21.834  0.00  0.00    +0.000 N 
ATOM      6  C   UNL     1      -0.778  12.080  22.426  0.00  0.00    +0.000 A 
ATOM      7  N   UNL     1      -0.357  13.309  22.271  0.00  0.00    +0.000 NA
ATOM      8  C   UNL     1      -1.213  14.207  22.873  0.00  0.00    +0.000 A 
ATOM      9  C   UNL     1      -1.100  15.604  22.802  0.00  0.00    +0.000 A 
ATOM     10  C   UNL     1      -2.021  16.432  23.464  0.00  0.00    +0.000 A 
ATOM     11  C   UNL     1      -1.842  17.919  23.340  0.00  0.00    +0.000 C 
ATOM     12  C   UNL     1      -3.056  15.852  24.218  0.00  0.00    +0.000 A 
ATOM     13  C   UNL     1      -4.035  16.681  25.011  0.00  0.00    +0.000 C 
ATOM     14  C   UNL     1      -3.181  14.446  24.288  0.00  0.00    +0.000 A 
ATOM     15  C   UNL     1      -2.259  13.646  23.593  0.00  0.00    +0.000 A 
ATOM     16  S   UNL     1      -2.165  11.936  23.435  0.00  0.00    +0.000 S 
ATOM     17  C   UNL     1      -0.405   9.683  22.275  0.00  0.00    +0.000 C 
ATOM     18  O   UNL     1      -1.100   9.200  23.152  0.00  0.00    +0.000 OA
ENDROOT
BRANCH   1  21
ATOM     19  C   UNL     1       3.063   6.659  18.751  0.00  0.00    +0.000 A 
ATOM     20  C   UNL     1       2.070   7.327  19.493  0.00  0.00    +0.000 A 
ATOM     21  C   UNL     1       1.503   6.749  20.627  0.00  0.00    +0.000 A 
ATOM     22  C   UNL     1       1.867   5.443  20.952  0.00  0.00    +0.000 A 
ATOM     23  C   UNL     1       2.783   4.724  20.174  0.00  0.00    +0.000 A 
ATOM     24  C   UNL     1       3.397   5.323  19.056  0.00  0.00    +0.000 A 
BRANCH  19  26
ATOM     25  C   UNL     1       3.128   8.583  17.381  0.00  0.00    +0.000 C 
ATOM     26  O   UNL     1       3.705   7.320  17.732  0.00  0.00    +0.000 OA
ENDBRANCH  19  26
BRANCH  23  27
ATOM     27  O   UNL     1       2.951   3.435  20.627  0.00  0.00    +0.000 OA
ATOM     28  C   UNL     1       1.989   2.939  21.547  0.00  0.00    +0.000 C 
ENDBRANCH  23  27
BRANCH  24  29
ATOM     29  O   UNL     1       4.275   4.518  18.386  0.00  0.00    +0.000 OA
ATOM     30  C   UNL     1       3.895   3.807  17.225  0.00  0.00    +0.000 C 
ENDBRANCH  24  29
ENDBRANCH   1  21
BRANCH   4  31
ATOM     31  C   UNL     1       1.269  12.085  20.034  0.00  0.00    +0.000 A 
ATOM     32  C   UNL     1       2.370  12.860  20.400  0.00  0.00    +0.000 A 
ATOM     33  C   UNL     1       2.817  13.896  19.572  0.00  0.00    +0.000 A 
ATOM     34  C   UNL     1       2.108  14.232  18.421  0.00  0.00    +0.000 A 
ATOM     35  C   UNL     1       0.947  13.538  18.097  0.00  0.00    +0.000 A 
ATOM     36  C   UNL     1       0.535  12.467  18.895  0.00  0.00    +0.000 A 
ENDBRANCH   4  31
TORSDOF 5
ENDMDL
