MODEL 1
REMARK VINA RESULT:      -7.2      0.000      0.000
REMARK  Name = 
REMARK  10 active torsions:
REMARK  status: ('A' for Active; 'I' for Inactive)
REMARK    1  A    between atoms: C_1  and  O_2
REMARK    2  A    between atoms: O_2  and  C_3
REMARK    3  A    between atoms: C_3  and  C_5
REMARK    4  A    between atoms: C_5  and  C_6
REMARK    5  A    between atoms: C_5  and  N_10
REMARK    6  A    between atoms: C_6  and  C_7
REMARK    7  A    between atoms: C_7  and  C_8
REMARK    8  A    between atoms: C_7  and  C_9
REMARK    9  A    between atoms: N_10  and  S_11
REMARK   10  A    between atoms: S_11  and  C_14
REMARK                            x       y       z     vdW  Elec       q    Type
REMARK                         _______ _______ _______ _____ _____    ______ ____
ROOT
ATOM      1  N   UNL     1       5.018   4.077  16.877  0.00  0.00    +0.000 NA
ATOM      2  H   UNL     1       5.496   3.316  17.371  0.00  0.00    +0.000 HD
ENDROOT
BRANCH   1   3
ATOM      3  S   UNL     1       4.320   5.067  18.072  0.00  0.00    +0.000 S 
ATOM      4  O   UNL     1       5.241   5.140  19.181  0.00  0.00    +0.000 OA
ATOM      5  O   UNL     1       3.893   6.274  17.399  0.00  0.00    +0.000 OA
BRANCH   3   6
ATOM      6  C   UNL     1       2.871   4.188  18.587  0.00  0.00    +0.000 A 
ATOM      7  C   UNL     1       2.652   2.919  18.027  0.00  0.00    +0.000 A 
ATOM      8  C   UNL     1       1.576   2.135  18.449  0.00  0.00    +0.000 A 
ATOM      9  C   UNL     1       0.723   2.618  19.436  0.00  0.00    +0.000 A 
ATOM     10  C   UNL     1       0.930   3.887  19.984  0.00  0.00    +0.000 A 
ATOM     11  C   UNL     1       1.995   4.690  19.548  0.00  0.00    +0.000 A 
ATOM     12 BR   UNL     1       2.123   6.412  20.333  0.00  0.00    +0.000 Br
ENDBRANCH   3   6
ENDBRANCH   1   3
BRANCH   1  13
ATOM     13  C   UNL     1       5.928   4.725  15.886  0.00  0.00    +0.000 C 
BRANCH  13  14
ATOM     14  C   UNL     1       7.274   5.090  16.514  0.00  0.00    +0.000 C 
ATOM     15  O   UNL     1       8.005   4.282  17.076  0.00  0.00    +0.000 OA
BRANCH  14  17
ATOM     16  C   UNL     1       7.570   7.182  17.576  0.00  0.00    +0.000 C 
ATOM     17  O   UNL     1       7.527   6.420  16.363  0.00  0.00    +0.000 OA
ENDBRANCH  14  17
ENDBRANCH  13  14
BRANCH  13  18
ATOM     18  C   UNL     1       6.210   3.750  14.726  0.00  0.00    +0.000 C 
BRANCH  18  19
ATOM     19  C   UNL     1       6.237   4.331  13.296  0.00  0.00    +0.000 C 
ATOM     20  C   UNL     1       7.572   4.974  12.921  0.00  0.00    +0.000 C 
ATOM     21  C   UNL     1       5.924   3.208  12.298  0.00  0.00    +0.000 C 
ENDBRANCH  18  19
ENDBRANCH  13  18
ENDBRANCH   1  13
TORSDOF 7
ENDMDL
MODEL 2
REMARK VINA RESULT:      -6.9      1.987      3.839
REMARK  Name = 
REMARK  10 active torsions:
REMARK  status: ('A' for Active; 'I' for Inactive)
REMARK    1  A    between atoms: C_1  and  O_2
REMARK    2  A    between atoms: O_2  and  C_3
REMARK    3  A    between atoms: C_3  and  C_5
REMARK    4  A    between atoms: C_5  and  C_6
REMARK    5  A    between atoms: C_5  and  N_10
REMARK    6  A    between atoms: C_6  and  C_7
REMARK    7  A    between atoms: C_7  and  C_8
REMARK    8  A    between atoms: C_7  and  C_9
REMARK    9  A    between atoms: N_10  and  S_11
REMARK   10  A    between atoms: S_11  and  C_14
REMARK                            x       y       z     vdW  Elec       q    Type
REMARK                         _______ _______ _______ _____ _____    ______ ____
ROOT
ATOM      1  N   UNL     1       4.754   4.438  16.915  0.00  0.00    +0.000 NA
ATOM      2  H   UNL     1       4.485   3.757  16.196  0.00  0.00    +0.000 HD
ENDROOT
BRANCH   1   3
ATOM      3  S   UNL     1       4.267   3.783  18.408  0.00  0.00    +0.000 S 
ATOM      4  O   UNL     1       3.421   2.645  18.139  0.00  0.00    +0.000 OA
ATOM      5  O   UNL     1       5.471   3.625  19.193  0.00  0.00    +0.000 OA
BRANCH   3   6
ATOM      6  C   UNL     1       3.291   5.058  19.156  0.00  0.00    +0.000 A 
ATOM      7  C   UNL     1       3.300   6.321  18.543  0.00  0.00    +0.000 A 
ATOM      8  C   UNL     1       2.489   7.350  19.030  0.00  0.00    +0.000 A 
ATOM      9  C   UNL     1       1.666   7.112  20.126  0.00  0.00    +0.000 A 
ATOM     10  C   UNL     1       1.668   5.860  20.747  0.00  0.00    +0.000 A 
ATOM     11  C   UNL     1       2.496   4.829  20.278  0.00  0.00    +0.000 A 
ATOM     12 BR   UNL     1       2.442   3.201  21.250  0.00  0.00    +0.000 Br
ENDBRANCH   3   6
ENDBRANCH   1   3
BRANCH   1  13
ATOM     13  C   UNL     1       6.187   4.834  16.767  0.00  0.00    +0.000 C 
BRANCH  13  14
ATOM     14  C   UNL     1       6.669   4.667  15.325  0.00  0.00    +0.000 C 
ATOM     15  O   UNL     1       7.660   5.226  14.870  0.00  0.00    +0.000 OA
BRANCH  14  17
ATOM     16  C   UNL     1       6.047   3.785  13.221  0.00  0.00    +0.000 C 
ATOM     17  O   UNL     1       5.844   3.828  14.638  0.00  0.00    +0.000 OA
ENDBRANCH  14  17
ENDBRANCH  13  14
BRANCH  13  18
ATOM     18  C   UNL     1       6.355   6.319  17.141  0.00  0.00    +0.000 C 
BRANCH  18  19
ATOM     19  C   UNL     1       7.705   6.751  17.754  0.00  0.00    +0.000 C 
ATOM     20  C   UNL     1       7.898   8.267  17.803  0.00  0.00    +0.000 C 
ATOM     21  C   UNL     1       7.807   6.188  19.177  0.00  0.00    +0.000 C 
ENDBRANCH  18  19
ENDBRANCH  13  18
ENDBRANCH   1  13
TORSDOF 7
ENDMDL
MODEL 3
REMARK VINA RESULT:      -6.8      2.069      3.889
REMARK  Name = 
REMARK  10 active torsions:
REMARK  status: ('A' for Active; 'I' for Inactive)
REMARK    1  A    between atoms: C_1  and  O_2
REMARK    2  A    between atoms: O_2  and  C_3
REMARK    3  A    between atoms: C_3  and  C_5
REMARK    4  A    between atoms: C_5  and  C_6
REMARK    5  A    between atoms: C_5  and  N_10
REMARK    6  A    between atoms: C_6  and  C_7
REMARK    7  A    between atoms: C_7  and  C_8
REMARK    8  A    between atoms: C_7  and  C_9
REMARK    9  A    between atoms: N_10  and  S_11
REMARK   10  A    between atoms: S_11  and  C_14
REMARK                            x       y       z     vdW  Elec       q    Type
REMARK                         _______ _______ _______ _____ _____    ______ ____
ROOT
ATOM      1  N   UNL     1       4.758   4.798  16.499  0.00  0.00    +0.000 NA
ATOM      2  H   UNL     1       4.208   5.023  15.662  0.00  0.00    +0.000 HD
ENDROOT
BRANCH   1   3
ATOM      3  S   UNL     1       3.731   3.917  17.530  0.00  0.00    +0.000 S 
ATOM      4  O   UNL     1       2.670   3.356  16.727  0.00  0.00    +0.000 OA
ATOM      5  O   UNL     1       4.587   3.051  18.311  0.00  0.00    +0.000 OA
BRANCH   3   6
ATOM      6  C   UNL     1       3.043   5.133  18.620  0.00  0.00    +0.000 A 
ATOM      7  C   UNL     1       3.153   6.479  18.235  0.00  0.00    +0.000 A 
ATOM      8  C   UNL     1       2.561   7.484  19.003  0.00  0.00    +0.000 A 
ATOM      9  C   UNL     1       1.854   7.142  20.152  0.00  0.00    +0.000 A 
ATOM     10  C   UNL     1       1.758   5.804  20.544  0.00  0.00    +0.000 A 
ATOM     11  C   UNL     1       2.369   4.791  19.790  0.00  0.00    +0.000 A 
ATOM     12 BR   UNL     1       2.208   3.026  20.469  0.00  0.00    +0.000 Br
ENDBRANCH   3   6
ENDBRANCH   1   3
BRANCH   1  13
ATOM     13  C   UNL     1       6.065   4.178  16.128  0.00  0.00    +0.000 C 
BRANCH  13  14
ATOM     14  C   UNL     1       6.467   4.529  14.695  0.00  0.00    +0.000 C 
ATOM     15  O   UNL     1       7.413   5.256  14.412  0.00  0.00    +0.000 OA
BRANCH  14  17
ATOM     16  C   UNL     1       6.233   3.510  12.575  0.00  0.00    +0.000 C 
ATOM     17  O   UNL     1       5.628   3.932  13.803  0.00  0.00    +0.000 OA
ENDBRANCH  14  17
ENDBRANCH  13  14
BRANCH  13  18
ATOM     18  C   UNL     1       7.172   4.707  17.061  0.00  0.00    +0.000 C 
BRANCH  18  19
ATOM     19  C   UNL     1       6.810   5.873  18.006  0.00  0.00    +0.000 C 
ATOM     20  C   UNL     1       7.257   5.651  19.451  0.00  0.00    +0.000 C 
ATOM     21  C   UNL     1       7.456   7.160  17.475  0.00  0.00    +0.000 C 
ENDBRANCH  18  19
ENDBRANCH  13  18
ENDBRANCH   1  13
TORSDOF 7
ENDMDL
MODEL 4
REMARK VINA RESULT:      -6.8      2.050      3.736
REMARK  Name = 
REMARK  10 active torsions:
REMARK  status: ('A' for Active; 'I' for Inactive)
REMARK    1  A    between atoms: C_1  and  O_2
REMARK    2  A    between atoms: O_2  and  C_3
REMARK    3  A    between atoms: C_3  and  C_5
REMARK    4  A    between atoms: C_5  and  C_6
REMARK    5  A    between atoms: C_5  and  N_10
REMARK    6  A    between atoms: C_6  and  C_7
REMARK    7  A    between atoms: C_7  and  C_8
REMARK    8  A    between atoms: C_7  and  C_9
REMARK    9  A    between atoms: N_10  and  S_11
REMARK   10  A    between atoms: S_11  and  C_14
REMARK                            x       y       z     vdW  Elec       q    Type
REMARK                         _______ _______ _______ _____ _____    ______ ____
ROOT
ATOM      1  N   UNL     1       4.989   4.764  17.053  0.00  0.00    +0.000 NA
ATOM      2  H   UNL     1       4.273   4.936  16.339  0.00  0.00    +0.000 HD
ENDROOT
BRANCH   1   3
ATOM      3  S   UNL     1       4.249   3.827  18.265  0.00  0.00    +0.000 S 
ATOM      4  O   UNL     1       3.380   2.872  17.620  0.00  0.00    +0.000 OA
ATOM      5  O   UNL     1       5.313   3.371  19.131  0.00  0.00    +0.000 OA
BRANCH   3   6
ATOM      6  C   UNL     1       3.258   4.979  19.176  0.00  0.00    +0.000 A 
ATOM      7  C   UNL     1       3.218   6.303  18.713  0.00  0.00    +0.000 A 
ATOM      8  C   UNL     1       2.393   7.245  19.331  0.00  0.00    +0.000 A 
ATOM      9  C   UNL     1       1.603   6.860  20.411  0.00  0.00    +0.000 A 
ATOM     10  C   UNL     1       1.654   5.545  20.883  0.00  0.00    +0.000 A 
ATOM     11  C   UNL     1       2.497   4.600  20.281  0.00  0.00    +0.000 A 
ATOM     12 BR   UNL     1       2.511   2.870  21.060  0.00  0.00    +0.000 Br
ENDBRANCH   3   6
ENDBRANCH   1   3
BRANCH   1  13
ATOM     13  C   UNL     1       6.242   4.234  16.436  0.00  0.00    +0.000 C 
BRANCH  13  14
ATOM     14  C   UNL     1       6.297   4.528  14.937  0.00  0.00    +0.000 C 
ATOM     15  O   UNL     1       5.412   4.215  14.148  0.00  0.00    +0.000 OA
BRANCH  14  17
ATOM     16  C   UNL     1       7.767   5.221  13.220  0.00  0.00    +0.000 C 
ATOM     17  O   UNL     1       7.456   5.169  14.617  0.00  0.00    +0.000 OA
ENDBRANCH  14  17
ENDBRANCH  13  14
BRANCH  13  18
ATOM     18  C   UNL     1       7.464   4.912  17.084  0.00  0.00    +0.000 C 
BRANCH  18  19
ATOM     19  C   UNL     1       7.196   6.028  18.117  0.00  0.00    +0.000 C 
ATOM     20  C   UNL     1       7.897   5.803  19.457  0.00  0.00    +0.000 C 
ATOM     21  C   UNL     1       7.658   7.369  17.530  0.00  0.00    +0.000 C 
ENDBRANCH  18  19
ENDBRANCH  13  18
ENDBRANCH   1  13
TORSDOF 7
ENDMDL
MODEL 5
REMARK VINA RESULT:      -6.7      1.459      1.800
REMARK  Name = 
REMARK  10 active torsions:
REMARK  status: ('A' for Active; 'I' for Inactive)
REMARK    1  A    between atoms: C_1  and  O_2
REMARK    2  A    between atoms: O_2  and  C_3
REMARK    3  A    between atoms: C_3  and  C_5
REMARK    4  A    between atoms: C_5  and  C_6
REMARK    5  A    between atoms: C_5  and  N_10
REMARK    6  A    between atoms: C_6  and  C_7
REMARK    7  A    between atoms: C_7  and  C_8
REMARK    8  A    between atoms: C_7  and  C_9
REMARK    9  A    between atoms: N_10  and  S_11
REMARK   10  A    between atoms: S_11  and  C_14
REMARK                            x       y       z     vdW  Elec       q    Type
REMARK                         _______ _______ _______ _____ _____    ______ ____
ROOT
ATOM      1  N   UNL     1       5.127   3.907  17.398  0.00  0.00    +0.000 NA
ATOM      2  H   UNL     1       5.625   3.056  17.684  0.00  0.00    +0.000 HD
ENDROOT
BRANCH   1   3
ATOM      3  S   UNL     1       4.792   4.773  18.823  0.00  0.00    +0.000 S 
ATOM      4  O   UNL     1       5.832   4.476  19.779  0.00  0.00    +0.000 OA
ATOM      5  O   UNL     1       4.546   6.140  18.417  0.00  0.00    +0.000 OA
BRANCH   3   6
ATOM      6  C   UNL     1       3.264   4.094  19.408  0.00  0.00    +0.000 A 
ATOM      7  C   UNL     1       2.374   4.969  20.052  0.00  0.00    +0.000 A 
ATOM      8  C   UNL     1       1.117   4.521  20.465  0.00  0.00    +0.000 A 
ATOM      9  C   UNL     1       0.748   3.201  20.228  0.00  0.00    +0.000 A 
ATOM     10  C   UNL     1       1.639   2.325  19.601  0.00  0.00    +0.000 A 
ATOM     11  C   UNL     1       2.912   2.761  19.204  0.00  0.00    +0.000 A 
ATOM     12 BR   UNL     1       4.041   1.453  18.419  0.00  0.00    +0.000 Br
ENDBRANCH   3   6
ENDBRANCH   1   3
BRANCH   1  13
ATOM     13  C   UNL     1       5.867   4.618  16.312  0.00  0.00    +0.000 C 
BRANCH  13  14
ATOM     14  C   UNL     1       7.278   5.007  16.755  0.00  0.00    +0.000 C 
ATOM     15  O   UNL     1       8.070   4.226  17.270  0.00  0.00    +0.000 OA
BRANCH  14  17
ATOM     16  C   UNL     1       7.621   7.165  17.658  0.00  0.00    +0.000 C 
ATOM     17  O   UNL     1       7.512   6.325  16.503  0.00  0.00    +0.000 OA
ENDBRANCH  14  17
ENDBRANCH  13  14
BRANCH  13  18
ATOM     18  C   UNL     1       6.007   3.692  15.089  0.00  0.00    +0.000 C 
BRANCH  18  19
ATOM     19  C   UNL     1       6.032   4.353  13.693  0.00  0.00    +0.000 C 
ATOM     20  C   UNL     1       7.408   4.886  13.293  0.00  0.00    +0.000 C 
ATOM     21  C   UNL     1       5.570   3.327  12.650  0.00  0.00    +0.000 C 
ENDBRANCH  18  19
ENDBRANCH  13  18
ENDBRANCH   1  13
TORSDOF 7
ENDMDL
MODEL 6
REMARK VINA RESULT:      -6.7      2.469      6.294
REMARK  Name = 
REMARK  10 active torsions:
REMARK  status: ('A' for Active; 'I' for Inactive)
REMARK    1  A    between atoms: C_1  and  O_2
REMARK    2  A    between atoms: O_2  and  C_3
REMARK    3  A    between atoms: C_3  and  C_5
REMARK    4  A    between atoms: C_5  and  C_6
REMARK    5  A    between atoms: C_5  and  N_10
REMARK    6  A    between atoms: C_6  and  C_7
REMARK    7  A    between atoms: C_7  and  C_8
REMARK    8  A    between atoms: C_7  and  C_9
REMARK    9  A    between atoms: N_10  and  S_11
REMARK   10  A    between atoms: S_11  and  C_14
REMARK                            x       y       z     vdW  Elec       q    Type
REMARK                         _______ _______ _______ _____ _____    ______ ____
ROOT
ATOM      1  N   UNL     1       5.258   3.381  19.335  0.00  0.00    +0.000 NA
ATOM      2  H   UNL     1       5.704   2.777  18.636  0.00  0.00    +0.000 HD
ENDROOT
BRANCH   1   3
ATOM      3  S   UNL     1       5.736   4.974  18.974  0.00  0.00    +0.000 S 
ATOM      4  O   UNL     1       4.580   5.827  19.116  0.00  0.00    +0.000 OA
ATOM      5  O   UNL     1       6.926   5.226  19.756  0.00  0.00    +0.000 OA
BRANCH   3   6
ATOM      6  C   UNL     1       6.205   4.922  17.266  0.00  0.00    +0.000 A 
ATOM      7  C   UNL     1       5.811   3.798  16.523  0.00  0.00    +0.000 A 
ATOM      8  C   UNL     1       6.073   3.729  15.153  0.00  0.00    +0.000 A 
ATOM      9  C   UNL     1       6.724   4.787  14.526  0.00  0.00    +0.000 A 
ATOM     10  C   UNL     1       7.130   5.899  15.268  0.00  0.00    +0.000 A 
ATOM     11  C   UNL     1       6.891   5.966  16.648  0.00  0.00    +0.000 A 
ATOM     12 BR   UNL     1       7.548   7.506  17.541  0.00  0.00    +0.000 Br
ENDBRANCH   3   6
ENDBRANCH   1   3
BRANCH   1  13
ATOM     13  C   UNL     1       3.793   3.102  19.425  0.00  0.00    +0.000 C 
BRANCH  13  14
ATOM     14  C   UNL     1       3.363   2.030  18.423  0.00  0.00    +0.000 C 
ATOM     15  O   UNL     1       3.648   0.843  18.531  0.00  0.00    +0.000 OA
BRANCH  14  17
ATOM     16  C   UNL     1       1.892   3.757  17.757  0.00  0.00    +0.000 C 
ATOM     17  O   UNL     1       2.637   2.584  17.411  0.00  0.00    +0.000 OA
ENDBRANCH  14  17
ENDBRANCH  13  14
BRANCH  13  18
ATOM     18  C   UNL     1       3.452   2.579  20.834  0.00  0.00    +0.000 C 
BRANCH  18  19
ATOM     19  C   UNL     1       2.391   3.355  21.644  0.00  0.00    +0.000 C 
ATOM     20  C   UNL     1       2.137   4.770  21.123  0.00  0.00    +0.000 C 
ATOM     21  C   UNL     1       1.074   2.569  21.618  0.00  0.00    +0.000 C 
ENDBRANCH  18  19
ENDBRANCH  13  18
ENDBRANCH   1  13
TORSDOF 7
ENDMDL
MODEL 7
REMARK VINA RESULT:      -6.4      1.662      1.946
REMARK  Name = 
REMARK  10 active torsions:
REMARK  status: ('A' for Active; 'I' for Inactive)
REMARK    1  A    between atoms: C_1  and  O_2
REMARK    2  A    between atoms: O_2  and  C_3
REMARK    3  A    between atoms: C_3  and  C_5
REMARK    4  A    between atoms: C_5  and  C_6
REMARK    5  A    between atoms: C_5  and  N_10
REMARK    6  A    between atoms: C_6  and  C_7
REMARK    7  A    between atoms: C_7  and  C_8
REMARK    8  A    between atoms: C_7  and  C_9
REMARK    9  A    between atoms: N_10  and  S_11
REMARK   10  A    between atoms: S_11  and  C_14
REMARK                            x       y       z     vdW  Elec       q    Type
REMARK                         _______ _______ _______ _____ _____    ______ ____
ROOT
ATOM      1  N   UNL     1       5.404   3.595  17.822  0.00  0.00    +0.000 NA
ATOM      2  H   UNL     1       5.455   4.062  18.735  0.00  0.00    +0.000 HD
ENDROOT
BRANCH   1   3
ATOM      3  S   UNL     1       3.792   3.087  17.627  0.00  0.00    +0.000 S 
ATOM      4  O   UNL     1       3.194   3.896  16.592  0.00  0.00    +0.000 OA
ATOM      5  O   UNL     1       3.835   1.648  17.491  0.00  0.00    +0.000 OA
BRANCH   3   6
ATOM      6  C   UNL     1       3.015   3.467  19.173  0.00  0.00    +0.000 A 
ATOM      7  C   UNL     1       2.690   2.390  20.013  0.00  0.00    +0.000 A 
ATOM      8  C   UNL     1       2.152   2.620  21.281  0.00  0.00    +0.000 A 
ATOM      9  C   UNL     1       1.945   3.927  21.711  0.00  0.00    +0.000 A 
ATOM     10  C   UNL     1       2.253   4.999  20.869  0.00  0.00    +0.000 A 
ATOM     11  C   UNL     1       2.772   4.776  19.585  0.00  0.00    +0.000 A 
ATOM     12 BR   UNL     1       3.089   6.319  18.528  0.00  0.00    +0.000 Br
ENDBRANCH   3   6
ENDBRANCH   1   3
BRANCH   1  13
ATOM     13  C   UNL     1       5.995   4.452  16.751  0.00  0.00    +0.000 C 
BRANCH  13  14
ATOM     14  C   UNL     1       7.404   4.918  17.118  0.00  0.00    +0.000 C 
ATOM     15  O   UNL     1       8.238   4.203  17.663  0.00  0.00    +0.000 OA
BRANCH  14  17
ATOM     16  C   UNL     1       6.637   7.147  17.303  0.00  0.00    +0.000 C 
ATOM     17  O   UNL     1       7.586   6.221  16.761  0.00  0.00    +0.000 OA
ENDBRANCH  14  17
ENDBRANCH  13  14
BRANCH  13  18
ATOM     18  C   UNL     1       6.102   3.645  15.443  0.00  0.00    +0.000 C 
BRANCH  18  19
ATOM     19  C   UNL     1       6.002   4.425  14.114  0.00  0.00    +0.000 C 
ATOM     20  C   UNL     1       7.353   4.901  13.580  0.00  0.00    +0.000 C 
ATOM     21  C   UNL     1       5.336   3.529  13.062  0.00  0.00    +0.000 C 
ENDBRANCH  18  19
ENDBRANCH  13  18
ENDBRANCH   1  13
TORSDOF 7
ENDMDL
MODEL 8
REMARK VINA RESULT:      -6.3      2.978      6.373
REMARK  Name = 
REMARK  10 active torsions:
REMARK  status: ('A' for Active; 'I' for Inactive)
REMARK    1  A    between atoms: C_1  and  O_2
REMARK    2  A    between atoms: O_2  and  C_3
REMARK    3  A    between atoms: C_3  and  C_5
REMARK    4  A    between atoms: C_5  and  C_6
REMARK    5  A    between atoms: C_5  and  N_10
REMARK    6  A    between atoms: C_6  and  C_7
REMARK    7  A    between atoms: C_7  and  C_8
REMARK    8  A    between atoms: C_7  and  C_9
REMARK    9  A    between atoms: N_10  and  S_11
REMARK   10  A    between atoms: S_11  and  C_14
REMARK                            x       y       z     vdW  Elec       q    Type
REMARK                         _______ _______ _______ _____ _____    ______ ____
ROOT
ATOM      1  N   UNL     1       3.260   4.925  17.994  0.00  0.00    +0.000 NA
ATOM      2  H   UNL     1       3.430   5.772  17.441  0.00  0.00    +0.000 HD
ENDROOT
BRANCH   1   3
ATOM      3  S   UNL     1       4.717   4.048  18.000  0.00  0.00    +0.000 S 
ATOM      4  O   UNL     1       4.723   3.203  19.171  0.00  0.00    +0.000 OA
ATOM      5  O   UNL     1       4.844   3.465  16.683  0.00  0.00    +0.000 OA
BRANCH   3   6
ATOM      6  C   UNL     1       5.978   5.280  18.176  0.00  0.00    +0.000 A 
ATOM      7  C   UNL     1       6.838   5.168  19.280  0.00  0.00    +0.000 A 
ATOM      8  C   UNL     1       7.907   6.055  19.437  0.00  0.00    +0.000 A 
ATOM      9  C   UNL     1       8.117   7.049  18.487  0.00  0.00    +0.000 A 
ATOM     10  C   UNL     1       7.252   7.171  17.396  0.00  0.00    +0.000 A 
ATOM     11  C   UNL     1       6.164   6.298  17.243  0.00  0.00    +0.000 A 
ATOM     12 BR   UNL     1       5.037   6.614  15.750  0.00  0.00    +0.000 Br
ENDBRANCH   3   6
ENDBRANCH   1   3
BRANCH   1  13
ATOM     13  C   UNL     1       2.651   5.265  19.315  0.00  0.00    +0.000 C 
BRANCH  13  14
ATOM     14  C   UNL     1       2.429   6.771  19.461  0.00  0.00    +0.000 C 
ATOM     15  O   UNL     1       2.811   7.598  18.641  0.00  0.00    +0.000 OA
BRANCH  14  17
ATOM     16  C   UNL     1       1.308   8.398  20.760  0.00  0.00    +0.000 C 
ATOM     17  O   UNL     1       1.763   7.047  20.618  0.00  0.00    +0.000 OA
ENDBRANCH  14  17
ENDBRANCH  13  14
BRANCH  13  18
ATOM     18  C   UNL     1       1.275   4.582  19.442  0.00  0.00    +0.000 C 
BRANCH  18  19
ATOM     19  C   UNL     1       1.183   3.326  20.335  0.00  0.00    +0.000 C 
ATOM     20  C   UNL     1       1.538   2.030  19.607  0.00  0.00    +0.000 C 
ATOM     21  C   UNL     1       2.124   3.500  21.535  0.00  0.00    +0.000 C 
ENDBRANCH  18  19
ENDBRANCH  13  18
ENDBRANCH   1  13
TORSDOF 7
ENDMDL
MODEL 9
REMARK VINA RESULT:      -6.3      2.577      4.037
REMARK  Name = 
REMARK  10 active torsions:
REMARK  status: ('A' for Active; 'I' for Inactive)
REMARK    1  A    between atoms: C_1  and  O_2
REMARK    2  A    between atoms: O_2  and  C_3
REMARK    3  A    between atoms: C_3  and  C_5
REMARK    4  A    between atoms: C_5  and  C_6
REMARK    5  A    between atoms: C_5  and  N_10
REMARK    6  A    between atoms: C_6  and  C_7
REMARK    7  A    between atoms: C_7  and  C_8
REMARK    8  A    between atoms: C_7  and  C_9
REMARK    9  A    between atoms: N_10  and  S_11
REMARK   10  A    between atoms: S_11  and  C_14
REMARK                            x       y       z     vdW  Elec       q    Type
REMARK                         _______ _______ _______ _____ _____    ______ ____
ROOT
ATOM      1  N   UNL     1       3.936   5.174  17.438  0.00  0.00    +0.000 NA
ATOM      2  H   UNL     1       3.857   4.956  16.438  0.00  0.00    +0.000 HD
ENDROOT
BRANCH   1   3
ATOM      3  S   UNL     1       4.471   3.753  18.204  0.00  0.00    +0.000 S 
ATOM      4  O   UNL     1       4.537   2.710  17.208  0.00  0.00    +0.000 OA
ATOM      5  O   UNL     1       5.652   4.117  18.955  0.00  0.00    +0.000 OA
BRANCH   3   6
ATOM      6  C   UNL     1       3.187   3.360  19.360  0.00  0.00    +0.000 A 
ATOM      7  C   UNL     1       3.580   2.881  20.620  0.00  0.00    +0.000 A 
ATOM      8  C   UNL     1       2.626   2.630  21.610  0.00  0.00    +0.000 A 
ATOM      9  C   UNL     1       1.281   2.864  21.340  0.00  0.00    +0.000 A 
ATOM     10  C   UNL     1       0.888   3.326  20.081  0.00  0.00    +0.000 A 
ATOM     11  C   UNL     1       1.838   3.558  19.075  0.00  0.00    +0.000 A 
ATOM     12 BR   UNL     1       1.160   4.127  17.396  0.00  0.00    +0.000 Br
ENDBRANCH   3   6
ENDBRANCH   1   3
BRANCH   1  13
ATOM     13  C   UNL     1       4.734   6.419  17.651  0.00  0.00    +0.000 C 
BRANCH  13  14
ATOM     14  C   UNL     1       5.826   6.574  16.592  0.00  0.00    +0.000 C 
ATOM     15  O   UNL     1       5.811   5.999  15.509  0.00  0.00    +0.000 OA
BRANCH  14  17
ATOM     16  C   UNL     1       7.680   6.893  18.024  0.00  0.00    +0.000 C 
ATOM     17  O   UNL     1       6.798   7.423  17.028  0.00  0.00    +0.000 OA
ENDBRANCH  14  17
ENDBRANCH  13  14
BRANCH  13  18
ATOM     18  C   UNL     1       3.812   7.649  17.547  0.00  0.00    +0.000 C 
BRANCH  18  19
ATOM     19  C   UNL     1       2.392   7.528  18.140  0.00  0.00    +0.000 C 
ATOM     20  C   UNL     1       2.378   7.204  19.634  0.00  0.00    +0.000 C 
ATOM     21  C   UNL     1       1.643   8.847  17.907  0.00  0.00    +0.000 C 
ENDBRANCH  18  19
ENDBRANCH  13  18
ENDBRANCH   1  13
TORSDOF 7
ENDMDL
