MODEL 1
REMARK VINA RESULT:      -9.2      0.000      0.000
REMARK  Name = 
REMARK  10 active torsions:
REMARK  status: ('A' for Active; 'I' for Inactive)
REMARK    1  A    between atoms: C_2  and  C_3
REMARK    2  A    between atoms: C_3  and  O_4
REMARK    3  A    between atoms: O_4  and  C_5
REMARK    4  A    between atoms: C_5  and  C_7
REMARK    5  A    between atoms: C_7  and  C_8
REMARK    6  A    between atoms: C_7  and  N_15
REMARK    7  A    between atoms: C_8  and  C_9
REMARK    8  A    between atoms: N_15  and  S_16
REMARK    9  A    between atoms: S_16  and  C_19
REMARK   10  A    between atoms: N_26  and  C_27
REMARK                            x       y       z     vdW  Elec       q    Type
REMARK                         _______ _______ _______ _____ _____    ______ ____
ROOT
ATOM      1  C   UNL     1       6.652   4.548  17.042  0.00  0.00    +0.000 C 
ENDROOT
BRANCH   1   2
ATOM      2  C   UNL     1       7.598   5.263  18.005  0.00  0.00    +0.000 C 
ATOM      3  O   UNL     1       8.259   4.740  18.888  0.00  0.00    +0.000 OA
BRANCH   2   4
ATOM      4  O   UNL     1       7.590   6.607  17.765  0.00  0.00    +0.000 OA
BRANCH   4   5
ATOM      5  C   UNL     1       8.331   7.364  18.725  0.00  0.00    +0.000 C 
BRANCH   5   7
ATOM      6  O   UNL     1       7.441   9.245  17.497  0.00  0.00    +0.000 OA
ATOM      7  C   UNL     1       8.272   8.832  18.304  0.00  0.00    +0.000 C 
ATOM      8  N   UNL     1       9.224   9.645  18.881  0.00  0.00    +0.000 N 
ATOM      9  H   UNL     1       9.659   9.326  19.738  0.00  0.00    +0.000 HD
BRANCH   8  10
ATOM     10  C   UNL     1       9.249  11.078  18.597  0.00  0.00    +0.000 C 
ATOM     11  C   UNL     1       9.157  11.900  19.890  0.00  0.00    +0.000 C 
ATOM     12  C   UNL     1      10.447  11.842  20.706  0.00  0.00    +0.000 C 
ATOM     13  C   UNL     1      11.653  12.263  19.871  0.00  0.00    +0.000 C 
ATOM     14  C   UNL     1      11.778  11.431  18.599  0.00  0.00    +0.000 C 
ATOM     15  C   UNL     1      10.490  11.451  17.779  0.00  0.00    +0.000 C 
ENDBRANCH   8  10
ENDBRANCH   5   7
ENDBRANCH   4   5
ENDBRANCH   2   4
ENDBRANCH   1   2
BRANCH   1  16
ATOM     16  N   UNL     1       5.401   4.018  17.631  0.00  0.00    +0.000 NA
ATOM     17  H   UNL     1       5.444   3.078  18.029  0.00  0.00    +0.000 HD
BRANCH  16  18
ATOM     18  S   UNL     1       4.459   5.032  18.572  0.00  0.00    +0.000 S 
ATOM     19  O   UNL     1       5.226   5.297  19.771  0.00  0.00    +0.000 OA
ATOM     20  O   UNL     1       4.019   6.119  17.723  0.00  0.00    +0.000 OA
BRANCH  18  21
ATOM     21  C   UNL     1       3.058   4.075  19.028  0.00  0.00    +0.000 A 
ATOM     22  C   UNL     1       2.808   2.856  18.387  0.00  0.00    +0.000 A 
ATOM     23  C   UNL     1       1.607   2.183  18.621  0.00  0.00    +0.000 A 
ATOM     24  C   UNL     1       0.660   2.727  19.490  0.00  0.00    +0.000 A 
ATOM     25  C   UNL     1       0.928   3.928  20.150  0.00  0.00    +0.000 A 
ATOM     26  C   UNL     1       2.129   4.597  19.917  0.00  0.00    +0.000 A 
ATOM     27  F   UNL     1       2.356   5.747  20.567  0.00  0.00    +0.000 F 
ENDBRANCH  18  21
ENDBRANCH  16  18
ENDBRANCH   1  16
BRANCH   1  28
ATOM     28  C   UNL     1       6.325   5.448  15.826  0.00  0.00    +0.000 C 
BRANCH  28  29
ATOM     29  C   UNL     1       6.460   4.910  14.413  0.00  0.00    +0.000 A 
ATOM     30  C   UNL     1       7.491   5.267  13.536  0.00  0.00    +0.000 A 
ATOM     31  C   UNL     1       7.636   4.643  12.296  0.00  0.00    +0.000 A 
ATOM     32  C   UNL     1       6.724   3.674  11.894  0.00  0.00    +0.000 A 
ATOM     33  C   UNL     1       5.649   3.355  12.718  0.00  0.00    +0.000 A 
ATOM     34  C   UNL     1       5.516   3.970  13.966  0.00  0.00    +0.000 A 
ENDBRANCH  28  29
ENDBRANCH   1  28
TORSDOF 10
ENDMDL
MODEL 2
REMARK VINA RESULT:      -8.8      1.090      1.224
REMARK  Name = 
REMARK  10 active torsions:
REMARK  status: ('A' for Active; 'I' for Inactive)
REMARK    1  A    between atoms: C_2  and  C_3
REMARK    2  A    between atoms: C_3  and  O_4
REMARK    3  A    between atoms: O_4  and  C_5
REMARK    4  A    between atoms: C_5  and  C_7
REMARK    5  A    between atoms: C_7  and  C_8
REMARK    6  A    between atoms: C_7  and  N_15
REMARK    7  A    between atoms: C_8  and  C_9
REMARK    8  A    between atoms: N_15  and  S_16
REMARK    9  A    between atoms: S_16  and  C_19
REMARK   10  A    between atoms: N_26  and  C_27
REMARK                            x       y       z     vdW  Elec       q    Type
REMARK                         _______ _______ _______ _____ _____    ______ ____
ROOT
ATOM      1  C   UNL     1       6.415   4.594  17.345  0.00  0.00    +0.000 C 
ENDROOT
BRANCH   1   2
ATOM      2  C   UNL     1       6.983   5.489  18.444  0.00  0.00    +0.000 C 
ATOM      3  O   UNL     1       6.850   5.328  19.647  0.00  0.00    +0.000 OA
BRANCH   2   4
ATOM      4  O   UNL     1       7.655   6.543  17.895  0.00  0.00    +0.000 OA
BRANCH   4   5
ATOM      5  C   UNL     1       8.386   7.317  18.850  0.00  0.00    +0.000 C 
BRANCH   5   7
ATOM      6  O   UNL     1       7.544   9.167  17.543  0.00  0.00    +0.000 OA
ATOM      7  C   UNL     1       8.335   8.776  18.401  0.00  0.00    +0.000 C 
ATOM      8  N   UNL     1       9.246   9.609  19.014  0.00  0.00    +0.000 N 
ATOM      9  H   UNL     1       9.638   9.309  19.899  0.00  0.00    +0.000 HD
BRANCH   8  10
ATOM     10  C   UNL     1       9.272  11.037  18.708  0.00  0.00    +0.000 C 
ATOM     11  C   UNL     1       9.176  11.880  19.986  0.00  0.00    +0.000 C 
ATOM     12  C   UNL     1      10.463  11.835  20.808  0.00  0.00    +0.000 C 
ATOM     13  C   UNL     1      11.672  12.243  19.969  0.00  0.00    +0.000 C 
ATOM     14  C   UNL     1      11.801  11.391  18.711  0.00  0.00    +0.000 C 
ATOM     15  C   UNL     1      10.515  11.397  17.887  0.00  0.00    +0.000 C 
ENDBRANCH   8  10
ENDBRANCH   5   7
ENDBRANCH   4   5
ENDBRANCH   2   4
ENDBRANCH   1   2
BRANCH   1  16
ATOM     16  N   UNL     1       5.323   3.679  17.748  0.00  0.00    +0.000 NA
ATOM     17  H   UNL     1       5.496   3.091  18.565  0.00  0.00    +0.000 HD
BRANCH  16  18
ATOM     18  S   UNL     1       3.748   4.247  17.733  0.00  0.00    +0.000 S 
ATOM     19  O   UNL     1       3.840   5.692  17.743  0.00  0.00    +0.000 OA
ATOM     20  O   UNL     1       3.054   3.560  16.664  0.00  0.00    +0.000 OA
BRANCH  18  21
ATOM     21  C   UNL     1       3.057   3.740  19.266  0.00  0.00    +0.000 A 
ATOM     22  C   UNL     1       3.795   2.920  20.128  0.00  0.00    +0.000 A 
ATOM     23  C   UNL     1       3.185   2.373  21.258  0.00  0.00    +0.000 A 
ATOM     24  C   UNL     1       1.842   2.644  21.526  0.00  0.00    +0.000 A 
ATOM     25  C   UNL     1       1.119   3.488  20.680  0.00  0.00    +0.000 A 
ATOM     26  C   UNL     1       1.731   4.034  19.553  0.00  0.00    +0.000 A 
ATOM     27  F   UNL     1       1.009   4.840  18.762  0.00  0.00    +0.000 F 
ENDBRANCH  18  21
ENDBRANCH  16  18
ENDBRANCH   1  16
BRANCH   1  28
ATOM     28  C   UNL     1       5.975   5.437  16.124  0.00  0.00    +0.000 C 
BRANCH  28  29
ATOM     29  C   UNL     1       6.308   4.981  14.714  0.00  0.00    +0.000 A 
ATOM     30  C   UNL     1       7.444   5.395  14.007  0.00  0.00    +0.000 A 
ATOM     31  C   UNL     1       7.764   4.843  12.766  0.00  0.00    +0.000 A 
ATOM     32  C   UNL     1       6.930   3.893  12.190  0.00  0.00    +0.000 A 
ATOM     33  C   UNL     1       5.757   3.520  12.841  0.00  0.00    +0.000 A 
ATOM     34  C   UNL     1       5.447   4.061  14.092  0.00  0.00    +0.000 A 
ENDBRANCH  28  29
ENDBRANCH   1  28
TORSDOF 10
ENDMDL
MODEL 3
REMARK VINA RESULT:      -8.8      4.023      7.155
REMARK  Name = 
REMARK  10 active torsions:
REMARK  status: ('A' for Active; 'I' for Inactive)
REMARK    1  A    between atoms: C_2  and  C_3
REMARK    2  A    between atoms: C_3  and  O_4
REMARK    3  A    between atoms: O_4  and  C_5
REMARK    4  A    between atoms: C_5  and  C_7
REMARK    5  A    between atoms: C_7  and  C_8
REMARK    6  A    between atoms: C_7  and  N_15
REMARK    7  A    between atoms: C_8  and  C_9
REMARK    8  A    between atoms: N_15  and  S_16
REMARK    9  A    between atoms: S_16  and  C_19
REMARK   10  A    between atoms: N_26  and  C_27
REMARK                            x       y       z     vdW  Elec       q    Type
REMARK                         _______ _______ _______ _____ _____    ______ ____
ROOT
ATOM      1  C   UNL     1       5.598   4.655  18.277  0.00  0.00    +0.000 C 
ENDROOT
BRANCH   1   2
ATOM      2  C   UNL     1       7.071   5.033  18.128  0.00  0.00    +0.000 C 
ATOM      3  O   UNL     1       7.849   5.274  19.036  0.00  0.00    +0.000 OA
BRANCH   2   4
ATOM      4  O   UNL     1       7.410   5.098  16.807  0.00  0.00    +0.000 OA
BRANCH   4   5
ATOM      5  C   UNL     1       6.850   4.042  16.020  0.00  0.00    +0.000 C 
BRANCH   5   7
ATOM      6  O   UNL     1       7.507   5.496  14.206  0.00  0.00    +0.000 OA
ATOM      7  C   UNL     1       6.986   4.437  14.551  0.00  0.00    +0.000 C 
ATOM      8  N   UNL     1       6.469   3.530  13.651  0.00  0.00    +0.000 N 
ATOM      9  H   UNL     1       6.342   2.575  13.965  0.00  0.00    +0.000 HD
BRANCH   8  10
ATOM     10  C   UNL     1       6.574   3.765  12.213  0.00  0.00    +0.000 C 
ATOM     11  C   UNL     1       7.100   2.521  11.485  0.00  0.00    +0.000 C 
ATOM     12  C   UNL     1       6.061   1.403  11.422  0.00  0.00    +0.000 C 
ATOM     13  C   UNL     1       4.755   1.893  10.801  0.00  0.00    +0.000 C 
ATOM     14  C   UNL     1       4.201   3.110  11.536  0.00  0.00    +0.000 C 
ATOM     15  C   UNL     1       5.233   4.231  11.636  0.00  0.00    +0.000 C 
ENDBRANCH   8  10
ENDBRANCH   5   7
ENDBRANCH   4   5
ENDBRANCH   2   4
ENDBRANCH   1   2
BRANCH   1  16
ATOM     16  N   UNL     1       5.312   3.219  18.497  0.00  0.00    +0.000 NA
ATOM     17  H   UNL     1       5.574   2.834  19.406  0.00  0.00    +0.000 HD
BRANCH  16  18
ATOM     18  S   UNL     1       3.848   2.599  17.974  0.00  0.00    +0.000 S 
ATOM     19  O   UNL     1       3.388   3.483  16.924  0.00  0.00    +0.000 OA
ATOM     20  O   UNL     1       4.046   1.189  17.717  0.00  0.00    +0.000 OA
BRANCH  18  21
ATOM     21  C   UNL     1       2.757   2.771  19.340  0.00  0.00    +0.000 A 
ATOM     22  C   UNL     1       1.489   3.334  19.154  0.00  0.00    +0.000 A 
ATOM     23  C   UNL     1       0.693   3.633  20.262  0.00  0.00    +0.000 A 
ATOM     24  C   UNL     1       1.163   3.371  21.550  0.00  0.00    +0.000 A 
ATOM     25  C   UNL     1       2.416   2.781  21.728  0.00  0.00    +0.000 A 
ATOM     26  C   UNL     1       3.208   2.481  20.621  0.00  0.00    +0.000 A 
ATOM     27  F   UNL     1       4.404   1.913  20.827  0.00  0.00    +0.000 F 
ENDBRANCH  18  21
ENDBRANCH  16  18
ENDBRANCH   1  16
BRANCH   1  28
ATOM     28  C   UNL     1       4.924   5.505  19.381  0.00  0.00    +0.000 C 
BRANCH  28  29
ATOM     29  C   UNL     1       3.776   6.439  19.040  0.00  0.00    +0.000 A 
ATOM     30  C   UNL     1       2.725   6.736  19.914  0.00  0.00    +0.000 A 
ATOM     31  C   UNL     1       1.768   7.701  19.594  0.00  0.00    +0.000 A 
ATOM     32  C   UNL     1       1.824   8.359  18.372  0.00  0.00    +0.000 A 
ATOM     33  C   UNL     1       2.818   8.027  17.456  0.00  0.00    +0.000 A 
ATOM     34  C   UNL     1       3.785   7.073  17.786  0.00  0.00    +0.000 A 
ENDBRANCH  28  29
ENDBRANCH   1  28
TORSDOF 10
ENDMDL
MODEL 4
REMARK VINA RESULT:      -8.7      1.510      1.768
REMARK  Name = 
REMARK  10 active torsions:
REMARK  status: ('A' for Active; 'I' for Inactive)
REMARK    1  A    between atoms: C_2  and  C_3
REMARK    2  A    between atoms: C_3  and  O_4
REMARK    3  A    between atoms: O_4  and  C_5
REMARK    4  A    between atoms: C_5  and  C_7
REMARK    5  A    between atoms: C_7  and  C_8
REMARK    6  A    between atoms: C_7  and  N_15
REMARK    7  A    between atoms: C_8  and  C_9
REMARK    8  A    between atoms: N_15  and  S_16
REMARK    9  A    between atoms: S_16  and  C_19
REMARK   10  A    between atoms: N_26  and  C_27
REMARK                            x       y       z     vdW  Elec       q    Type
REMARK                         _______ _______ _______ _____ _____    ______ ____
ROOT
ATOM      1  C   UNL     1       5.653   4.941  17.235  0.00  0.00    +0.000 C 
ENDROOT
BRANCH   1   2
ATOM      2  C   UNL     1       6.583   5.399  18.357  0.00  0.00    +0.000 C 
ATOM      3  O   UNL     1       6.420   5.211  19.552  0.00  0.00    +0.000 OA
BRANCH   2   4
ATOM      4  O   UNL     1       7.639   6.093  17.841  0.00  0.00    +0.000 OA
BRANCH   4   5
ATOM      5  C   UNL     1       8.306   6.918  18.800  0.00  0.00    +0.000 C 
BRANCH   5   7
ATOM      6  O   UNL     1       7.507   8.687  17.362  0.00  0.00    +0.000 OA
ATOM      7  C   UNL     1       8.223   8.362  18.308  0.00  0.00    +0.000 C 
ATOM      8  N   UNL     1       9.016   9.259  18.990  0.00  0.00    +0.000 N 
ATOM      9  H   UNL     1       9.327   9.002  19.919  0.00  0.00    +0.000 HD
BRANCH   8  10
ATOM     10  C   UNL     1       8.995  10.680  18.649  0.00  0.00    +0.000 C 
ATOM     11  C   UNL     1       8.829  11.548  19.903  0.00  0.00    +0.000 C 
ATOM     12  C   UNL     1      10.093  11.574  20.761  0.00  0.00    +0.000 C 
ATOM     13  C   UNL     1      11.309  12.010  19.946  0.00  0.00    +0.000 C 
ATOM     14  C   UNL     1      11.507  11.133  18.713  0.00  0.00    +0.000 C 
ATOM     15  C   UNL     1      10.246  11.069  17.854  0.00  0.00    +0.000 C 
ENDBRANCH   8  10
ENDBRANCH   5   7
ENDBRANCH   4   5
ENDBRANCH   2   4
ENDBRANCH   1   2
BRANCH   1  16
ATOM     16  N   UNL     1       4.211   4.882  17.567  0.00  0.00    +0.000 NA
ATOM     17  H   UNL     1       3.629   5.648  17.223  0.00  0.00    +0.000 HD
BRANCH  16  18
ATOM     18  S   UNL     1       3.415   3.414  17.445  0.00  0.00    +0.000 S 
ATOM     19  O   UNL     1       2.327   3.621  16.513  0.00  0.00    +0.000 OA
ATOM     20  O   UNL     1       4.418   2.402  17.194  0.00  0.00    +0.000 OA
BRANCH  18  21
ATOM     21  C   UNL     1       2.719   3.131  19.033  0.00  0.00    +0.000 A 
ATOM     22  C   UNL     1       1.378   3.454  19.274  0.00  0.00    +0.000 A 
ATOM     23  C   UNL     1       0.874   3.395  20.575  0.00  0.00    +0.000 A 
ATOM     24  C   UNL     1       1.706   3.017  21.630  0.00  0.00    +0.000 A 
ATOM     25  C   UNL     1       3.034   2.666  21.378  0.00  0.00    +0.000 A 
ATOM     26  C   UNL     1       3.535   2.723  20.078  0.00  0.00    +0.000 A 
ATOM     27  F   UNL     1       4.814   2.378  19.872  0.00  0.00    +0.000 F 
ENDBRANCH  18  21
ENDBRANCH  16  18
ENDBRANCH   1  16
BRANCH   1  28
ATOM     28  C   UNL     1       5.869   5.793  15.962  0.00  0.00    +0.000 C 
BRANCH  28  29
ATOM     29  C   UNL     1       6.154   5.126  14.628  0.00  0.00    +0.000 A 
ATOM     30  C   UNL     1       7.292   5.381  13.854  0.00  0.00    +0.000 A 
ATOM     31  C   UNL     1       7.564   4.643  12.701  0.00  0.00    +0.000 A 
ATOM     32  C   UNL     1       6.678   3.659  12.279  0.00  0.00    +0.000 A 
ATOM     33  C   UNL     1       5.504   3.437  12.993  0.00  0.00    +0.000 A 
ATOM     34  C   UNL     1       5.242   4.166  14.157  0.00  0.00    +0.000 A 
ENDBRANCH  28  29
ENDBRANCH   1  28
TORSDOF 10
ENDMDL
MODEL 5
REMARK VINA RESULT:      -8.5      1.286      1.747
REMARK  Name = 
REMARK  10 active torsions:
REMARK  status: ('A' for Active; 'I' for Inactive)
REMARK    1  A    between atoms: C_2  and  C_3
REMARK    2  A    between atoms: C_3  and  O_4
REMARK    3  A    between atoms: O_4  and  C_5
REMARK    4  A    between atoms: C_5  and  C_7
REMARK    5  A    between atoms: C_7  and  C_8
REMARK    6  A    between atoms: C_7  and  N_15
REMARK    7  A    between atoms: C_8  and  C_9
REMARK    8  A    between atoms: N_15  and  S_16
REMARK    9  A    between atoms: S_16  and  C_19
REMARK   10  A    between atoms: N_26  and  C_27
REMARK                            x       y       z     vdW  Elec       q    Type
REMARK                         _______ _______ _______ _____ _____    ______ ____
ROOT
ATOM      1  C   UNL     1       6.204   4.864  17.346  0.00  0.00    +0.000 C 
ENDROOT
BRANCH   1   2
ATOM      2  C   UNL     1       7.257   5.519  18.238  0.00  0.00    +0.000 C 
ATOM      3  O   UNL     1       7.840   4.992  19.172  0.00  0.00    +0.000 OA
BRANCH   2   4
ATOM      4  O   UNL     1       7.449   6.818  17.866  0.00  0.00    +0.000 OA
BRANCH   4   5
ATOM      5  C   UNL     1       8.383   7.518  18.693  0.00  0.00    +0.000 C 
BRANCH   5   7
ATOM      6  O   UNL     1       7.533   9.422  17.472  0.00  0.00    +0.000 OA
ATOM      7  C   UNL     1       8.337   8.994  18.298  0.00  0.00    +0.000 C 
ATOM      8  N   UNL     1       9.270   9.795  18.921  0.00  0.00    +0.000 N 
ATOM      9  H   UNL     1       9.677   9.460  19.786  0.00  0.00    +0.000 HD
BRANCH   8  10
ATOM     10  C   UNL     1       9.304  11.233  18.666  0.00  0.00    +0.000 C 
ATOM     11  C   UNL     1       9.251  12.030  19.976  0.00  0.00    +0.000 C 
ATOM     12  C   UNL     1      10.560  11.942  20.760  0.00  0.00    +0.000 C 
ATOM     13  C   UNL     1      11.750  12.368  19.904  0.00  0.00    +0.000 C 
ATOM     14  C   UNL     1      11.835  11.560  18.613  0.00  0.00    +0.000 C 
ATOM     15  C   UNL     1      10.528  11.610  17.825  0.00  0.00    +0.000 C 
ENDBRANCH   8  10
ENDBRANCH   5   7
ENDBRANCH   4   5
ENDBRANCH   2   4
ENDBRANCH   1   2
BRANCH   1  16
ATOM     16  N   UNL     1       4.875   4.644  17.960  0.00  0.00    +0.000 NA
ATOM     17  H   UNL     1       4.072   5.046  17.473  0.00  0.00    +0.000 HD
BRANCH  16  18
ATOM     18  S   UNL     1       4.514   3.131  18.578  0.00  0.00    +0.000 S 
ATOM     19  O   UNL     1       4.390   2.248  17.438  0.00  0.00    +0.000 OA
ATOM     20  O   UNL     1       5.475   2.854  19.624  0.00  0.00    +0.000 OA
BRANCH  18  21
ATOM     21  C   UNL     1       2.924   3.295  19.308  0.00  0.00    +0.000 A 
ATOM     22  C   UNL     1       2.771   3.140  20.691  0.00  0.00    +0.000 A 
ATOM     23  C   UNL     1       1.491   3.094  21.246  0.00  0.00    +0.000 A 
ATOM     24  C   UNL     1       0.369   3.203  20.424  0.00  0.00    +0.000 A 
ATOM     25  C   UNL     1       0.528   3.389  19.049  0.00  0.00    +0.000 A 
ATOM     26  C   UNL     1       1.807   3.436  18.496  0.00  0.00    +0.000 A 
ATOM     27  F   UNL     1       1.924   3.617  17.173  0.00  0.00    +0.000 F 
ENDBRANCH  18  21
ENDBRANCH  16  18
ENDBRANCH   1  16
BRANCH   1  28
ATOM     28  C   UNL     1       6.052   5.642  16.017  0.00  0.00    +0.000 C 
BRANCH  28  29
ATOM     29  C   UNL     1       6.312   4.954  14.689  0.00  0.00    +0.000 A 
ATOM     30  C   UNL     1       5.474   3.978  14.137  0.00  0.00    +0.000 A 
ATOM     31  C   UNL     1       5.695   3.475  12.854  0.00  0.00    +0.000 A 
ATOM     32  C   UNL     1       6.787   3.912  12.113  0.00  0.00    +0.000 A 
ATOM     33  C   UNL     1       7.675   4.828  12.670  0.00  0.00    +0.000 A 
ATOM     34  C   UNL     1       7.441   5.343  13.948  0.00  0.00    +0.000 A 
ENDBRANCH  28  29
ENDBRANCH   1  28
TORSDOF 10
ENDMDL
MODEL 6
REMARK VINA RESULT:      -8.5      2.759      3.917
REMARK  Name = 
REMARK  10 active torsions:
REMARK  status: ('A' for Active; 'I' for Inactive)
REMARK    1  A    between atoms: C_2  and  C_3
REMARK    2  A    between atoms: C_3  and  O_4
REMARK    3  A    between atoms: O_4  and  C_5
REMARK    4  A    between atoms: C_5  and  C_7
REMARK    5  A    between atoms: C_7  and  C_8
REMARK    6  A    between atoms: C_7  and  N_15
REMARK    7  A    between atoms: C_8  and  C_9
REMARK    8  A    between atoms: N_15  and  S_16
REMARK    9  A    between atoms: S_16  and  C_19
REMARK   10  A    between atoms: N_26  and  C_27
REMARK                            x       y       z     vdW  Elec       q    Type
REMARK                         _______ _______ _______ _____ _____    ______ ____
ROOT
ATOM      1  C   UNL     1       5.276   5.094  18.385  0.00  0.00    +0.000 C 
ENDROOT
BRANCH   1   2
ATOM      2  C   UNL     1       6.603   5.648  18.900  0.00  0.00    +0.000 C 
ATOM      3  O   UNL     1       7.203   5.275  19.895  0.00  0.00    +0.000 OA
BRANCH   2   4
ATOM      4  O   UNL     1       7.034   6.664  18.097  0.00  0.00    +0.000 OA
BRANCH   4   5
ATOM      5  C   UNL     1       8.245   7.276  18.548  0.00  0.00    +0.000 C 
BRANCH   5   7
ATOM      6  O   UNL     1       7.360   9.191  17.371  0.00  0.00    +0.000 OA
ATOM      7  C   UNL     1       8.187   8.755  18.170  0.00  0.00    +0.000 C 
ATOM      8  N   UNL     1       9.135   9.551  18.776  0.00  0.00    +0.000 N 
ATOM      9  H   UNL     1       9.566   9.207  19.625  0.00  0.00    +0.000 HD
BRANCH   8  10
ATOM     10  C   UNL     1       9.161  10.992  18.535  0.00  0.00    +0.000 C 
ATOM     11  C   UNL     1       9.016  11.775  19.846  0.00  0.00    +0.000 C 
ATOM     12  C   UNL     1      10.275  11.701  20.707  0.00  0.00    +0.000 C 
ATOM     13  C   UNL     1      11.508  12.154  19.929  0.00  0.00    +0.000 C 
ATOM     14  C   UNL     1      11.685  11.361  18.638  0.00  0.00    +0.000 C 
ATOM     15  C   UNL     1      10.427  11.396  17.773  0.00  0.00    +0.000 C 
ENDBRANCH   8  10
ENDBRANCH   5   7
ENDBRANCH   4   5
ENDBRANCH   2   4
ENDBRANCH   1   2
BRANCH   1  16
ATOM     16  N   UNL     1       5.231   3.635  18.134  0.00  0.00    +0.000 NA
ATOM     17  H   UNL     1       5.798   3.047  18.747  0.00  0.00    +0.000 HD
BRANCH  16  18
ATOM     18  S   UNL     1       3.755   2.920  17.801  0.00  0.00    +0.000 S 
ATOM     19  O   UNL     1       3.120   3.750  16.800  0.00  0.00    +0.000 OA
ATOM     20  O   UNL     1       4.005   1.518  17.546  0.00  0.00    +0.000 OA
BRANCH  18  21
ATOM     21  C   UNL     1       2.826   3.061  19.286  0.00  0.00    +0.000 A 
ATOM     22  C   UNL     1       3.355   2.579  20.489  0.00  0.00    +0.000 A 
ATOM     23  C   UNL     1       2.552   2.530  21.630  0.00  0.00    +0.000 A 
ATOM     24  C   UNL     1       1.225   2.959  21.569  0.00  0.00    +0.000 A 
ATOM     25  C   UNL     1       0.712   3.468  20.374  0.00  0.00    +0.000 A 
ATOM     26  C   UNL     1       1.516   3.518  19.236  0.00  0.00    +0.000 A 
ATOM     27  F   UNL     1       0.992   4.013  18.106  0.00  0.00    +0.000 F 
ENDBRANCH  18  21
ENDBRANCH  16  18
ENDBRANCH   1  16
BRANCH   1  28
ATOM     28  C   UNL     1       4.111   5.507  19.317  0.00  0.00    +0.000 C 
BRANCH  28  29
ATOM     29  C   UNL     1       3.286   6.745  19.015  0.00  0.00    +0.000 A 
ATOM     30  C   UNL     1       3.356   7.456  17.811  0.00  0.00    +0.000 A 
ATOM     31  C   UNL     1       2.481   8.509  17.540  0.00  0.00    +0.000 A 
ATOM     32  C   UNL     1       1.543   8.897  18.489  0.00  0.00    +0.000 A 
ATOM     33  C   UNL     1       1.504   8.253  19.723  0.00  0.00    +0.000 A 
ATOM     34  C   UNL     1       2.370   7.187  19.985  0.00  0.00    +0.000 A 
ENDBRANCH  28  29
ENDBRANCH   1  28
TORSDOF 10
ENDMDL
MODEL 7
REMARK VINA RESULT:      -8.4      4.750      7.623
REMARK  Name = 
REMARK  10 active torsions:
REMARK  status: ('A' for Active; 'I' for Inactive)
REMARK    1  A    between atoms: C_2  and  C_3
REMARK    2  A    between atoms: C_3  and  O_4
REMARK    3  A    between atoms: O_4  and  C_5
REMARK    4  A    between atoms: C_5  and  C_7
REMARK    5  A    between atoms: C_7  and  C_8
REMARK    6  A    between atoms: C_7  and  N_15
REMARK    7  A    between atoms: C_8  and  C_9
REMARK    8  A    between atoms: N_15  and  S_16
REMARK    9  A    between atoms: S_16  and  C_19
REMARK   10  A    between atoms: N_26  and  C_27
REMARK                            x       y       z     vdW  Elec       q    Type
REMARK                         _______ _______ _______ _____ _____    ______ ____
ROOT
ATOM      1  C   UNL     1       4.369   4.358  17.230  0.00  0.00    +0.000 C 
ENDROOT
BRANCH   1   2
ATOM      2  C   UNL     1       4.243   5.513  18.223  0.00  0.00    +0.000 C 
ATOM      3  O   UNL     1       4.969   5.721  19.182  0.00  0.00    +0.000 OA
BRANCH   2   4
ATOM      4  O   UNL     1       3.166   6.290  17.910  0.00  0.00    +0.000 OA
BRANCH   4   5
ATOM      5  C   UNL     1       2.741   7.137  18.981  0.00  0.00    +0.000 C 
BRANCH   5   7
ATOM      6  O   UNL     1       2.365   8.730  17.204  0.00  0.00    +0.000 OA
ATOM      7  C   UNL     1       2.129   8.394  18.363  0.00  0.00    +0.000 C 
ATOM      8  N   UNL     1       1.316   9.122  19.204  0.00  0.00    +0.000 N 
ATOM      9  H   UNL     1       0.925   8.648  20.009  0.00  0.00    +0.000 HD
BRANCH   8  10
ATOM     10  C   UNL     1       0.633  10.322  18.724  0.00  0.00    +0.000 C 
ATOM     11  C   UNL     1      -0.788  10.416  19.293  0.00  0.00    +0.000 C 
ATOM     12  C   UNL     1      -0.795  10.772  20.779  0.00  0.00    +0.000 C 
ATOM     13  C   UNL     1      -0.009  12.052  21.047  0.00  0.00    +0.000 C 
ATOM     14  C   UNL     1       1.418  11.961  20.516  0.00  0.00    +0.000 C 
ATOM     15  C   UNL     1       1.451  11.578  19.039  0.00  0.00    +0.000 C 
ENDBRANCH   8  10
ENDBRANCH   5   7
ENDBRANCH   4   5
ENDBRANCH   2   4
ENDBRANCH   1   2
BRANCH   1  16
ATOM     16  N   UNL     1       5.702   4.171  16.613  0.00  0.00    +0.000 NA
ATOM     17  H   UNL     1       5.913   3.240  16.250  0.00  0.00    +0.000 HD
BRANCH  16  18
ATOM     18  S   UNL     1       6.296   5.365  15.601  0.00  0.00    +0.000 S 
ATOM     19  O   UNL     1       5.310   6.424  15.604  0.00  0.00    +0.000 OA
ATOM     20  O   UNL     1       7.661   5.628  16.002  0.00  0.00    +0.000 OA
BRANCH  18  21
ATOM     21  C   UNL     1       6.312   4.648  13.997  0.00  0.00    +0.000 A 
ATOM     22  C   UNL     1       5.304   3.751  13.623  0.00  0.00    +0.000 A 
ATOM     23  C   UNL     1       5.412   3.048  12.422  0.00  0.00    +0.000 A 
ATOM     24  C   UNL     1       6.522   3.239  11.598  0.00  0.00    +0.000 A 
ATOM     25  C   UNL     1       7.509   4.158  11.961  0.00  0.00    +0.000 A 
ATOM     26  C   UNL     1       7.398   4.861  13.160  0.00  0.00    +0.000 A 
ATOM     27  F   UNL     1       8.363   5.736  13.478  0.00  0.00    +0.000 F 
ENDBRANCH  18  21
ENDBRANCH  16  18
ENDBRANCH   1  16
BRANCH   1  28
ATOM     28  C   UNL     1       3.889   3.032  17.868  0.00  0.00    +0.000 C 
BRANCH  28  29
ATOM     29  C   UNL     1       2.929   3.047  19.043  0.00  0.00    +0.000 A 
ATOM     30  C   UNL     1       1.562   3.330  18.932  0.00  0.00    +0.000 A 
ATOM     31  C   UNL     1       0.705   3.203  20.026  0.00  0.00    +0.000 A 
ATOM     32  C   UNL     1       1.209   2.827  21.266  0.00  0.00    +0.000 A 
ATOM     33  C   UNL     1       2.576   2.611  21.417  0.00  0.00    +0.000 A 
ATOM     34  C   UNL     1       3.430   2.723  20.316  0.00  0.00    +0.000 A 
ENDBRANCH  28  29
ENDBRANCH   1  28
TORSDOF 10
ENDMDL
MODEL 8
REMARK VINA RESULT:      -8.3      4.573      7.650
REMARK  Name = 
REMARK  10 active torsions:
REMARK  status: ('A' for Active; 'I' for Inactive)
REMARK    1  A    between atoms: C_2  and  C_3
REMARK    2  A    between atoms: C_3  and  O_4
REMARK    3  A    between atoms: O_4  and  C_5
REMARK    4  A    between atoms: C_5  and  C_7
REMARK    5  A    between atoms: C_7  and  C_8
REMARK    6  A    between atoms: C_7  and  N_15
REMARK    7  A    between atoms: C_8  and  C_9
REMARK    8  A    between atoms: N_15  and  S_16
REMARK    9  A    between atoms: S_16  and  C_19
REMARK   10  A    between atoms: N_26  and  C_27
REMARK                            x       y       z     vdW  Elec       q    Type
REMARK                         _______ _______ _______ _____ _____    ______ ____
ROOT
ATOM      1  C   UNL     1       4.252   5.101  17.117  0.00  0.00    +0.000 C 
ENDROOT
BRANCH   1   2
ATOM      2  C   UNL     1       4.413   6.013  18.332  0.00  0.00    +0.000 C 
ATOM      3  O   UNL     1       4.802   5.678  19.439  0.00  0.00    +0.000 OA
BRANCH   2   4
ATOM      4  O   UNL     1       4.027   7.285  18.021  0.00  0.00    +0.000 OA
BRANCH   4   5
ATOM      5  C   UNL     1       2.624   7.414  17.776  0.00  0.00    +0.000 C 
BRANCH   5   7
ATOM      6  O   UNL     1       2.051   7.664  20.110  0.00  0.00    +0.000 OA
ATOM      7  C   UNL     1       2.007   8.134  18.974  0.00  0.00    +0.000 C 
ATOM      8  N   UNL     1       1.390   9.331  18.682  0.00  0.00    +0.000 N 
ATOM      9  H   UNL     1       1.650   9.798  17.822  0.00  0.00    +0.000 HD
BRANCH   8  10
ATOM     10  C   UNL     1       0.800  10.142  19.744  0.00  0.00    +0.000 C 
ATOM     11  C   UNL     1       1.381  11.562  19.746  0.00  0.00    +0.000 C 
ATOM     12  C   UNL     1       0.879  12.394  18.566  0.00  0.00    +0.000 C 
ATOM     13  C   UNL     1      -0.647  12.423  18.516  0.00  0.00    +0.000 C 
ATOM     14  C   UNL     1      -1.238  11.018  18.480  0.00  0.00    +0.000 C 
ATOM     15  C   UNL     1      -0.728  10.158  19.634  0.00  0.00    +0.000 C 
ENDBRANCH   8  10
ENDBRANCH   5   7
ENDBRANCH   4   5
ENDBRANCH   2   4
ENDBRANCH   1   2
BRANCH   1  16
ATOM     16  N   UNL     1       5.445   4.315  16.729  0.00  0.00    +0.000 NA
ATOM     17  H   UNL     1       5.277   3.377  16.360  0.00  0.00    +0.000 HD
BRANCH  16  18
ATOM     18  S   UNL     1       6.679   5.081  15.897  0.00  0.00    +0.000 S 
ATOM     19  O   UNL     1       6.399   6.499  15.975  0.00  0.00    +0.000 OA
ATOM     20  O   UNL     1       7.929   4.547  16.395  0.00  0.00    +0.000 OA
BRANCH  18  21
ATOM     21  C   UNL     1       6.487   4.585  14.222  0.00  0.00    +0.000 A 
ATOM     22  C   UNL     1       5.422   3.753  13.858  0.00  0.00    +0.000 A 
ATOM     23  C   UNL     1       5.369   3.217  12.570  0.00  0.00    +0.000 A 
ATOM     24  C   UNL     1       6.376   3.511  11.650  0.00  0.00    +0.000 A 
ATOM     25  C   UNL     1       7.420   4.367  12.008  0.00  0.00    +0.000 A 
ATOM     26  C   UNL     1       7.470   4.903  13.295  0.00  0.00    +0.000 A 
ATOM     27  F   UNL     1       8.484   5.721  13.606  0.00  0.00    +0.000 F 
ENDBRANCH  18  21
ENDBRANCH  16  18
ENDBRANCH   1  16
BRANCH   1  28
ATOM     28  C   UNL     1       3.034   4.162  17.294  0.00  0.00    +0.000 C 
BRANCH  28  29
ATOM     29  C   UNL     1       2.620   3.693  18.677  0.00  0.00    +0.000 A 
ATOM     30  C   UNL     1       3.356   2.785  19.447  0.00  0.00    +0.000 A 
ATOM     31  C   UNL     1       2.993   2.489  20.761  0.00  0.00    +0.000 A 
ATOM     32  C   UNL     1       1.860   3.069  21.318  0.00  0.00    +0.000 A 
ATOM     33  C   UNL     1       1.071   3.918  20.548  0.00  0.00    +0.000 A 
ATOM     34  C   UNL     1       1.446   4.226  19.237  0.00  0.00    +0.000 A 
ENDBRANCH  28  29
ENDBRANCH   1  28
TORSDOF 10
ENDMDL
MODEL 9
REMARK VINA RESULT:      -8.3      2.192      5.580
REMARK  Name = 
REMARK  10 active torsions:
REMARK  status: ('A' for Active; 'I' for Inactive)
REMARK    1  A    between atoms: C_2  and  C_3
REMARK    2  A    between atoms: C_3  and  O_4
REMARK    3  A    between atoms: O_4  and  C_5
REMARK    4  A    between atoms: C_5  and  C_7
REMARK    5  A    between atoms: C_7  and  C_8
REMARK    6  A    between atoms: C_7  and  N_15
REMARK    7  A    between atoms: C_8  and  C_9
REMARK    8  A    between atoms: N_15  and  S_16
REMARK    9  A    between atoms: S_16  and  C_19
REMARK   10  A    between atoms: N_26  and  C_27
REMARK                            x       y       z     vdW  Elec       q    Type
REMARK                         _______ _______ _______ _____ _____    ______ ____
ROOT
ATOM      1  C   UNL     1       5.804   4.870  17.771  0.00  0.00    +0.000 C 
ENDROOT
BRANCH   1   2
ATOM      2  C   UNL     1       7.110   5.310  18.432  0.00  0.00    +0.000 C 
ATOM      3  O   UNL     1       8.026   4.580  18.775  0.00  0.00    +0.000 OA
BRANCH   2   4
ATOM      4  O   UNL     1       7.111   6.661  18.622  0.00  0.00    +0.000 OA
BRANCH   4   5
ATOM      5  C   UNL     1       8.421   7.221  18.744  0.00  0.00    +0.000 C 
BRANCH   5   7
ATOM      6  O   UNL     1       7.613   9.058  17.398  0.00  0.00    +0.000 OA
ATOM      7  C   UNL     1       8.342   8.686  18.317  0.00  0.00    +0.000 C 
ATOM      8  N   UNL     1       9.154   9.546  19.023  0.00  0.00    +0.000 N 
ATOM      9  H   UNL     1       9.479   9.246  19.934  0.00  0.00    +0.000 HD
BRANCH   8  10
ATOM     10  C   UNL     1       9.140  10.980  18.745  0.00  0.00    +0.000 C 
ATOM     11  C   UNL     1       9.071  11.796  20.042  0.00  0.00    +0.000 C 
ATOM     12  C   UNL     1      10.387  11.763  20.817  0.00  0.00    +0.000 C 
ATOM     13  C   UNL     1      11.557  12.213  19.946  0.00  0.00    +0.000 C 
ATOM     14  C   UNL     1      11.659  11.388  18.667  0.00  0.00    +0.000 C 
ATOM     15  C   UNL     1      10.346  11.382  17.888  0.00  0.00    +0.000 C 
ENDBRANCH   8  10
ENDBRANCH   5   7
ENDBRANCH   4   5
ENDBRANCH   2   4
ENDBRANCH   1   2
BRANCH   1  16
ATOM     16  N   UNL     1       5.906   4.412  16.367  0.00  0.00    +0.000 NA
ATOM     17  H   UNL     1       5.172   3.784  16.035  0.00  0.00    +0.000 HD
BRANCH  16  18
ATOM     18  S   UNL     1       6.337   5.519  15.187  0.00  0.00    +0.000 S 
ATOM     19  O   UNL     1       5.262   6.487  15.131  0.00  0.00    +0.000 OA
ATOM     20  O   UNL     1       7.693   5.938  15.466  0.00  0.00    +0.000 OA
BRANCH  18  21
ATOM     21  C   UNL     1       6.329   4.617  13.679  0.00  0.00    +0.000 A 
ATOM     22  C   UNL     1       5.328   3.668  13.439  0.00  0.00    +0.000 A 
ATOM     23  C   UNL     1       5.420   2.830  12.326  0.00  0.00    +0.000 A 
ATOM     24  C   UNL     1       6.507   2.938  11.458  0.00  0.00    +0.000 A 
ATOM     25  C   UNL     1       7.487   3.907  11.686  0.00  0.00    +0.000 A 
ATOM     26  C   UNL     1       7.392   4.745  12.797  0.00  0.00    +0.000 A 
ATOM     27  F   UNL     1       8.348   5.665  12.985  0.00  0.00    +0.000 F 
ENDBRANCH  18  21
ENDBRANCH  16  18
ENDBRANCH   1  16
BRANCH   1  28
ATOM     28  C   UNL     1       5.091   3.797  18.628  0.00  0.00    +0.000 C 
BRANCH  28  29
ATOM     29  C   UNL     1       3.862   4.156  19.444  0.00  0.00    +0.000 A 
ATOM     30  C   UNL     1       3.290   5.433  19.473  0.00  0.00    +0.000 A 
ATOM     31  C   UNL     1       2.087   5.672  20.139  0.00  0.00    +0.000 A 
ATOM     32  C   UNL     1       1.452   4.642  20.823  0.00  0.00    +0.000 A 
ATOM     33  C   UNL     1       2.040   3.381  20.869  0.00  0.00    +0.000 A 
ATOM     34  C   UNL     1       3.237   3.140  20.187  0.00  0.00    +0.000 A 
ENDBRANCH  28  29
ENDBRANCH   1  28
TORSDOF 10
ENDMDL
