MODEL 1
REMARK VINA RESULT:      -6.7      0.000      0.000
REMARK  Name = 
REMARK  8 active torsions:
REMARK  status: ('A' for Active; 'I' for Inactive)
REMARK    1  A    between atoms: C_1  and  C_2
REMARK    2  A    between atoms: C_2  and  C_3
REMARK    3  A    between atoms: C_3  and  C_4
REMARK    4  A    between atoms: N_7  and  C_18
REMARK    5  A    between atoms: C_8  and  C_10
REMARK    6  A    between atoms: C_21  and  O_22
REMARK    7  A    between atoms: O_22  and  C_23
REMARK    8  A    between atoms: C_27  and  C_28
REMARK                            x       y       z     vdW  Elec       q    Type
REMARK                         _______ _______ _______ _____ _____    ______ ____
ROOT
ATOM      1  C   UNL     1      -0.345  11.992  18.905  0.00  0.00    +0.000 A 
ATOM      2  S   UNL     1      -0.326  13.677  18.514  0.00  0.00    +0.000 S 
ATOM      3  C   UNL     1       1.304  13.760  19.037  0.00  0.00    +0.000 A 
ATOM      4  N   UNL     1       1.965  14.996  19.253  0.00  0.00    +0.000 N 
ATOM      5  C   UNL     1       1.348  16.247  19.466  0.00  0.00    +0.000 C 
ATOM      6  O   UNL     1       1.912  17.314  19.176  0.00  0.00    +0.000 OA
ATOM      7  N   UNL     1       1.870  12.566  19.134  0.00  0.00    +0.000 NA
ATOM      8  C   UNL     1       0.943  11.545  18.983  0.00  0.00    +0.000 A 
ENDROOT
BRANCH   5   9
ATOM      9  C   UNL     1       0.048  16.411  20.163  0.00  0.00    +0.000 A 
ATOM     10  C   UNL     1      -0.099  15.992  21.495  0.00  0.00    +0.000 A 
ATOM     11  C   UNL     1      -1.355  15.993  22.094  0.00  0.00    +0.000 A 
ATOM     12  C   UNL     1      -2.451  16.514  21.406  0.00  0.00    +0.000 A 
ATOM     13 CL   UNL     1      -4.015  16.448  22.120  0.00  0.00    +0.000 Cl
ATOM     14  C   UNL     1      -2.297  17.057  20.137  0.00  0.00    +0.000 A 
ATOM     15  C   UNL     1      -1.053  17.005  19.508  0.00  0.00    +0.000 A 
ATOM     16 CL   UNL     1      -1.004  17.641  17.895  0.00  0.00    +0.000 Cl
ENDBRANCH   5   9
BRANCH   4  17
ATOM     17  C   UNL     1       3.400  14.946  19.193  0.00  0.00    +0.000 A 
ATOM     18  C   UNL     1       4.189  15.006  20.362  0.00  0.00    +0.000 A 
ATOM     19  C   UNL     1       5.577  15.015  20.281  0.00  0.00    +0.000 A 
ATOM     20  C   UNL     1       6.225  14.939  19.054  0.00  0.00    +0.000 A 
ATOM     21  C   UNL     1       5.462  14.882  17.887  0.00  0.00    +0.000 A 
ATOM     22  C   UNL     1       4.085  14.879  17.969  0.00  0.00    +0.000 A 
BRANCH  20  23
ATOM     23  O   UNL     1       7.589  14.985  19.099  0.00  0.00    +0.000 OA
ATOM     24  C   UNL     1       8.237  15.519  17.950  0.00  0.00    +0.000 C 
ENDBRANCH  20  23
ENDBRANCH   4  17
BRANCH   8  25
ATOM     25  C   UNL     1       1.345  10.141  19.009  0.00  0.00    +0.000 A 
ATOM     26  C   UNL     1       1.204   9.382  20.162  0.00  0.00    +0.000 A 
ATOM     27  C   UNL     1       1.659   8.064  20.209  0.00  0.00    +0.000 A 
ATOM     28  C   UNL     1       2.244   7.493  19.074  0.00  0.00    +0.000 A 
ATOM     29  C   UNL     1       2.357   8.232  17.905  0.00  0.00    +0.000 A 
ATOM     30  C   UNL     1       1.917   9.552  17.870  0.00  0.00    +0.000 A 
ENDBRANCH   8  25
BRANCH   1  31
ATOM     31  C   UNL     1      -1.648  11.260  19.079  0.00  0.00    +0.000 C 
BRANCH  31  33
ATOM     32  C   UNL     1      -1.972   9.846  16.998  0.00  0.00    +0.000 C 
ATOM     33  C   UNL     1      -2.413  11.084  17.762  0.00  0.00    +0.000 C 
ENDBRANCH  31  33
ENDBRANCH   1  31
TORSDOF 6
ENDMDL
MODEL 2
REMARK VINA RESULT:      -6.5      0.333      1.230
REMARK  Name = 
REMARK  8 active torsions:
REMARK  status: ('A' for Active; 'I' for Inactive)
REMARK    1  A    between atoms: C_1  and  C_2
REMARK    2  A    between atoms: C_2  and  C_3
REMARK    3  A    between atoms: C_3  and  C_4
REMARK    4  A    between atoms: N_7  and  C_18
REMARK    5  A    between atoms: C_8  and  C_10
REMARK    6  A    between atoms: C_21  and  O_22
REMARK    7  A    between atoms: O_22  and  C_23
REMARK    8  A    between atoms: C_27  and  C_28
REMARK                            x       y       z     vdW  Elec       q    Type
REMARK                         _______ _______ _______ _____ _____    ______ ____
ROOT
ATOM      1  C   UNL     1      -0.337  12.082  18.967  0.00  0.00    +0.000 A 
ATOM      2  S   UNL     1      -0.353  13.763  18.561  0.00  0.00    +0.000 S 
ATOM      3  C   UNL     1       1.286  13.877  19.049  0.00  0.00    +0.000 A 
ATOM      4  N   UNL     1       1.931  15.125  19.241  0.00  0.00    +0.000 N 
ATOM      5  C   UNL     1       1.298  16.369  19.455  0.00  0.00    +0.000 C 
ATOM      6  O   UNL     1       1.839  17.442  19.143  0.00  0.00    +0.000 OA
ATOM      7  N   UNL     1       1.873  12.693  19.145  0.00  0.00    +0.000 NA
ATOM      8  C   UNL     1       0.959  11.656  19.023  0.00  0.00    +0.000 A 
ENDROOT
BRANCH   5   9
ATOM      9  C   UNL     1       0.010  16.518  20.177  0.00  0.00    +0.000 A 
ATOM     10  C   UNL     1      -0.103  16.109  21.515  0.00  0.00    +0.000 A 
ATOM     11  C   UNL     1      -1.347  16.095  22.139  0.00  0.00    +0.000 A 
ATOM     12  C   UNL     1      -2.465  16.593  21.470  0.00  0.00    +0.000 A 
ATOM     13 CL   UNL     1      -4.012  16.508  22.216  0.00  0.00    +0.000 Cl
ATOM     14  C   UNL     1      -2.346  17.127  20.193  0.00  0.00    +0.000 A 
ATOM     15  C   UNL     1      -1.113  17.089  19.539  0.00  0.00    +0.000 A 
ATOM     16 CL   UNL     1      -1.108  17.711  17.920  0.00  0.00    +0.000 Cl
ENDBRANCH   5   9
BRANCH   4  17
ATOM     17  C   UNL     1       3.365  15.098  19.152  0.00  0.00    +0.000 A 
ATOM     18  C   UNL     1       4.024  15.002  17.908  0.00  0.00    +0.000 A 
ATOM     19  C   UNL     1       5.411  14.918  17.844  0.00  0.00    +0.000 A 
ATOM     20  C   UNL     1       6.185  14.953  18.997  0.00  0.00    +0.000 A 
ATOM     21  C   UNL     1       5.552  15.045  20.238  0.00  0.00    +0.000 A 
ATOM     22  C   UNL     1       4.176  15.122  20.298  0.00  0.00    +0.000 A 
BRANCH  20  23
ATOM     23  O   UNL     1       7.533  14.835  18.811  0.00  0.00    +0.000 OA
ATOM     24  C   UNL     1       7.957  13.791  17.942  0.00  0.00    +0.000 C 
ENDBRANCH  20  23
ENDBRANCH   4  17
BRANCH   8  25
ATOM     25  C   UNL     1       1.385  10.259  19.053  0.00  0.00    +0.000 A 
ATOM     26  C   UNL     1       1.917   9.653  17.924  0.00  0.00    +0.000 A 
ATOM     27  C   UNL     1       2.251   8.299  17.932  0.00  0.00    +0.000 A 
ATOM     28  C   UNL     1       2.070   7.548  19.098  0.00  0.00    +0.000 A 
ATOM     29  C   UNL     1       1.572   8.153  20.242  0.00  0.00    +0.000 A 
ATOM     30  C   UNL     1       1.224   9.500  20.223  0.00  0.00    +0.000 A 
ENDBRANCH   8  25
BRANCH   1  31
ATOM     31  C   UNL     1      -1.623  11.330  19.175  0.00  0.00    +0.000 C 
BRANCH  31  33
ATOM     32  C   UNL     1      -1.803   9.872  17.108  0.00  0.00    +0.000 C 
ATOM     33  C   UNL     1      -2.373  11.060  17.865  0.00  0.00    +0.000 C 
ENDBRANCH  31  33
ENDBRANCH   1  31
TORSDOF 6
ENDMDL
MODEL 3
REMARK VINA RESULT:      -6.5      1.014      1.358
REMARK  Name = 
REMARK  8 active torsions:
REMARK  status: ('A' for Active; 'I' for Inactive)
REMARK    1  A    between atoms: C_1  and  C_2
REMARK    2  A    between atoms: C_2  and  C_3
REMARK    3  A    between atoms: C_3  and  C_4
REMARK    4  A    between atoms: N_7  and  C_18
REMARK    5  A    between atoms: C_8  and  C_10
REMARK    6  A    between atoms: C_21  and  O_22
REMARK    7  A    between atoms: O_22  and  C_23
REMARK    8  A    between atoms: C_27  and  C_28
REMARK                            x       y       z     vdW  Elec       q    Type
REMARK                         _______ _______ _______ _____ _____    ______ ____
ROOT
ATOM      1  C   UNL     1      -0.384  11.892  18.797  0.00  0.00    +0.000 A 
ATOM      2  S   UNL     1      -0.374  13.566  18.359  0.00  0.00    +0.000 S 
ATOM      3  C   UNL     1       1.240  13.685  18.924  0.00  0.00    +0.000 A 
ATOM      4  N   UNL     1       1.879  14.934  19.124  0.00  0.00    +0.000 N 
ATOM      5  C   UNL     1       1.241  16.183  19.284  0.00  0.00    +0.000 C 
ATOM      6  O   UNL     1       1.800  17.249  18.980  0.00  0.00    +0.000 OA
ATOM      7  N   UNL     1       1.817  12.501  19.070  0.00  0.00    +0.000 NA
ATOM      8  C   UNL     1       0.907  11.464  18.923  0.00  0.00    +0.000 A 
ENDROOT
BRANCH   5   9
ATOM      9  C   UNL     1      -0.080  16.349  19.941  0.00  0.00    +0.000 A 
ATOM     10  C   UNL     1      -1.151  16.925  19.241  0.00  0.00    +0.000 A 
ATOM     11  C   UNL     1      -2.337  17.230  19.904  0.00  0.00    +0.000 A 
ATOM     12  C   UNL     1      -2.498  16.864  21.240  0.00  0.00    +0.000 A 
ATOM     13 CL   UNL     1      -3.934  17.307  22.077  0.00  0.00    +0.000 Cl
ATOM     14  C   UNL     1      -1.497  16.173  21.910  0.00  0.00    +0.000 A 
ATOM     15  C   UNL     1      -0.284  15.916  21.269  0.00  0.00    +0.000 A 
ATOM     16 CL   UNL     1       0.916  15.119  22.235  0.00  0.00    +0.000 Cl
ENDBRANCH   5   9
BRANCH   4  17
ATOM     17  C   UNL     1       3.315  14.902  19.105  0.00  0.00    +0.000 A 
ATOM     18  C   UNL     1       4.071  14.988  20.294  0.00  0.00    +0.000 A 
ATOM     19  C   UNL     1       5.461  15.013  20.252  0.00  0.00    +0.000 A 
ATOM     20  C   UNL     1       6.143  14.928  19.045  0.00  0.00    +0.000 A 
ATOM     21  C   UNL     1       5.414  14.846  17.857  0.00  0.00    +0.000 A 
ATOM     22  C   UNL     1       4.035  14.827  17.901  0.00  0.00    +0.000 A 
BRANCH  20  23
ATOM     23  O   UNL     1       7.505  14.992  19.127  0.00  0.00    +0.000 OA
ATOM     24  C   UNL     1       8.093  14.389  20.274  0.00  0.00    +0.000 C 
ENDBRANCH  20  23
ENDBRANCH   4  17
BRANCH   8  25
ATOM     25  C   UNL     1       1.326  10.067  18.999  0.00  0.00    +0.000 A 
ATOM     26  C   UNL     1       1.189   9.347  20.177  0.00  0.00    +0.000 A 
ATOM     27  C   UNL     1       1.659   8.037  20.272  0.00  0.00    +0.000 A 
ATOM     28  C   UNL     1       2.256   7.434  19.160  0.00  0.00    +0.000 A 
ATOM     29  C   UNL     1       2.366   8.133  17.967  0.00  0.00    +0.000 A 
ATOM     30  C   UNL     1       1.910   9.446  17.884  0.00  0.00    +0.000 A 
ENDBRANCH   8  25
BRANCH   1  31
ATOM     31  C   UNL     1      -1.681  11.148  18.955  0.00  0.00    +0.000 C 
BRANCH  31  33
ATOM     32  C   UNL     1      -2.122   9.899  16.793  0.00  0.00    +0.000 C 
ATOM     33  C   UNL     1      -2.498  11.090  17.659  0.00  0.00    +0.000 C 
ENDBRANCH  31  33
ENDBRANCH   1  31
TORSDOF 6
ENDMDL
MODEL 4
REMARK VINA RESULT:      -6.4      1.015      1.796
REMARK  Name = 
REMARK  8 active torsions:
REMARK  status: ('A' for Active; 'I' for Inactive)
REMARK    1  A    between atoms: C_1  and  C_2
REMARK    2  A    between atoms: C_2  and  C_3
REMARK    3  A    between atoms: C_3  and  C_4
REMARK    4  A    between atoms: N_7  and  C_18
REMARK    5  A    between atoms: C_8  and  C_10
REMARK    6  A    between atoms: C_21  and  O_22
REMARK    7  A    between atoms: O_22  and  C_23
REMARK    8  A    between atoms: C_27  and  C_28
REMARK                            x       y       z     vdW  Elec       q    Type
REMARK                         _______ _______ _______ _____ _____    ______ ____
ROOT
ATOM      1  C   UNL     1      -0.341  11.824  18.798  0.00  0.00    +0.000 A 
ATOM      2  S   UNL     1      -0.400  13.498  18.367  0.00  0.00    +0.000 S 
ATOM      3  C   UNL     1       1.212  13.678  18.924  0.00  0.00    +0.000 A 
ATOM      4  N   UNL     1       1.802  14.951  19.125  0.00  0.00    +0.000 N 
ATOM      5  C   UNL     1       1.117  16.173  19.294  0.00  0.00    +0.000 C 
ATOM      6  O   UNL     1       1.632  17.261  18.990  0.00  0.00    +0.000 OA
ATOM      7  N   UNL     1       1.836  12.517  19.063  0.00  0.00    +0.000 NA
ATOM      8  C   UNL     1       0.967  11.446  18.916  0.00  0.00    +0.000 A 
ENDROOT
BRANCH   5   9
ATOM      9  C   UNL     1      -0.206  16.285  19.958  0.00  0.00    +0.000 A 
ATOM     10  C   UNL     1      -1.294  16.854  19.278  0.00  0.00    +0.000 A 
ATOM     11  C   UNL     1      -2.485  17.108  19.952  0.00  0.00    +0.000 A 
ATOM     12  C   UNL     1      -2.633  16.697  21.277  0.00  0.00    +0.000 A 
ATOM     13 CL   UNL     1      -4.078  17.077  22.130  0.00  0.00    +0.000 Cl
ATOM     14  C   UNL     1      -1.613  16.012  21.924  0.00  0.00    +0.000 A 
ATOM     15  C   UNL     1      -0.396  15.806  21.273  0.00  0.00    +0.000 A 
ATOM     16 CL   UNL     1       0.827  15.011  22.211  0.00  0.00    +0.000 Cl
ENDBRANCH   5   9
BRANCH   4  17
ATOM     17  C   UNL     1       3.239  14.975  19.099  0.00  0.00    +0.000 A 
ATOM     18  C   UNL     1       3.955  14.886  17.886  0.00  0.00    +0.000 A 
ATOM     19  C   UNL     1       5.345  14.852  17.883  0.00  0.00    +0.000 A 
ATOM     20  C   UNL     1       6.067  14.931  19.068  0.00  0.00    +0.000 A 
ATOM     21  C   UNL     1       5.377  15.016  20.278  0.00  0.00    +0.000 A 
ATOM     22  C   UNL     1       3.998  15.043  20.278  0.00  0.00    +0.000 A 
BRANCH  20  23
ATOM     23  O   UNL     1       7.425  14.859  18.942  0.00  0.00    +0.000 OA
ATOM     24  C   UNL     1       7.917  13.953  17.961  0.00  0.00    +0.000 C 
ENDBRANCH  20  23
ENDBRANCH   4  17
BRANCH   8  25
ATOM     25  C   UNL     1       1.440  10.066  18.985  0.00  0.00    +0.000 A 
ATOM     26  C   UNL     1       2.006   9.452  17.877  0.00  0.00    +0.000 A 
ATOM     27  C   UNL     1       2.387   8.111  17.921  0.00  0.00    +0.000 A 
ATOM     28  C   UNL     1       2.219   7.382  19.103  0.00  0.00    +0.000 A 
ATOM     29  C   UNL     1       1.687   7.997  20.227  0.00  0.00    +0.000 A 
ATOM     30  C   UNL     1       1.292   9.330  20.172  0.00  0.00    +0.000 A 
ENDBRANCH   8  25
BRANCH   1  31
ATOM     31  C   UNL     1      -1.607  11.028  18.961  0.00  0.00    +0.000 C 
BRANCH  31  33
ATOM     32  C   UNL     1      -3.377  10.012  17.457  0.00  0.00    +0.000 C 
ATOM     33  C   UNL     1      -1.892  10.111  17.766  0.00  0.00    +0.000 C 
ENDBRANCH  31  33
ENDBRANCH   1  31
TORSDOF 6
ENDMDL
MODEL 5
REMARK VINA RESULT:      -6.2      1.229      1.774
REMARK  Name = 
REMARK  8 active torsions:
REMARK  status: ('A' for Active; 'I' for Inactive)
REMARK    1  A    between atoms: C_1  and  C_2
REMARK    2  A    between atoms: C_2  and  C_3
REMARK    3  A    between atoms: C_3  and  C_4
REMARK    4  A    between atoms: N_7  and  C_18
REMARK    5  A    between atoms: C_8  and  C_10
REMARK    6  A    between atoms: C_21  and  O_22
REMARK    7  A    between atoms: O_22  and  C_23
REMARK    8  A    between atoms: C_27  and  C_28
REMARK                            x       y       z     vdW  Elec       q    Type
REMARK                         _______ _______ _______ _____ _____    ______ ____
ROOT
ATOM      1  C   UNL     1      -0.395  12.344  19.025  0.00  0.00    +0.000 A 
ATOM      2  S   UNL     1      -0.228  13.891  18.270  0.00  0.00    +0.000 S 
ATOM      3  C   UNL     1       1.358  14.011  18.908  0.00  0.00    +0.000 A 
ATOM      4  N   UNL     1       2.084  15.228  18.902  0.00  0.00    +0.000 N 
ATOM      5  C   UNL     1       1.542  16.525  18.771  0.00  0.00    +0.000 C 
ATOM      6  O   UNL     1       2.199  17.467  18.302  0.00  0.00    +0.000 OA
ATOM      7  N   UNL     1       1.830  12.844  19.322  0.00  0.00    +0.000 NA
ATOM      8  C   UNL     1       0.849  11.863  19.319  0.00  0.00    +0.000 A 
ENDROOT
BRANCH   5   9
ATOM      9  C   UNL     1       0.206  16.909  19.292  0.00  0.00    +0.000 A 
ATOM     10  C   UNL     1      -0.803  17.330  18.412  0.00  0.00    +0.000 A 
ATOM     11  C   UNL     1      -1.997  17.845  18.911  0.00  0.00    +0.000 A 
ATOM     12  C   UNL     1      -2.233  17.840  20.285  0.00  0.00    +0.000 A 
ATOM     13 CL   UNL     1      -3.676  18.542  20.904  0.00  0.00    +0.000 Cl
ATOM     14  C   UNL     1      -1.300  17.302  21.162  0.00  0.00    +0.000 A 
ATOM     15  C   UNL     1      -0.077  16.839  20.673  0.00  0.00    +0.000 A 
ATOM     16 CL   UNL     1       1.037  16.265  21.873  0.00  0.00    +0.000 Cl
ENDBRANCH   5   9
BRANCH   4  17
ATOM     17  C   UNL     1       3.513  15.094  18.986  0.00  0.00    +0.000 A 
ATOM     18  C   UNL     1       4.197  15.255  20.210  0.00  0.00    +0.000 A 
ATOM     19  C   UNL     1       5.585  15.179  20.263  0.00  0.00    +0.000 A 
ATOM     20  C   UNL     1       6.333  14.919  19.121  0.00  0.00    +0.000 A 
ATOM     21  C   UNL     1       5.675  14.761  17.900  0.00  0.00    +0.000 A 
ATOM     22  C   UNL     1       4.298  14.842  17.850  0.00  0.00    +0.000 A 
BRANCH  20  23
ATOM     23  O   UNL     1       7.687  14.896  19.291  0.00  0.00    +0.000 OA
ATOM     24  C   UNL     1       8.158  15.133  20.613  0.00  0.00    +0.000 C 
ENDBRANCH  20  23
ENDBRANCH   4  17
BRANCH   8  25
ATOM     25  C   UNL     1       1.150  10.484  19.696  0.00  0.00    +0.000 A 
ATOM     26  C   UNL     1       1.626   9.579  18.759  0.00  0.00    +0.000 A 
ATOM     27  C   UNL     1       1.840   8.243  19.102  0.00  0.00    +0.000 A 
ATOM     28  C   UNL     1       1.593   7.816  20.410  0.00  0.00    +0.000 A 
ATOM     29  C   UNL     1       1.149   8.721  21.363  0.00  0.00    +0.000 A 
ATOM     30  C   UNL     1       0.921  10.049  21.011  0.00  0.00    +0.000 A 
ENDBRANCH   8  25
BRANCH   1  31
ATOM     31  C   UNL     1      -1.754  11.737  19.239  0.00  0.00    +0.000 C 
BRANCH  31  33
ATOM     32  C   UNL     1      -1.799  10.048  17.347  0.00  0.00    +0.000 C 
ATOM     33  C   UNL     1      -2.426  11.304  17.931  0.00  0.00    +0.000 C 
ENDBRANCH  31  33
ENDBRANCH   1  31
TORSDOF 6
ENDMDL
MODEL 6
REMARK VINA RESULT:      -6.2      0.747      1.115
REMARK  Name = 
REMARK  8 active torsions:
REMARK  status: ('A' for Active; 'I' for Inactive)
REMARK    1  A    between atoms: C_1  and  C_2
REMARK    2  A    between atoms: C_2  and  C_3
REMARK    3  A    between atoms: C_3  and  C_4
REMARK    4  A    between atoms: N_7  and  C_18
REMARK    5  A    between atoms: C_8  and  C_10
REMARK    6  A    between atoms: C_21  and  O_22
REMARK    7  A    between atoms: O_22  and  C_23
REMARK    8  A    between atoms: C_27  and  C_28
REMARK                            x       y       z     vdW  Elec       q    Type
REMARK                         _______ _______ _______ _____ _____    ______ ____
ROOT
ATOM      1  C   UNL     1      -0.306  12.380  18.779  0.00  0.00    +0.000 A 
ATOM      2  S   UNL     1      -0.161  14.028  18.273  0.00  0.00    +0.000 S 
ATOM      3  C   UNL     1       1.445  14.051  18.872  0.00  0.00    +0.000 A 
ATOM      4  N   UNL     1       2.172  15.258  19.036  0.00  0.00    +0.000 N 
ATOM      5  C   UNL     1       1.626  16.556  19.127  0.00  0.00    +0.000 C 
ATOM      6  O   UNL     1       2.270  17.563  18.793  0.00  0.00    +0.000 OA
ATOM      7  N   UNL     1       1.928  12.836  19.082  0.00  0.00    +0.000 NA
ATOM      8  C   UNL     1       0.946  11.863  18.955  0.00  0.00    +0.000 A 
ENDROOT
BRANCH   5   9
ATOM      9  C   UNL     1       0.307  16.848  19.743  0.00  0.00    +0.000 A 
ATOM     10  C   UNL     1       0.093  16.601  21.108  0.00  0.00    +0.000 A 
ATOM     11  C   UNL     1      -1.185  16.719  21.648  0.00  0.00    +0.000 A 
ATOM     12  C   UNL     1      -2.233  17.187  20.855  0.00  0.00    +0.000 A 
ATOM     13 CL   UNL     1      -3.824  17.262  21.504  0.00  0.00    +0.000 Cl
ATOM     14  C   UNL     1      -2.009  17.564  19.537  0.00  0.00    +0.000 A 
ATOM     15  C   UNL     1      -0.744  17.393  18.974  0.00  0.00    +0.000 A 
ATOM     16 CL   UNL     1      -0.609  17.824  17.299  0.00  0.00    +0.000 Cl
ENDBRANCH   5   9
BRANCH   4  17
ATOM     17  C   UNL     1       3.602  15.118  19.054  0.00  0.00    +0.000 A 
ATOM     18  C   UNL     1       4.335  15.198  20.257  0.00  0.00    +0.000 A 
ATOM     19  C   UNL     1       5.723  15.119  20.249  0.00  0.00    +0.000 A 
ATOM     20  C   UNL     1       6.424  14.932  19.064  0.00  0.00    +0.000 A 
ATOM     21  C   UNL     1       5.717  14.853  17.863  0.00  0.00    +0.000 A 
ATOM     22  C   UNL     1       4.340  14.938  17.873  0.00  0.00    +0.000 A 
BRANCH  20  23
ATOM     23  O   UNL     1       7.784  14.898  19.178  0.00  0.00    +0.000 OA
ATOM     24  C   UNL     1       8.518  15.501  18.118  0.00  0.00    +0.000 C 
ENDBRANCH  20  23
ENDBRANCH   4  17
BRANCH   8  25
ATOM     25  C   UNL     1       1.257  10.444  19.101  0.00  0.00    +0.000 A 
ATOM     26  C   UNL     1       1.003   9.779  20.291  0.00  0.00    +0.000 A 
ATOM     27  C   UNL     1       1.370   8.443  20.455  0.00  0.00    +0.000 A 
ATOM     28  C   UNL     1       1.982   7.759  19.399  0.00  0.00    +0.000 A 
ATOM     29  C   UNL     1       2.208   8.405  18.193  0.00  0.00    +0.000 A 
ATOM     30  C   UNL     1       1.855   9.743  18.042  0.00  0.00    +0.000 A 
ENDBRANCH   8  25
BRANCH   1  31
ATOM     31  C   UNL     1      -1.659  11.742  18.936  0.00  0.00    +0.000 C 
BRANCH  31  33
ATOM     32  C   UNL     1      -1.891  12.309  21.397  0.00  0.00    +0.000 C 
ATOM     33  C   UNL     1      -2.514  12.417  20.015  0.00  0.00    +0.000 C 
ENDBRANCH  31  33
ENDBRANCH   1  31
TORSDOF 6
ENDMDL
MODEL 7
REMARK VINA RESULT:      -6.1      0.691      1.585
REMARK  Name = 
REMARK  8 active torsions:
REMARK  status: ('A' for Active; 'I' for Inactive)
REMARK    1  A    between atoms: C_1  and  C_2
REMARK    2  A    between atoms: C_2  and  C_3
REMARK    3  A    between atoms: C_3  and  C_4
REMARK    4  A    between atoms: N_7  and  C_18
REMARK    5  A    between atoms: C_8  and  C_10
REMARK    6  A    between atoms: C_21  and  O_22
REMARK    7  A    between atoms: O_22  and  C_23
REMARK    8  A    between atoms: C_27  and  C_28
REMARK                            x       y       z     vdW  Elec       q    Type
REMARK                         _______ _______ _______ _____ _____    ______ ____
ROOT
ATOM      1  C   UNL     1      -0.263  12.114  18.848  0.00  0.00    +0.000 A 
ATOM      2  S   UNL     1      -0.241  13.790  18.419  0.00  0.00    +0.000 S 
ATOM      3  C   UNL     1       1.383  13.887  18.960  0.00  0.00    +0.000 A 
ATOM      4  N   UNL     1       2.040  15.128  19.156  0.00  0.00    +0.000 N 
ATOM      5  C   UNL     1       1.420  16.384  19.332  0.00  0.00    +0.000 C 
ATOM      6  O   UNL     1       1.986  17.444  19.024  0.00  0.00    +0.000 OA
ATOM      7  N   UNL     1       1.949  12.696  19.091  0.00  0.00    +0.000 NA
ATOM      8  C   UNL     1       1.024  11.670  18.952  0.00  0.00    +0.000 A 
ENDROOT
BRANCH   5   9
ATOM      9  C   UNL     1       0.111  16.561  20.010  0.00  0.00    +0.000 A 
ATOM     10  C   UNL     1      -0.049  16.181  21.351  0.00  0.00    +0.000 A 
ATOM     11  C   UNL     1      -1.313  16.194  21.936  0.00  0.00    +0.000 A 
ATOM     12  C   UNL     1      -2.403  16.689  21.221  0.00  0.00    +0.000 A 
ATOM     13 CL   UNL     1      -3.974  16.637  21.919  0.00  0.00    +0.000 Cl
ATOM     14  C   UNL     1      -2.237  17.195  19.938  0.00  0.00    +0.000 A 
ATOM     15  C   UNL     1      -0.985  17.130  19.325  0.00  0.00    +0.000 A 
ATOM     16 CL   UNL     1      -0.922  17.718  17.694  0.00  0.00    +0.000 Cl
ENDBRANCH   5   9
BRANCH   4  17
ATOM     17  C   UNL     1       3.475  15.079  19.114  0.00  0.00    +0.000 A 
ATOM     18  C   UNL     1       4.173  14.928  17.896  0.00  0.00    +0.000 A 
ATOM     19  C   UNL     1       5.560  14.824  17.880  0.00  0.00    +0.000 A 
ATOM     20  C   UNL     1       6.297  14.891  19.056  0.00  0.00    +0.000 A 
ATOM     21  C   UNL     1       5.626  15.036  20.271  0.00  0.00    +0.000 A 
ATOM     22  C   UNL     1       4.250  15.134  20.284  0.00  0.00    +0.000 A 
BRANCH  20  23
ATOM     23  O   UNL     1       7.648  14.748  18.918  0.00  0.00    +0.000 OA
ATOM     24  C   UNL     1       8.355  14.320  20.077  0.00  0.00    +0.000 C 
ENDBRANCH  20  23
ENDBRANCH   4  17
BRANCH   8  25
ATOM     25  C   UNL     1       1.428  10.268  19.015  0.00  0.00    +0.000 A 
ATOM     26  C   UNL     1       1.962   9.631  17.905  0.00  0.00    +0.000 A 
ATOM     27  C   UNL     1       2.276   8.273  17.943  0.00  0.00    +0.000 A 
ATOM     28  C   UNL     1       2.070   7.548  19.121  0.00  0.00    +0.000 A 
ATOM     29  C   UNL     1       1.569   8.183  20.248  0.00  0.00    +0.000 A 
ATOM     30  C   UNL     1       1.242   9.535  20.198  0.00  0.00    +0.000 A 
ENDBRANCH   8  25
BRANCH   1  31
ATOM     31  C   UNL     1      -1.567  11.384  19.023  0.00  0.00    +0.000 C 
BRANCH  31  33
ATOM     32  C   UNL     1      -2.345  12.522  21.153  0.00  0.00    +0.000 C 
ATOM     33  C   UNL     1      -2.647  12.245  19.688  0.00  0.00    +0.000 C 
ENDBRANCH  31  33
ENDBRANCH   1  31
TORSDOF 6
ENDMDL
MODEL 8
REMARK VINA RESULT:      -6.0      1.194      1.667
REMARK  Name = 
REMARK  8 active torsions:
REMARK  status: ('A' for Active; 'I' for Inactive)
REMARK    1  A    between atoms: C_1  and  C_2
REMARK    2  A    between atoms: C_2  and  C_3
REMARK    3  A    between atoms: C_3  and  C_4
REMARK    4  A    between atoms: N_7  and  C_18
REMARK    5  A    between atoms: C_8  and  C_10
REMARK    6  A    between atoms: C_21  and  O_22
REMARK    7  A    between atoms: O_22  and  C_23
REMARK    8  A    between atoms: C_27  and  C_28
REMARK                            x       y       z     vdW  Elec       q    Type
REMARK                         _______ _______ _______ _____ _____    ______ ____
ROOT
ATOM      1  C   UNL     1      -0.373  11.447  19.000  0.00  0.00    +0.000 A 
ATOM      2  S   UNL     1      -0.502  13.169  18.896  0.00  0.00    +0.000 S 
ATOM      3  C   UNL     1       1.012  13.311  19.687  0.00  0.00    +0.000 A 
ATOM      4  N   UNL     1       1.479  14.545  20.207  0.00  0.00    +0.000 N 
ATOM      5  C   UNL     1       0.690  15.674  20.515  0.00  0.00    +0.000 C 
ATOM      6  O   UNL     1       1.156  16.825  20.499  0.00  0.00    +0.000 OA
ATOM      7  N   UNL     1       1.699  12.178  19.681  0.00  0.00    +0.000 NA
ATOM      8  C   UNL     1       0.935  11.117  19.216  0.00  0.00    +0.000 A 
ENDROOT
BRANCH   5   9
ATOM      9  C   UNL     1      -0.708  15.586  21.006  0.00  0.00    +0.000 A 
ATOM     10  C   UNL     1      -1.008  14.848  22.162  0.00  0.00    +0.000 A 
ATOM     11  C   UNL     1      -2.333  14.629  22.528  0.00  0.00    +0.000 A 
ATOM     12  C   UNL     1      -3.361  15.236  21.807  0.00  0.00    +0.000 A 
ATOM     13 CL   UNL     1      -4.998  14.906  22.217  0.00  0.00    +0.000 Cl
ATOM     14  C   UNL     1      -3.076  16.079  20.741  0.00  0.00    +0.000 A 
ATOM     15  C   UNL     1      -1.753  16.255  20.332  0.00  0.00    +0.000 A 
ATOM     16 CL   UNL     1      -1.531  17.266  18.941  0.00  0.00    +0.000 Cl
ENDBRANCH   5   9
BRANCH   4  17
ATOM     17  C   UNL     1       2.902  14.643  20.377  0.00  0.00    +0.000 A 
ATOM     18  C   UNL     1       3.508  14.467  21.640  0.00  0.00    +0.000 A 
ATOM     19  C   UNL     1       4.881  14.623  21.796  0.00  0.00    +0.000 A 
ATOM     20  C   UNL     1       5.696  14.929  20.714  0.00  0.00    +0.000 A 
ATOM     21  C   UNL     1       5.116  15.111  19.457  0.00  0.00    +0.000 A 
ATOM     22  C   UNL     1       3.753  14.961  19.306  0.00  0.00    +0.000 A 
BRANCH  20  23
ATOM     23  O   UNL     1       7.023  15.085  20.995  0.00  0.00    +0.000 OA
ATOM     24  C   UNL     1       7.550  14.249  22.019  0.00  0.00    +0.000 C 
ENDBRANCH  20  23
ENDBRANCH   4  17
BRANCH   8  25
ATOM     25  C   UNL     1       1.497   9.776  19.080  0.00  0.00    +0.000 A 
ATOM     26  C   UNL     1       2.087   9.369  17.892  0.00  0.00    +0.000 A 
ATOM     27  C   UNL     1       2.555   8.065  17.737  0.00  0.00    +0.000 A 
ATOM     28  C   UNL     1       2.448   7.160  18.799  0.00  0.00    +0.000 A 
ATOM     29  C   UNL     1       1.891   7.567  20.003  0.00  0.00    +0.000 A 
ATOM     30  C   UNL     1       1.411   8.866  20.145  0.00  0.00    +0.000 A 
ENDBRANCH   8  25
BRANCH   1  31
ATOM     31  C   UNL     1      -1.587  10.575  18.837  0.00  0.00    +0.000 C 
BRANCH  31  33
ATOM     32  C   UNL     1      -3.254   9.933  17.036  0.00  0.00    +0.000 C 
ATOM     33  C   UNL     1      -1.786  10.094  17.395  0.00  0.00    +0.000 C 
ENDBRANCH  31  33
ENDBRANCH   1  31
TORSDOF 6
ENDMDL
MODEL 9
REMARK VINA RESULT:      -6.0      1.171      1.866
REMARK  Name = 
REMARK  8 active torsions:
REMARK  status: ('A' for Active; 'I' for Inactive)
REMARK    1  A    between atoms: C_1  and  C_2
REMARK    2  A    between atoms: C_2  and  C_3
REMARK    3  A    between atoms: C_3  and  C_4
REMARK    4  A    between atoms: N_7  and  C_18
REMARK    5  A    between atoms: C_8  and  C_10
REMARK    6  A    between atoms: C_21  and  O_22
REMARK    7  A    between atoms: O_22  and  C_23
REMARK    8  A    between atoms: C_27  and  C_28
REMARK                            x       y       z     vdW  Elec       q    Type
REMARK                         _______ _______ _______ _____ _____    ______ ____
ROOT
ATOM      1  C   UNL     1      -0.260  12.190  18.782  0.00  0.00    +0.000 A 
ATOM      2  S   UNL     1      -0.142  13.815  18.200  0.00  0.00    +0.000 S 
ATOM      3  C   UNL     1       1.453  13.902  18.825  0.00  0.00    +0.000 A 
ATOM      4  N   UNL     1       2.151  15.130  18.942  0.00  0.00    +0.000 N 
ATOM      5  C   UNL     1       1.577  16.419  18.963  0.00  0.00    +0.000 C 
ATOM      6  O   UNL     1       2.205  17.423  18.591  0.00  0.00    +0.000 OA
ATOM      7  N   UNL     1       1.958  12.708  19.100  0.00  0.00    +0.000 NA
ATOM      8  C   UNL     1       0.999  11.710  19.004  0.00  0.00    +0.000 A 
ENDROOT
BRANCH   5   9
ATOM      9  C   UNL     1       0.241  16.711  19.542  0.00  0.00    +0.000 A 
ATOM     10  C   UNL     1      -0.787  17.218  18.732  0.00  0.00    +0.000 A 
ATOM     11  C   UNL     1      -1.982  17.645  19.304  0.00  0.00    +0.000 A 
ATOM     12  C   UNL     1      -2.200  17.468  20.670  0.00  0.00    +0.000 A 
ATOM     13 CL   UNL     1      -3.646  18.061  21.386  0.00  0.00    +0.000 Cl
ATOM     14  C   UNL     1      -1.246  16.844  21.463  0.00  0.00    +0.000 A 
ATOM     15  C   UNL     1      -0.022  16.467  20.908  0.00  0.00    +0.000 A 
ATOM     16 CL   UNL     1       1.118  15.772  22.015  0.00  0.00    +0.000 Cl
ENDBRANCH   5   9
BRANCH   4  17
ATOM     17  C   UNL     1       3.583  15.023  18.991  0.00  0.00    +0.000 A 
ATOM     18  C   UNL     1       4.287  15.100  20.212  0.00  0.00    +0.000 A 
ATOM     19  C   UNL     1       5.676  15.052  20.234  0.00  0.00    +0.000 A 
ATOM     20  C   UNL     1       6.408  14.901  19.063  0.00  0.00    +0.000 A 
ATOM     21  C   UNL     1       5.730  14.826  17.844  0.00  0.00    +0.000 A 
ATOM     22  C   UNL     1       4.352  14.880  17.825  0.00  0.00    +0.000 A 
BRANCH  20  23
ATOM     23  O   UNL     1       7.766  14.896  19.207  0.00  0.00    +0.000 OA
ATOM     24  C   UNL     1       8.525  14.978  18.006  0.00  0.00    +0.000 C 
ENDBRANCH  20  23
ENDBRANCH   4  17
BRANCH   8  25
ATOM     25  C   UNL     1       1.337  10.306  19.222  0.00  0.00    +0.000 A 
ATOM     26  C   UNL     1       1.875   9.537  18.200  0.00  0.00    +0.000 A 
ATOM     27  C   UNL     1       2.126   8.178  18.386  0.00  0.00    +0.000 A 
ATOM     28  C   UNL     1       1.853   7.586  19.624  0.00  0.00    +0.000 A 
ATOM     29  C   UNL     1       1.348   8.354  20.663  0.00  0.00    +0.000 A 
ATOM     30  C   UNL     1       1.083   9.706  20.466  0.00  0.00    +0.000 A 
ENDBRANCH   8  25
BRANCH   1  31
ATOM     31  C   UNL     1      -1.602  11.531  18.947  0.00  0.00    +0.000 C 
BRANCH  31  33
ATOM     32  C   UNL     1      -1.869  12.353  21.332  0.00  0.00    +0.000 C 
ATOM     33  C   UNL     1      -2.503  12.256  19.954  0.00  0.00    +0.000 C 
ENDBRANCH  31  33
ENDBRANCH   1  31
TORSDOF 6
ENDMDL
