MODEL 1
REMARK VINA RESULT:      -7.7      0.000      0.000
REMARK  Name = 
REMARK  9 active torsions:
REMARK  status: ('A' for Active; 'I' for Inactive)
REMARK    1  A    between atoms: C_1  and  S_2
REMARK    2  A    between atoms: S_2  and  C_3
REMARK    3  A    between atoms: C_6  and  C_7
REMARK    4  A    between atoms: C_7  and  S_8
REMARK    5  A    between atoms: C_7  and  C_12
REMARK    6  A    between atoms: C_7  and  C_18
REMARK    7  A    between atoms: S_8  and  C_9
REMARK    8  A    between atoms: C_9  and  C_10
REMARK    9  A    between atoms: C_10  and  N_11
REMARK                            x       y       z     vdW  Elec       q    Type
REMARK                         _______ _______ _______ _____ _____    ______ ____
ROOT
ATOM      1  C   UNL     1       4.375   5.678  17.614  0.00  0.00    +0.000 C 
ENDROOT
BRANCH   1   5
ATOM      2  C   UNL     1       1.639   8.786  19.116  0.00  0.00    +0.000 A 
ATOM      3  C   UNL     1       2.109   8.853  17.809  0.00  0.00    +0.000 A 
ATOM      4  C   UNL     1       2.884   7.816  17.273  0.00  0.00    +0.000 A 
ATOM      5  C   UNL     1       3.282   6.715  18.051  0.00  0.00    +0.000 A 
ATOM      6  C   UNL     1       2.699   6.619  19.338  0.00  0.00    +0.000 A 
ATOM      7  C   UNL     1       1.909   7.646  19.871  0.00  0.00    +0.000 A 
BRANCH   2   9
ATOM      8  C   UNL     1      -0.513  10.375  18.541  0.00  0.00    +0.000 C 
ATOM      9  S   UNL     1       0.769  10.181  19.801  0.00  0.00    +0.000 S 
ENDBRANCH   2   9
ENDBRANCH   1   5
BRANCH   1  10
ATOM     10  C   UNL     1       5.825   6.022  18.129  0.00  0.00    +0.000 A 
ATOM     11  C   UNL     1       6.445   5.349  19.200  0.00  0.00    +0.000 A 
ATOM     12  C   UNL     1       7.736   5.681  19.625  0.00  0.00    +0.000 A 
ATOM     13  C   UNL     1       8.429   6.721  19.016  0.00  0.00    +0.000 A 
ATOM     14  C   UNL     1       7.837   7.423  17.974  0.00  0.00    +0.000 A 
ATOM     15  C   UNL     1       6.558   7.072  17.528  0.00  0.00    +0.000 A 
ENDBRANCH   1  10
BRANCH   1  16
ATOM     16  C   UNL     1       3.924   4.227  18.036  0.00  0.00    +0.000 A 
ATOM     17  C   UNL     1       2.818   3.587  17.438  0.00  0.00    +0.000 A 
ATOM     18  C   UNL     1       2.472   2.268  17.754  0.00  0.00    +0.000 A 
ATOM     19  C   UNL     1       3.185   1.570  18.720  0.00  0.00    +0.000 A 
ATOM     20  C   UNL     1       4.240   2.194  19.378  0.00  0.00    +0.000 A 
ATOM     21  C   UNL     1       4.602   3.509  19.045  0.00  0.00    +0.000 A 
ENDBRANCH   1  16
BRANCH   1  22
ATOM     22  S   UNL     1       4.585   5.626  15.644  0.00  0.00    +0.000 S 
BRANCH  22  23
ATOM     23  C   UNL     1       5.725   4.210  15.401  0.00  0.00    +0.000 C 
BRANCH  23  24
ATOM     24  C   UNL     1       6.655   4.501  14.209  0.00  0.00    +0.000 C 
BRANCH  24  25
ATOM     25  N   UNL     1       7.721   5.461  14.528  0.00  0.00    +0.000 NA
ATOM     26  H   UNL     1       8.120   5.191  15.431  0.00  0.00    +0.000 HD
ATOM     27  H   UNL     1       7.308   6.381  14.670  0.00  0.00    +0.000 HD
ENDBRANCH  24  25
ENDBRANCH  23  24
ENDBRANCH  22  23
ENDBRANCH   1  22
TORSDOF 8
ENDMDL
MODEL 2
REMARK VINA RESULT:      -7.6      0.434      1.054
REMARK  Name = 
REMARK  9 active torsions:
REMARK  status: ('A' for Active; 'I' for Inactive)
REMARK    1  A    between atoms: C_1  and  S_2
REMARK    2  A    between atoms: S_2  and  C_3
REMARK    3  A    between atoms: C_6  and  C_7
REMARK    4  A    between atoms: C_7  and  S_8
REMARK    5  A    between atoms: C_7  and  C_12
REMARK    6  A    between atoms: C_7  and  C_18
REMARK    7  A    between atoms: S_8  and  C_9
REMARK    8  A    between atoms: C_9  and  C_10
REMARK    9  A    between atoms: C_10  and  N_11
REMARK                            x       y       z     vdW  Elec       q    Type
REMARK                         _______ _______ _______ _____ _____    ______ ____
ROOT
ATOM      1  C   UNL     1       4.389   5.710  17.590  0.00  0.00    +0.000 C 
ENDROOT
BRANCH   1   5
ATOM      2  C   UNL     1       1.629   8.765  19.159  0.00  0.00    +0.000 A 
ATOM      3  C   UNL     1       2.120   8.878  17.862  0.00  0.00    +0.000 A 
ATOM      4  C   UNL     1       2.903   7.860  17.302  0.00  0.00    +0.000 A 
ATOM      5  C   UNL     1       3.289   6.731  18.047  0.00  0.00    +0.000 A 
ATOM      6  C   UNL     1       2.686   6.590  19.320  0.00  0.00    +0.000 A 
ATOM      7  C   UNL     1       1.887   7.598  19.876  0.00  0.00    +0.000 A 
BRANCH   2   9
ATOM      8  C   UNL     1       1.318  11.457  18.786  0.00  0.00    +0.000 C 
ATOM      9  S   UNL     1       0.748  10.134  19.878  0.00  0.00    +0.000 S 
ENDBRANCH   2   9
ENDBRANCH   1   5
BRANCH   1  10
ATOM     10  C   UNL     1       5.837   6.055  18.110  0.00  0.00    +0.000 A 
ATOM     11  C   UNL     1       6.458   5.377  19.177  0.00  0.00    +0.000 A 
ATOM     12  C   UNL     1       7.747   5.710  19.607  0.00  0.00    +0.000 A 
ATOM     13  C   UNL     1       8.437   6.757  19.006  0.00  0.00    +0.000 A 
ATOM     14  C   UNL     1       7.844   7.465  17.967  0.00  0.00    +0.000 A 
ATOM     15  C   UNL     1       6.567   7.112  17.517  0.00  0.00    +0.000 A 
ENDBRANCH   1  10
BRANCH   1  16
ATOM     16  C   UNL     1       3.949   4.249  17.988  0.00  0.00    +0.000 A 
ATOM     17  C   UNL     1       4.638   3.505  18.970  0.00  0.00    +0.000 A 
ATOM     18  C   UNL     1       4.195   2.243  19.382  0.00  0.00    +0.000 A 
ATOM     19  C   UNL     1       3.085   1.662  18.784  0.00  0.00    +0.000 A 
ATOM     20  C   UNL     1       2.422   2.339  17.765  0.00  0.00    +0.000 A 
ATOM     21  C   UNL     1       2.851   3.615  17.367  0.00  0.00    +0.000 A 
ENDBRANCH   1  16
BRANCH   1  22
ATOM     22  S   UNL     1       4.597   5.694  15.620  0.00  0.00    +0.000 S 
BRANCH  22  23
ATOM     23  C   UNL     1       5.735   4.281  15.350  0.00  0.00    +0.000 C 
BRANCH  23  24
ATOM     24  C   UNL     1       6.658   4.589  14.158  0.00  0.00    +0.000 C 
BRANCH  24  25
ATOM     25  N   UNL     1       7.787   5.462  14.511  0.00  0.00    +0.000 NA
ATOM     26  H   UNL     1       7.420   6.409  14.633  0.00  0.00    +0.000 HD
ATOM     27  H   UNL     1       8.428   5.512  13.720  0.00  0.00    +0.000 HD
ENDBRANCH  24  25
ENDBRANCH  23  24
ENDBRANCH  22  23
ENDBRANCH   1  22
TORSDOF 8
ENDMDL
MODEL 3
REMARK VINA RESULT:      -7.6      2.247      5.418
REMARK  Name = 
REMARK  9 active torsions:
REMARK  status: ('A' for Active; 'I' for Inactive)
REMARK    1  A    between atoms: C_1  and  S_2
REMARK    2  A    between atoms: S_2  and  C_3
REMARK    3  A    between atoms: C_6  and  C_7
REMARK    4  A    between atoms: C_7  and  S_8
REMARK    5  A    between atoms: C_7  and  C_12
REMARK    6  A    between atoms: C_7  and  C_18
REMARK    7  A    between atoms: S_8  and  C_9
REMARK    8  A    between atoms: C_9  and  C_10
REMARK    9  A    between atoms: C_10  and  N_11
REMARK                            x       y       z     vdW  Elec       q    Type
REMARK                         _______ _______ _______ _____ _____    ______ ____
ROOT
ATOM      1  C   UNL     1       3.813   5.340  18.228  0.00  0.00    +0.000 C 
ENDROOT
BRANCH   1   5
ATOM      2  C   UNL     1       6.050   4.995  14.448  0.00  0.00    +0.000 A 
ATOM      3  C   UNL     1       5.408   3.880  14.975  0.00  0.00    +0.000 A 
ATOM      4  C   UNL     1       4.595   3.992  16.110  0.00  0.00    +0.000 A 
ATOM      5  C   UNL     1       4.460   5.207  16.804  0.00  0.00    +0.000 A 
ATOM      6  C   UNL     1       5.032   6.344  16.185  0.00  0.00    +0.000 A 
ATOM      7  C   UNL     1       5.832   6.239  15.039  0.00  0.00    +0.000 A 
BRANCH   2   9
ATOM      8  C   UNL     1       6.358   3.419  12.233  0.00  0.00    +0.000 C 
ATOM      9  S   UNL     1       7.176   4.788  13.085  0.00  0.00    +0.000 S 
ENDBRANCH   2   9
ENDBRANCH   1   5
BRANCH   1  10
ATOM     10  C   UNL     1       3.019   6.684  18.446  0.00  0.00    +0.000 A 
ATOM     11  C   UNL     1       2.918   7.691  17.466  0.00  0.00    +0.000 A 
ATOM     12  C   UNL     1       2.199   8.869  17.696  0.00  0.00    +0.000 A 
ATOM     13  C   UNL     1       1.593   9.091  18.927  0.00  0.00    +0.000 A 
ATOM     14  C   UNL     1       1.695   8.130  19.926  0.00  0.00    +0.000 A 
ATOM     15  C   UNL     1       2.388   6.939  19.686  0.00  0.00    +0.000 A 
ENDBRANCH   1  10
BRANCH   1  16
ATOM     16  C   UNL     1       2.925   4.071  18.524  0.00  0.00    +0.000 A 
ATOM     17  C   UNL     1       1.530   4.071  18.307  0.00  0.00    +0.000 A 
ATOM     18  C   UNL     1       0.758   2.918  18.488  0.00  0.00    +0.000 A 
ATOM     19  C   UNL     1       1.346   1.748  18.949  0.00  0.00    +0.000 A 
ATOM     20  C   UNL     1       2.706   1.731  19.237  0.00  0.00    +0.000 A 
ATOM     21  C   UNL     1       3.486   2.880  19.033  0.00  0.00    +0.000 A 
ENDBRANCH   1  16
BRANCH   1  22
ATOM     22  S   UNL     1       5.190   5.380  19.652  0.00  0.00    +0.000 S 
BRANCH  22  23
ATOM     23  C   UNL     1       6.723   4.961  18.738  0.00  0.00    +0.000 C 
BRANCH  23  24
ATOM     24  C   UNL     1       7.909   5.729  19.348  0.00  0.00    +0.000 C 
BRANCH  24  25
ATOM     25  N   UNL     1       8.273   5.260  20.693  0.00  0.00    +0.000 NA
ATOM     26  H   UNL     1       8.620   6.066  21.218  0.00  0.00    +0.000 HD
ATOM     27  H   UNL     1       9.059   4.616  20.618  0.00  0.00    +0.000 HD
ENDBRANCH  24  25
ENDBRANCH  23  24
ENDBRANCH  22  23
ENDBRANCH   1  22
TORSDOF 8
ENDMDL
MODEL 4
REMARK VINA RESULT:      -7.6      2.268      5.408
REMARK  Name = 
REMARK  9 active torsions:
REMARK  status: ('A' for Active; 'I' for Inactive)
REMARK    1  A    between atoms: C_1  and  S_2
REMARK    2  A    between atoms: S_2  and  C_3
REMARK    3  A    between atoms: C_6  and  C_7
REMARK    4  A    between atoms: C_7  and  S_8
REMARK    5  A    between atoms: C_7  and  C_12
REMARK    6  A    between atoms: C_7  and  C_18
REMARK    7  A    between atoms: S_8  and  C_9
REMARK    8  A    between atoms: C_9  and  C_10
REMARK    9  A    between atoms: C_10  and  N_11
REMARK                            x       y       z     vdW  Elec       q    Type
REMARK                         _______ _______ _______ _____ _____    ______ ____
ROOT
ATOM      1  C   UNL     1       3.846   5.280  18.232  0.00  0.00    +0.000 C 
ENDROOT
BRANCH   1   5
ATOM      2  C   UNL     1       6.061   5.018  14.433  0.00  0.00    +0.000 A 
ATOM      3  C   UNL     1       5.445   3.884  14.953  0.00  0.00    +0.000 A 
ATOM      4  C   UNL     1       4.638   3.969  16.095  0.00  0.00    +0.000 A 
ATOM      5  C   UNL     1       4.484   5.174  16.803  0.00  0.00    +0.000 A 
ATOM      6  C   UNL     1       5.030   6.329  16.191  0.00  0.00    +0.000 A 
ATOM      7  C   UNL     1       5.823   6.250  15.038  0.00  0.00    +0.000 A 
BRANCH   2   9
ATOM      8  C   UNL     1       6.410   3.440  12.225  0.00  0.00    +0.000 C 
ATOM      9  S   UNL     1       7.181   4.846  13.060  0.00  0.00    +0.000 S 
ENDBRANCH   2   9
ENDBRANCH   1   5
BRANCH   1  10
ATOM     10  C   UNL     1       3.066   6.626  18.486  0.00  0.00    +0.000 A 
ATOM     11  C   UNL     1       2.396   6.917  19.690  0.00  0.00    +0.000 A 
ATOM     12  C   UNL     1       1.718   8.126  19.879  0.00  0.00    +0.000 A 
ATOM     13  C   UNL     1       1.660   9.064  18.855  0.00  0.00    +0.000 A 
ATOM     14  C   UNL     1       2.288   8.799  17.644  0.00  0.00    +0.000 A 
ATOM     15  C   UNL     1       2.991   7.603  17.465  0.00  0.00    +0.000 A 
ENDBRANCH   1  10
BRANCH   1  16
ATOM     16  C   UNL     1       2.945   4.013  18.502  0.00  0.00    +0.000 A 
ATOM     17  C   UNL     1       3.485   2.809  19.002  0.00  0.00    +0.000 A 
ATOM     18  C   UNL     1       2.671   1.716  19.321  0.00  0.00    +0.000 A 
ATOM     19  C   UNL     1       1.303   1.773  19.094  0.00  0.00    +0.000 A 
ATOM     20  C   UNL     1       0.747   2.920  18.539  0.00  0.00    +0.000 A 
ATOM     21  C   UNL     1       1.558   4.026  18.240  0.00  0.00    +0.000 A 
ENDBRANCH   1  16
BRANCH   1  22
ATOM     22  S   UNL     1       5.229   5.272  19.651  0.00  0.00    +0.000 S 
BRANCH  22  23
ATOM     23  C   UNL     1       6.774   4.996  18.700  0.00  0.00    +0.000 C 
BRANCH  23  24
ATOM     24  C   UNL     1       7.928   5.766  19.367  0.00  0.00    +0.000 C 
BRANCH  24  25
ATOM     25  N   UNL     1       8.229   5.295  20.727  0.00  0.00    +0.000 NA
ATOM     26  H   UNL     1       9.245   5.211  20.807  0.00  0.00    +0.000 HD
ATOM     27  H   UNL     1       7.861   4.352  20.840  0.00  0.00    +0.000 HD
ENDBRANCH  24  25
ENDBRANCH  23  24
ENDBRANCH  22  23
ENDBRANCH   1  22
TORSDOF 8
ENDMDL
MODEL 5
REMARK VINA RESULT:      -7.5      0.075      1.361
REMARK  Name = 
REMARK  9 active torsions:
REMARK  status: ('A' for Active; 'I' for Inactive)
REMARK    1  A    between atoms: C_1  and  S_2
REMARK    2  A    between atoms: S_2  and  C_3
REMARK    3  A    between atoms: C_6  and  C_7
REMARK    4  A    between atoms: C_7  and  S_8
REMARK    5  A    between atoms: C_7  and  C_12
REMARK    6  A    between atoms: C_7  and  C_18
REMARK    7  A    between atoms: S_8  and  C_9
REMARK    8  A    between atoms: C_9  and  C_10
REMARK    9  A    between atoms: C_10  and  N_11
REMARK                            x       y       z     vdW  Elec       q    Type
REMARK                         _______ _______ _______ _____ _____    ______ ____
ROOT
ATOM      1  C   UNL     1       4.396   5.715  17.593  0.00  0.00    +0.000 C 
ENDROOT
BRANCH   1   5
ATOM      2  C   UNL     1       1.616   8.772  19.123  0.00  0.00    +0.000 A 
ATOM      3  C   UNL     1       2.102   8.869  17.823  0.00  0.00    +0.000 A 
ATOM      4  C   UNL     1       2.892   7.849  17.276  0.00  0.00    +0.000 A 
ATOM      5  C   UNL     1       3.288   6.735  18.037  0.00  0.00    +0.000 A 
ATOM      6  C   UNL     1       2.690   6.608  19.314  0.00  0.00    +0.000 A 
ATOM      7  C   UNL     1       1.885   7.618  19.857  0.00  0.00    +0.000 A 
BRANCH   2   9
ATOM      8  C   UNL     1      -0.469  10.430  18.497  0.00  0.00    +0.000 C 
ATOM      9  S   UNL     1       0.726  10.145  19.823  0.00  0.00    +0.000 S 
ENDBRANCH   2   9
ENDBRANCH   1   5
BRANCH   1  10
ATOM     10  C   UNL     1       5.839   6.071  18.117  0.00  0.00    +0.000 A 
ATOM     11  C   UNL     1       6.638   7.087  17.555  0.00  0.00    +0.000 A 
ATOM     12  C   UNL     1       7.913   7.376  18.052  0.00  0.00    +0.000 A 
ATOM     13  C   UNL     1       8.442   6.631  19.100  0.00  0.00    +0.000 A 
ATOM     14  C   UNL     1       7.693   5.604  19.660  0.00  0.00    +0.000 A 
ATOM     15  C   UNL     1       6.405   5.335  19.184  0.00  0.00    +0.000 A 
ENDBRANCH   1  10
BRANCH   1  16
ATOM     16  C   UNL     1       3.960   4.255  17.999  0.00  0.00    +0.000 A 
ATOM     17  C   UNL     1       4.636   3.528  19.003  0.00  0.00    +0.000 A 
ATOM     18  C   UNL     1       4.195   2.267  19.421  0.00  0.00    +0.000 A 
ATOM     19  C   UNL     1       3.102   1.670  18.807  0.00  0.00    +0.000 A 
ATOM     20  C   UNL     1       2.454   2.329  17.768  0.00  0.00    +0.000 A 
ATOM     21  C   UNL     1       2.881   3.604  17.364  0.00  0.00    +0.000 A 
ENDBRANCH   1  16
BRANCH   1  22
ATOM     22  S   UNL     1       4.613   5.687  15.624  0.00  0.00    +0.000 S 
BRANCH  22  23
ATOM     23  C   UNL     1       5.742   4.264  15.367  0.00  0.00    +0.000 C 
BRANCH  23  24
ATOM     24  C   UNL     1       6.665   4.553  14.171  0.00  0.00    +0.000 C 
BRANCH  24  25
ATOM     25  N   UNL     1       7.766   5.470  14.498  0.00  0.00    +0.000 NA
ATOM     26  H   UNL     1       7.920   6.072  13.684  0.00  0.00    +0.000 HD
ATOM     27  H   UNL     1       8.624   4.932  14.611  0.00  0.00    +0.000 HD
ENDBRANCH  24  25
ENDBRANCH  23  24
ENDBRANCH  22  23
ENDBRANCH   1  22
TORSDOF 8
ENDMDL
MODEL 6
REMARK VINA RESULT:      -7.5      0.556      1.180
REMARK  Name = 
REMARK  9 active torsions:
REMARK  status: ('A' for Active; 'I' for Inactive)
REMARK    1  A    between atoms: C_1  and  S_2
REMARK    2  A    between atoms: S_2  and  C_3
REMARK    3  A    between atoms: C_6  and  C_7
REMARK    4  A    between atoms: C_7  and  S_8
REMARK    5  A    between atoms: C_7  and  C_12
REMARK    6  A    between atoms: C_7  and  C_18
REMARK    7  A    between atoms: S_8  and  C_9
REMARK    8  A    between atoms: C_9  and  C_10
REMARK    9  A    between atoms: C_10  and  N_11
REMARK                            x       y       z     vdW  Elec       q    Type
REMARK                         _______ _______ _______ _____ _____    ______ ____
ROOT
ATOM      1  C   UNL     1       4.392   5.733  17.604  0.00  0.00    +0.000 C 
ENDROOT
BRANCH   1   5
ATOM      2  C   UNL     1       1.602   8.789  19.118  0.00  0.00    +0.000 A 
ATOM      3  C   UNL     1       2.108   8.894  17.826  0.00  0.00    +0.000 A 
ATOM      4  C   UNL     1       2.902   7.875  17.283  0.00  0.00    +0.000 A 
ATOM      5  C   UNL     1       3.282   6.753  18.040  0.00  0.00    +0.000 A 
ATOM      6  C   UNL     1       2.664   6.619  19.307  0.00  0.00    +0.000 A 
ATOM      7  C   UNL     1       1.856   7.628  19.846  0.00  0.00    +0.000 A 
BRANCH   2   9
ATOM      8  C   UNL     1       0.888   9.765  21.572  0.00  0.00    +0.000 C 
ATOM      9  S   UNL     1       0.709  10.161  19.817  0.00  0.00    +0.000 S 
ENDBRANCH   2   9
ENDBRANCH   1   5
BRANCH   1  10
ATOM     10  C   UNL     1       5.838   6.107  18.107  0.00  0.00    +0.000 A 
ATOM     11  C   UNL     1       6.619   7.128  17.529  0.00  0.00    +0.000 A 
ATOM     12  C   UNL     1       7.897   7.433  18.007  0.00  0.00    +0.000 A 
ATOM     13  C   UNL     1       8.447   6.701  19.053  0.00  0.00    +0.000 A 
ATOM     14  C   UNL     1       7.716   5.670  19.630  0.00  0.00    +0.000 A 
ATOM     15  C   UNL     1       6.425   5.385  19.172  0.00  0.00    +0.000 A 
ENDBRANCH   1  10
BRANCH   1  16
ATOM     16  C   UNL     1       3.969   4.277  18.042  0.00  0.00    +0.000 A 
ATOM     17  C   UNL     1       2.934   3.575  17.389  0.00  0.00    +0.000 A 
ATOM     18  C   UNL     1       2.619   2.252  17.723  0.00  0.00    +0.000 A 
ATOM     19  C   UNL     1       3.289   1.614  18.757  0.00  0.00    +0.000 A 
ATOM     20  C   UNL     1       4.269   2.300  19.467  0.00  0.00    +0.000 A 
ATOM     21  C   UNL     1       4.602   3.619  19.118  0.00  0.00    +0.000 A 
ENDBRANCH   1  16
BRANCH   1  22
ATOM     22  S   UNL     1       4.590   5.669  15.634  0.00  0.00    +0.000 S 
BRANCH  22  23
ATOM     23  C   UNL     1       5.773   4.288  15.396  0.00  0.00    +0.000 C 
BRANCH  23  24
ATOM     24  C   UNL     1       6.651   4.573  14.164  0.00  0.00    +0.000 C 
BRANCH  24  25
ATOM     25  N   UNL     1       7.811   5.423  14.464  0.00  0.00    +0.000 NA
ATOM     26  H   UNL     1       8.355   5.519  13.603  0.00  0.00    +0.000 HD
ATOM     27  H   UNL     1       8.417   4.937  15.123  0.00  0.00    +0.000 HD
ENDBRANCH  24  25
ENDBRANCH  23  24
ENDBRANCH  22  23
ENDBRANCH   1  22
TORSDOF 8
ENDMDL
MODEL 7
REMARK VINA RESULT:      -7.3      1.914      4.546
REMARK  Name = 
REMARK  9 active torsions:
REMARK  status: ('A' for Active; 'I' for Inactive)
REMARK    1  A    between atoms: C_1  and  S_2
REMARK    2  A    between atoms: S_2  and  C_3
REMARK    3  A    between atoms: C_6  and  C_7
REMARK    4  A    between atoms: C_7  and  S_8
REMARK    5  A    between atoms: C_7  and  C_12
REMARK    6  A    between atoms: C_7  and  C_18
REMARK    7  A    between atoms: S_8  and  C_9
REMARK    8  A    between atoms: C_9  and  C_10
REMARK    9  A    between atoms: C_10  and  N_11
REMARK                            x       y       z     vdW  Elec       q    Type
REMARK                         _______ _______ _______ _____ _____    ______ ____
ROOT
ATOM      1  C   UNL     1       3.805   5.316  18.393  0.00  0.00    +0.000 C 
ENDROOT
BRANCH   1   5
ATOM      2  C   UNL     1       1.479   9.027  18.874  0.00  0.00    +0.000 A 
ATOM      3  C   UNL     1       1.645   8.170  19.958  0.00  0.00    +0.000 A 
ATOM      4  C   UNL     1       2.477   7.046  19.861  0.00  0.00    +0.000 A 
ATOM      5  C   UNL     1       3.107   6.697  18.654  0.00  0.00    +0.000 A 
ATOM      6  C   UNL     1       3.010   7.643  17.604  0.00  0.00    +0.000 A 
ATOM      7  C   UNL     1       2.193   8.777  17.704  0.00  0.00    +0.000 A 
BRANCH   2   9
ATOM      8  C   UNL     1       0.821  11.053  20.591  0.00  0.00    +0.000 C 
ATOM      9  S   UNL     1       0.315  10.368  18.996  0.00  0.00    +0.000 S 
ENDBRANCH   2   9
ENDBRANCH   1   5
BRANCH   1  10
ATOM     10  C   UNL     1       2.859   4.072  18.606  0.00  0.00    +0.000 A 
ATOM     11  C   UNL     1       1.480   4.091  18.321  0.00  0.00    +0.000 A 
ATOM     12  C   UNL     1       0.675   2.964  18.519  0.00  0.00    +0.000 A 
ATOM     13  C   UNL     1       1.219   1.798  19.045  0.00  0.00    +0.000 A 
ATOM     14  C   UNL     1       2.570   1.753  19.363  0.00  0.00    +0.000 A 
ATOM     15  C   UNL     1       3.382   2.870  19.136  0.00  0.00    +0.000 A 
ENDBRANCH   1  10
BRANCH   1  16
ATOM     16  C   UNL     1       4.464   5.321  16.960  0.00  0.00    +0.000 A 
ATOM     17  C   UNL     1       4.936   6.509  16.362  0.00  0.00    +0.000 A 
ATOM     18  C   UNL     1       5.598   6.498  15.129  0.00  0.00    +0.000 A 
ATOM     19  C   UNL     1       5.755   5.309  14.430  0.00  0.00    +0.000 A 
ATOM     20  C   UNL     1       5.241   4.130  14.959  0.00  0.00    +0.000 A 
ATOM     21  C   UNL     1       4.598   4.135  16.207  0.00  0.00    +0.000 A 
ENDBRANCH   1  16
BRANCH   1  22
ATOM     22  S   UNL     1       5.286   4.995  19.669  0.00  0.00    +0.000 S 
BRANCH  22  23
ATOM     23  C   UNL     1       6.762   5.017  18.581  0.00  0.00    +0.000 C 
BRANCH  23  24
ATOM     24  C   UNL     1       7.882   5.831  19.255  0.00  0.00    +0.000 C 
BRANCH  24  25
ATOM     25  N   UNL     1       8.196   5.369  20.614  0.00  0.00    +0.000 NA
ATOM     26  H   UNL     1       9.214   5.365  20.712  0.00  0.00    +0.000 HD
ATOM     27  H   UNL     1       7.903   4.398  20.710  0.00  0.00    +0.000 HD
ENDBRANCH  24  25
ENDBRANCH  23  24
ENDBRANCH  22  23
ENDBRANCH   1  22
TORSDOF 8
ENDMDL
MODEL 8
REMARK VINA RESULT:      -7.2      1.865      4.475
REMARK  Name = 
REMARK  9 active torsions:
REMARK  status: ('A' for Active; 'I' for Inactive)
REMARK    1  A    between atoms: C_1  and  S_2
REMARK    2  A    between atoms: S_2  and  C_3
REMARK    3  A    between atoms: C_6  and  C_7
REMARK    4  A    between atoms: C_7  and  S_8
REMARK    5  A    between atoms: C_7  and  C_12
REMARK    6  A    between atoms: C_7  and  C_18
REMARK    7  A    between atoms: S_8  and  C_9
REMARK    8  A    between atoms: C_9  and  C_10
REMARK    9  A    between atoms: C_10  and  N_11
REMARK                            x       y       z     vdW  Elec       q    Type
REMARK                         _______ _______ _______ _____ _____    ______ ____
ROOT
ATOM      1  C   UNL     1       3.786   5.325  18.419  0.00  0.00    +0.000 C 
ENDROOT
BRANCH   1   5
ATOM      2  C   UNL     1       1.387   8.974  19.002  0.00  0.00    +0.000 A 
ATOM      3  C   UNL     1       1.692   8.166  20.093  0.00  0.00    +0.000 A 
ATOM      4  C   UNL     1       2.550   7.067  19.952  0.00  0.00    +0.000 A 
ATOM      5  C   UNL     1       3.068   6.692  18.700  0.00  0.00    +0.000 A 
ATOM      6  C   UNL     1       2.833   7.592  17.633  0.00  0.00    +0.000 A 
ATOM      7  C   UNL     1       1.989   8.702  17.775  0.00  0.00    +0.000 A 
BRANCH   2   9
ATOM      8  C   UNL     1      -0.807   9.984  17.717  0.00  0.00    +0.000 C 
ATOM      9  S   UNL     1       0.193  10.281  19.194  0.00  0.00    +0.000 S 
ENDBRANCH   2   9
ENDBRANCH   1   5
BRANCH   1  10
ATOM     10  C   UNL     1       2.862   4.064  18.626  0.00  0.00    +0.000 A 
ATOM     11  C   UNL     1       3.350   2.806  19.031  0.00  0.00    +0.000 A 
ATOM     12  C   UNL     1       2.498   1.711  19.209  0.00  0.00    +0.000 A 
ATOM     13  C   UNL     1       1.137   1.833  18.948  0.00  0.00    +0.000 A 
ATOM     14  C   UNL     1       0.626   3.052  18.521  0.00  0.00    +0.000 A 
ATOM     15  C   UNL     1       1.474   4.156  18.374  0.00  0.00    +0.000 A 
ENDBRANCH   1  10
BRANCH   1  16
ATOM     16  C   UNL     1       4.434   5.356  16.981  0.00  0.00    +0.000 A 
ATOM     17  C   UNL     1       4.867   6.559  16.386  0.00  0.00    +0.000 A 
ATOM     18  C   UNL     1       5.519   6.574  15.147  0.00  0.00    +0.000 A 
ATOM     19  C   UNL     1       5.704   5.393  14.441  0.00  0.00    +0.000 A 
ATOM     20  C   UNL     1       5.228   4.197  14.967  0.00  0.00    +0.000 A 
ATOM     21  C   UNL     1       4.595   4.178  16.220  0.00  0.00    +0.000 A 
ENDBRANCH   1  16
BRANCH   1  22
ATOM     22  S   UNL     1       5.282   5.014  19.680  0.00  0.00    +0.000 S 
BRANCH  22  23
ATOM     23  C   UNL     1       6.747   5.047  18.577  0.00  0.00    +0.000 C 
BRANCH  23  24
ATOM     24  C   UNL     1       7.877   5.847  19.251  0.00  0.00    +0.000 C 
BRANCH  24  25
ATOM     25  N   UNL     1       8.193   5.372  20.605  0.00  0.00    +0.000 NA
ATOM     26  H   UNL     1       8.009   6.141  21.254  0.00  0.00    +0.000 HD
ATOM     27  H   UNL     1       9.193   5.188  20.667  0.00  0.00    +0.000 HD
ENDBRANCH  24  25
ENDBRANCH  23  24
ENDBRANCH  22  23
ENDBRANCH   1  22
TORSDOF 8
ENDMDL
MODEL 9
REMARK VINA RESULT:      -7.2      1.843      4.360
REMARK  Name = 
REMARK  9 active torsions:
REMARK  status: ('A' for Active; 'I' for Inactive)
REMARK    1  A    between atoms: C_1  and  S_2
REMARK    2  A    between atoms: S_2  and  C_3
REMARK    3  A    between atoms: C_6  and  C_7
REMARK    4  A    between atoms: C_7  and  S_8
REMARK    5  A    between atoms: C_7  and  C_12
REMARK    6  A    between atoms: C_7  and  C_18
REMARK    7  A    between atoms: S_8  and  C_9
REMARK    8  A    between atoms: C_9  and  C_10
REMARK    9  A    between atoms: C_10  and  N_11
REMARK                            x       y       z     vdW  Elec       q    Type
REMARK                         _______ _______ _______ _____ _____    ______ ____
ROOT
ATOM      1  C   UNL     1       3.696   5.337  18.348  0.00  0.00    +0.000 C 
ENDROOT
BRANCH   1   5
ATOM      2  C   UNL     1       1.578   9.147  18.984  0.00  0.00    +0.000 A 
ATOM      3  C   UNL     1       1.989   8.790  17.704  0.00  0.00    +0.000 A 
ATOM      4  C   UNL     1       2.558   7.533  17.459  0.00  0.00    +0.000 A 
ATOM      5  C   UNL     1       2.808   6.622  18.499  0.00  0.00    +0.000 A 
ATOM      6  C   UNL     1       2.280   6.964  19.767  0.00  0.00    +0.000 A 
ATOM      7  C   UNL     1       1.695   8.214  20.012  0.00  0.00    +0.000 A 
BRANCH   2   9
ATOM      8  C   UNL     1      -0.771  10.436  19.539  0.00  0.00    +0.000 C 
ATOM      9  S   UNL     1       0.981  10.798  19.277  0.00  0.00    +0.000 S 
ENDBRANCH   2   9
ENDBRANCH   1   5
BRANCH   1  10
ATOM     10  C   UNL     1       2.911   3.988  18.572  0.00  0.00    +0.000 A 
ATOM     11  C   UNL     1       3.545   2.762  18.859  0.00  0.00    +0.000 A 
ATOM     12  C   UNL     1       2.813   1.587  19.056  0.00  0.00    +0.000 A 
ATOM     13  C   UNL     1       1.428   1.594  18.933  0.00  0.00    +0.000 A 
ATOM     14  C   UNL     1       0.772   2.780  18.625  0.00  0.00    +0.000 A 
ATOM     15  C   UNL     1       1.501   3.962  18.458  0.00  0.00    +0.000 A 
ENDBRANCH   1  10
BRANCH   1  16
ATOM     16  C   UNL     1       4.436   5.368  16.955  0.00  0.00    +0.000 A 
ATOM     17  C   UNL     1       4.674   4.193  16.212  0.00  0.00    +0.000 A 
ATOM     18  C   UNL     1       5.253   4.233  14.938  0.00  0.00    +0.000 A 
ATOM     19  C   UNL     1       5.666   5.443  14.396  0.00  0.00    +0.000 A 
ATOM     20  C   UNL     1       5.508   6.613  15.130  0.00  0.00    +0.000 A 
ATOM     21  C   UNL     1       4.906   6.577  16.398  0.00  0.00    +0.000 A 
ENDBRANCH   1  16
BRANCH   1  22
ATOM     22  S   UNL     1       5.125   5.273  19.718  0.00  0.00    +0.000 S 
BRANCH  22  23
ATOM     23  C   UNL     1       6.623   4.927  18.717  0.00  0.00    +0.000 C 
BRANCH  23  24
ATOM     24  C   UNL     1       7.802   5.756  19.257  0.00  0.00    +0.000 C 
BRANCH  24  25
ATOM     25  N   UNL     1       8.230   5.346  20.602  0.00  0.00    +0.000 NA
ATOM     26  H   UNL     1       9.098   5.844  20.815  0.00  0.00    +0.000 HD
ATOM     27  H   UNL     1       8.473   4.357  20.585  0.00  0.00    +0.000 HD
ENDBRANCH  24  25
ENDBRANCH  23  24
ENDBRANCH  22  23
ENDBRANCH   1  22
TORSDOF 8
ENDMDL
