MODEL 1
REMARK VINA RESULT:      -7.7      0.000      0.000
REMARK  Name = 
REMARK  5 active torsions:
REMARK  status: ('A' for Active; 'I' for Inactive)
REMARK    1  A    between atoms: C_1  and  O_2
REMARK    2  A    between atoms: O_2  and  C_3
REMARK    3  A    between atoms: C_6  and  N_7
REMARK    4  A    between atoms: N_7  and  C_8
REMARK    5  A    between atoms: C_8  and  N_9
REMARK                            x       y       z     vdW  Elec       q    Type
REMARK                         _______ _______ _______ _____ _____    ______ ____
ROOT
ATOM      1  C   UNL     1       4.752   3.882  16.042  0.00  0.00    +0.000 C 
ENDROOT
BRANCH   1   2
ATOM      2  N   UNL     1       3.776   3.802  17.101  0.00  0.00    +0.000 N 
ATOM      3  C   UNL     1       3.366   4.970  17.688  0.00  0.00    +0.000 C 
ATOM      4  O   UNL     1       3.626   6.117  17.371  0.00  0.00    +0.000 OA
ATOM      5  C   UNL     1       2.624   4.615  18.888  0.00  0.00    +0.000 A 
ATOM      6  C   UNL     1       1.998   5.429  19.811  0.00  0.00    +0.000 A 
ATOM      7  C   UNL     1       1.433   4.809  20.927  0.00  0.00    +0.000 A 
ATOM      8  C   UNL     1       1.521   3.411  21.092  0.00  0.00    +0.000 A 
ATOM      9  C   UNL     1       2.166   2.609  20.140  0.00  0.00    +0.000 A 
ATOM     10  C   UNL     1       2.708   3.244  19.037  0.00  0.00    +0.000 A 
ATOM     11  C   UNL     1       3.492   2.732  17.904  0.00  0.00    +0.000 C 
ATOM     12  O   UNL     1       3.836   1.570  17.786  0.00  0.00    +0.000 OA
ENDBRANCH   1   2
BRANCH   1  13
ATOM     13  N   UNL     1       6.114   3.651  16.488  0.00  0.00    +0.000 N 
ATOM     14  H   UNL     1       6.179   2.804  17.058  0.00  0.00    +0.000 HD
BRANCH  13  18
ATOM     15  C   UNL     1       7.927   7.033  18.303  0.00  0.00    +0.000 A 
ATOM     16  C   UNL     1       7.497   7.060  16.978  0.00  0.00    +0.000 A 
ATOM     17  C   UNL     1       6.895   5.940  16.396  0.00  0.00    +0.000 A 
ATOM     18  C   UNL     1       6.749   4.744  17.107  0.00  0.00    +0.000 A 
ATOM     19  C   UNL     1       7.157   4.741  18.453  0.00  0.00    +0.000 A 
ATOM     20  C   UNL     1       7.761   5.866  19.040  0.00  0.00    +0.000 A 
BRANCH  15  22
ATOM     21  C   UNL     1       8.280   9.351  17.974  0.00  0.00    +0.000 C 
ATOM     22  O   UNL     1       8.516   8.182  18.752  0.00  0.00    +0.000 OA
ENDBRANCH  15  22
ENDBRANCH  13  18
ENDBRANCH   1  13
TORSDOF 4
ENDMDL
MODEL 2
REMARK VINA RESULT:      -7.6      0.407      1.115
REMARK  Name = 
REMARK  5 active torsions:
REMARK  status: ('A' for Active; 'I' for Inactive)
REMARK    1  A    between atoms: C_1  and  O_2
REMARK    2  A    between atoms: O_2  and  C_3
REMARK    3  A    between atoms: C_6  and  N_7
REMARK    4  A    between atoms: N_7  and  C_8
REMARK    5  A    between atoms: C_8  and  N_9
REMARK                            x       y       z     vdW  Elec       q    Type
REMARK                         _______ _______ _______ _____ _____    ______ ____
ROOT
ATOM      1  C   UNL     1       4.949   3.998  16.224  0.00  0.00    +0.000 C 
ENDROOT
BRANCH   1   2
ATOM      2  N   UNL     1       3.862   3.773  17.145  0.00  0.00    +0.000 N 
ATOM      3  C   UNL     1       3.298   4.863  17.754  0.00  0.00    +0.000 C 
ATOM      4  O   UNL     1       3.507   6.046  17.550  0.00  0.00    +0.000 OA
ATOM      5  C   UNL     1       2.447   4.369  18.825  0.00  0.00    +0.000 A 
ATOM      6  C   UNL     1       1.655   5.067  19.715  0.00  0.00    +0.000 A 
ATOM      7  C   UNL     1       1.009   4.328  20.708  0.00  0.00    +0.000 A 
ATOM      8  C   UNL     1       1.181   2.931  20.788  0.00  0.00    +0.000 A 
ATOM      9  C   UNL     1       1.995   2.248  19.873  0.00  0.00    +0.000 A 
ATOM     10  C   UNL     1       2.615   2.999  18.891  0.00  0.00    +0.000 A 
ATOM     11  C   UNL     1       3.565   2.629  17.833  0.00  0.00    +0.000 C 
ATOM     12  O   UNL     1       4.007   1.504  17.680  0.00  0.00    +0.000 OA
ENDBRANCH   1   2
BRANCH   1  13
ATOM     13  N   UNL     1       6.261   3.864  16.830  0.00  0.00    +0.000 N 
ATOM     14  H   UNL     1       6.271   3.121  17.534  0.00  0.00    +0.000 HD
BRANCH  13  18
ATOM     15  C   UNL     1       8.109   7.373  18.343  0.00  0.00    +0.000 A 
ATOM     16  C   UNL     1       8.121   6.177  19.058  0.00  0.00    +0.000 A 
ATOM     17  C   UNL     1       7.514   5.027  18.543  0.00  0.00    +0.000 A 
ATOM     18  C   UNL     1       6.835   5.052  17.320  0.00  0.00    +0.000 A 
ATOM     19  C   UNL     1       6.859   6.256  16.594  0.00  0.00    +0.000 A 
ATOM     20  C   UNL     1       7.470   7.412  17.108  0.00  0.00    +0.000 A 
BRANCH  15  22
ATOM     21  C   UNL     1       8.609   9.687  18.298  0.00  0.00    +0.000 C 
ATOM     22  O   UNL     1       8.720   8.430  18.958  0.00  0.00    +0.000 OA
ENDBRANCH  15  22
ENDBRANCH  13  18
ENDBRANCH   1  13
TORSDOF 4
ENDMDL
MODEL 3
REMARK VINA RESULT:      -7.3      0.345      2.194
REMARK  Name = 
REMARK  5 active torsions:
REMARK  status: ('A' for Active; 'I' for Inactive)
REMARK    1  A    between atoms: C_1  and  O_2
REMARK    2  A    between atoms: O_2  and  C_3
REMARK    3  A    between atoms: C_6  and  N_7
REMARK    4  A    between atoms: N_7  and  C_8
REMARK    5  A    between atoms: C_8  and  N_9
REMARK                            x       y       z     vdW  Elec       q    Type
REMARK                         _______ _______ _______ _____ _____    ______ ____
ROOT
ATOM      1  C   UNL     1       4.765   3.630  16.168  0.00  0.00    +0.000 C 
ENDROOT
BRANCH   1   2
ATOM      2  N   UNL     1       4.056   3.759  17.417  0.00  0.00    +0.000 N 
ATOM      3  C   UNL     1       3.604   2.616  18.021  0.00  0.00    +0.000 C 
ATOM      4  O   UNL     1       3.808   1.456  17.713  0.00  0.00    +0.000 OA
ATOM      5  C   UNL     1       2.693   3.018  19.082  0.00  0.00    +0.000 A 
ATOM      6  C   UNL     1       1.993   2.242  19.985  0.00  0.00    +0.000 A 
ATOM      7  C   UNL     1       1.113   2.902  20.844  0.00  0.00    +0.000 A 
ATOM      8  C   UNL     1       0.950   4.301  20.768  0.00  0.00    +0.000 A 
ATOM      9  C   UNL     1       1.672   5.064  19.838  0.00  0.00    +0.000 A 
ATOM     10  C   UNL     1       2.548   4.390  19.006  0.00  0.00    +0.000 A 
ATOM     11  C   UNL     1       3.395   4.854  17.899  0.00  0.00    +0.000 C 
ATOM     12  O   UNL     1       3.421   6.005  17.500  0.00  0.00    +0.000 OA
ENDBRANCH   1   2
BRANCH   1  13
ATOM     13  N   UNL     1       6.209   3.655  16.313  0.00  0.00    +0.000 N 
ATOM     14  H   UNL     1       6.551   2.808  16.775  0.00  0.00    +0.000 HD
BRANCH  13  18
ATOM     15  C   UNL     1       7.942   7.084  18.118  0.00  0.00    +0.000 A 
ATOM     16  C   UNL     1       7.884   5.862  18.784  0.00  0.00    +0.000 A 
ATOM     17  C   UNL     1       7.316   4.738  18.173  0.00  0.00    +0.000 A 
ATOM     18  C   UNL     1       6.746   4.818  16.897  0.00  0.00    +0.000 A 
ATOM     19  C   UNL     1       6.841   6.048  16.224  0.00  0.00    +0.000 A 
ATOM     20  C   UNL     1       7.414   7.177  16.835  0.00  0.00    +0.000 A 
BRANCH  15  22
ATOM     21  C   UNL     1       8.456   9.393  18.210  0.00  0.00    +0.000 C 
ATOM     22  O   UNL     1       8.504   8.110  18.824  0.00  0.00    +0.000 OA
ENDBRANCH  15  22
ENDBRANCH  13  18
ENDBRANCH   1  13
TORSDOF 4
ENDMDL
MODEL 4
REMARK VINA RESULT:      -7.2      3.062      5.194
REMARK  Name = 
REMARK  5 active torsions:
REMARK  status: ('A' for Active; 'I' for Inactive)
REMARK    1  A    between atoms: C_1  and  O_2
REMARK    2  A    between atoms: O_2  and  C_3
REMARK    3  A    between atoms: C_6  and  N_7
REMARK    4  A    between atoms: N_7  and  C_8
REMARK    5  A    between atoms: C_8  and  N_9
REMARK                            x       y       z     vdW  Elec       q    Type
REMARK                         _______ _______ _______ _____ _____    ______ ____
ROOT
ATOM      1  C   UNL     1       7.161   4.824  16.825  0.00  0.00    +0.000 C 
ENDROOT
BRANCH   1   2
ATOM      2  N   UNL     1       6.109   5.568  17.472  0.00  0.00    +0.000 N 
ATOM      3  C   UNL     1       5.492   5.000  18.556  0.00  0.00    +0.000 C 
ATOM      4  O   UNL     1       5.776   3.974  19.146  0.00  0.00    +0.000 OA
ATOM      5  C   UNL     1       4.304   5.790  18.842  0.00  0.00    +0.000 A 
ATOM      6  C   UNL     1       3.362   5.637  19.840  0.00  0.00    +0.000 A 
ATOM      7  C   UNL     1       2.265   6.501  19.817  0.00  0.00    +0.000 A 
ATOM      8  C   UNL     1       2.138   7.472  18.803  0.00  0.00    +0.000 A 
ATOM      9  C   UNL     1       3.109   7.603  17.800  0.00  0.00    +0.000 A 
ATOM     10  C   UNL     1       4.193   6.745  17.849  0.00  0.00    +0.000 A 
ATOM     11  C   UNL     1       5.336   6.564  16.944  0.00  0.00    +0.000 C 
ATOM     12  O   UNL     1       5.485   7.183  15.905  0.00  0.00    +0.000 OA
ENDBRANCH   1   2
BRANCH   1  13
ATOM     13  N   UNL     1       7.544   5.362  15.533  0.00  0.00    +0.000 N 
ATOM     14  H   UNL     1       7.377   6.371  15.487  0.00  0.00    +0.000 HD
BRANCH  13  18
ATOM     15  C   UNL     1       5.826   3.408  12.179  0.00  0.00    +0.000 A 
ATOM     16  C   UNL     1       5.216   3.378  13.431  0.00  0.00    +0.000 A 
ATOM     17  C   UNL     1       5.791   4.033  14.526  0.00  0.00    +0.000 A 
ATOM     18  C   UNL     1       7.018   4.696  14.411  0.00  0.00    +0.000 A 
ATOM     19  C   UNL     1       7.606   4.746  13.135  0.00  0.00    +0.000 A 
ATOM     20  C   UNL     1       7.029   4.091  12.033  0.00  0.00    +0.000 A 
BRANCH  15  22
ATOM     21  C   UNL     1       3.802   3.033  11.010  0.00  0.00    +0.000 C 
ATOM     22  O   UNL     1       5.178   2.717  11.194  0.00  0.00    +0.000 OA
ENDBRANCH  15  22
ENDBRANCH  13  18
ENDBRANCH   1  13
TORSDOF 4
ENDMDL
MODEL 5
REMARK VINA RESULT:      -7.1      2.924      5.796
REMARK  Name = 
REMARK  5 active torsions:
REMARK  status: ('A' for Active; 'I' for Inactive)
REMARK    1  A    between atoms: C_1  and  O_2
REMARK    2  A    between atoms: O_2  and  C_3
REMARK    3  A    between atoms: C_6  and  N_7
REMARK    4  A    between atoms: N_7  and  C_8
REMARK    5  A    between atoms: C_8  and  N_9
REMARK                            x       y       z     vdW  Elec       q    Type
REMARK                         _______ _______ _______ _____ _____    ______ ____
ROOT
ATOM      1  C   UNL     1       2.778   4.702  19.689  0.00  0.00    +0.000 C 
ENDROOT
BRANCH   1   2
ATOM      2  N   UNL     1       3.708   4.361  18.641  0.00  0.00    +0.000 N 
ATOM      3  C   UNL     1       5.011   4.759  18.782  0.00  0.00    +0.000 C 
ATOM      4  O   UNL     1       5.551   5.282  19.740  0.00  0.00    +0.000 OA
ATOM      5  C   UNL     1       5.667   4.560  17.499  0.00  0.00    +0.000 A 
ATOM      6  C   UNL     1       6.978   4.793  17.132  0.00  0.00    +0.000 A 
ATOM      7  C   UNL     1       7.309   4.592  15.791  0.00  0.00    +0.000 A 
ATOM      8  C   UNL     1       6.329   4.182  14.864  0.00  0.00    +0.000 A 
ATOM      9  C   UNL     1       5.004   3.955  15.264  0.00  0.00    +0.000 A 
ATOM     10  C   UNL     1       4.701   4.148  16.600  0.00  0.00    +0.000 A 
ATOM     11  C   UNL     1       3.432   4.067  17.335  0.00  0.00    +0.000 C 
ATOM     12  O   UNL     1       2.358   3.828  16.811  0.00  0.00    +0.000 OA
ENDBRANCH   1   2
BRANCH   1  13
ATOM     13  N   UNL     1       3.049   5.985  20.312  0.00  0.00    +0.000 N 
ATOM     14  H   UNL     1       2.919   5.941  21.326  0.00  0.00    +0.000 HD
BRANCH  13  18
ATOM     15  C   UNL     1       1.083   9.401  18.734  0.00  0.00    +0.000 A 
ATOM     16  C   UNL     1       0.955   9.041  20.073  0.00  0.00    +0.000 A 
ATOM     17  C   UNL     1       1.615   7.916  20.581  0.00  0.00    +0.000 A 
ATOM     18  C   UNL     1       2.382   7.092  19.751  0.00  0.00    +0.000 A 
ATOM     19  C   UNL     1       2.530   7.484  18.409  0.00  0.00    +0.000 A 
ATOM     20  C   UNL     1       1.870   8.615  17.898  0.00  0.00    +0.000 A 
BRANCH  15  22
ATOM     21  C   UNL     1      -0.794  10.793  19.111  0.00  0.00    +0.000 C 
ATOM     22  O   UNL     1       0.377  10.508  18.354  0.00  0.00    +0.000 OA
ENDBRANCH  15  22
ENDBRANCH  13  18
ENDBRANCH   1  13
TORSDOF 4
ENDMDL
MODEL 6
REMARK VINA RESULT:      -7.0      1.394      1.456
REMARK  Name = 
REMARK  5 active torsions:
REMARK  status: ('A' for Active; 'I' for Inactive)
REMARK    1  A    between atoms: C_1  and  O_2
REMARK    2  A    between atoms: O_2  and  C_3
REMARK    3  A    between atoms: C_6  and  N_7
REMARK    4  A    between atoms: N_7  and  C_8
REMARK    5  A    between atoms: C_8  and  N_9
REMARK                            x       y       z     vdW  Elec       q    Type
REMARK                         _______ _______ _______ _____ _____    ______ ____
ROOT
ATOM      1  C   UNL     1       4.646   4.043  16.688  0.00  0.00    +0.000 C 
ENDROOT
BRANCH   1   2
ATOM      2  N   UNL     1       3.909   3.468  17.786  0.00  0.00    +0.000 N 
ATOM      3  C   UNL     1       2.541   3.506  17.732  0.00  0.00    +0.000 C 
ATOM      4  O   UNL     1       1.821   3.866  16.818  0.00  0.00    +0.000 OA
ATOM      5  C   UNL     1       2.045   3.139  19.050  0.00  0.00    +0.000 A 
ATOM      6  C   UNL     1       0.746   3.016  19.501  0.00  0.00    +0.000 A 
ATOM      7  C   UNL     1       0.567   2.735  20.857  0.00  0.00    +0.000 A 
ATOM      8  C   UNL     1       1.678   2.599  21.714  0.00  0.00    +0.000 A 
ATOM      9  C   UNL     1       2.987   2.733  21.229  0.00  0.00    +0.000 A 
ATOM     10  C   UNL     1       3.141   2.999  19.881  0.00  0.00    +0.000 A 
ATOM     11  C   UNL     1       4.337   3.258  19.067  0.00  0.00    +0.000 C 
ATOM     12  O   UNL     1       5.467   3.312  19.519  0.00  0.00    +0.000 OA
ENDBRANCH   1   2
BRANCH   1  13
ATOM     13  N   UNL     1       6.085   3.906  16.818  0.00  0.00    +0.000 N 
ATOM     14  H   UNL     1       6.332   3.054  17.327  0.00  0.00    +0.000 HD
BRANCH  13  18
ATOM     15  C   UNL     1       8.012   7.369  18.340  0.00  0.00    +0.000 A 
ATOM     16  C   UNL     1       7.158   7.434  17.241  0.00  0.00    +0.000 A 
ATOM     17  C   UNL     1       6.525   6.285  16.755  0.00  0.00    +0.000 A 
ATOM     18  C   UNL     1       6.765   5.030  17.324  0.00  0.00    +0.000 A 
ATOM     19  C   UNL     1       7.602   4.983  18.453  0.00  0.00    +0.000 A 
ATOM     20  C   UNL     1       8.237   6.136  18.944  0.00  0.00    +0.000 A 
BRANCH  15  22
ATOM     21  C   UNL     1       8.334   9.663  17.853  0.00  0.00    +0.000 C 
ATOM     22  O   UNL     1       8.583   8.554  18.709  0.00  0.00    +0.000 OA
ENDBRANCH  15  22
ENDBRANCH  13  18
ENDBRANCH   1  13
TORSDOF 4
ENDMDL
MODEL 7
REMARK VINA RESULT:      -7.0      2.727      4.641
REMARK  Name = 
REMARK  5 active torsions:
REMARK  status: ('A' for Active; 'I' for Inactive)
REMARK    1  A    between atoms: C_1  and  O_2
REMARK    2  A    between atoms: O_2  and  C_3
REMARK    3  A    between atoms: C_6  and  N_7
REMARK    4  A    between atoms: N_7  and  C_8
REMARK    5  A    between atoms: C_8  and  N_9
REMARK                            x       y       z     vdW  Elec       q    Type
REMARK                         _______ _______ _______ _____ _____    ______ ____
ROOT
ATOM      1  C   UNL     1       7.879   7.246  18.067  0.00  0.00    +0.000 C 
ENDROOT
BRANCH   1   2
ATOM      2  N   UNL     1       6.687   6.435  18.061  0.00  0.00    +0.000 N 
ATOM      3  C   UNL     1       6.537   5.505  19.056  0.00  0.00    +0.000 C 
ATOM      4  O   UNL     1       7.227   5.324  20.043  0.00  0.00    +0.000 OA
ATOM      5  C   UNL     1       5.431   4.639  18.677  0.00  0.00    +0.000 A 
ATOM      6  C   UNL     1       4.881   3.565  19.349  0.00  0.00    +0.000 A 
ATOM      7  C   UNL     1       3.873   2.854  18.695  0.00  0.00    +0.000 A 
ATOM      8  C   UNL     1       3.458   3.224  17.399  0.00  0.00    +0.000 A 
ATOM      9  C   UNL     1       4.037   4.317  16.739  0.00  0.00    +0.000 A 
ATOM     10  C   UNL     1       5.026   5.015  17.411  0.00  0.00    +0.000 A 
ATOM     11  C   UNL     1       5.872   6.145  17.003  0.00  0.00    +0.000 C 
ATOM     12  O   UNL     1       5.840   6.652  15.895  0.00  0.00    +0.000 OA
ENDBRANCH   1   2
BRANCH   1  13
ATOM     13  N   UNL     1       7.706   8.538  17.428  0.00  0.00    +0.000 N 
ATOM     14  H   UNL     1       7.906   8.487  16.426  0.00  0.00    +0.000 HD
BRANCH  13  18
ATOM     15  C   UNL     1       9.604  11.873  19.245  0.00  0.00    +0.000 A 
ATOM     16  C   UNL     1       8.894  11.999  18.052  0.00  0.00    +0.000 A 
ATOM     17  C   UNL     1       8.268  10.892  17.469  0.00  0.00    +0.000 A 
ATOM     18  C   UNL     1       8.375   9.617  18.037  0.00  0.00    +0.000 A 
ATOM     19  C   UNL     1       9.065   9.510  19.257  0.00  0.00    +0.000 A 
ATOM     20  C   UNL     1       9.693  10.621  19.846  0.00  0.00    +0.000 A 
BRANCH  15  22
ATOM     21  C   UNL     1       9.919  14.202  18.955  0.00  0.00    +0.000 C 
ATOM     22  O   UNL     1      10.185  13.021  19.705  0.00  0.00    +0.000 OA
ENDBRANCH  15  22
ENDBRANCH  13  18
ENDBRANCH   1  13
TORSDOF 4
ENDMDL
MODEL 8
REMARK VINA RESULT:      -6.9      0.700      1.992
REMARK  Name = 
REMARK  5 active torsions:
REMARK  status: ('A' for Active; 'I' for Inactive)
REMARK    1  A    between atoms: C_1  and  O_2
REMARK    2  A    between atoms: O_2  and  C_3
REMARK    3  A    between atoms: C_6  and  N_7
REMARK    4  A    between atoms: N_7  and  C_8
REMARK    5  A    between atoms: C_8  and  N_9
REMARK                            x       y       z     vdW  Elec       q    Type
REMARK                         _______ _______ _______ _____ _____    ______ ____
ROOT
ATOM      1  C   UNL     1       4.684   4.709  16.245  0.00  0.00    +0.000 C 
ENDROOT
BRANCH   1   2
ATOM      2  N   UNL     1       3.988   4.529  17.496  0.00  0.00    +0.000 N 
ATOM      3  C   UNL     1       3.680   3.251  17.882  0.00  0.00    +0.000 C 
ATOM      4  O   UNL     1       4.009   2.197  17.369  0.00  0.00    +0.000 OA
ATOM      5  C   UNL     1       2.750   3.348  18.996  0.00  0.00    +0.000 A 
ATOM      6  C   UNL     1       2.159   2.347  19.742  0.00  0.00    +0.000 A 
ATOM      7  C   UNL     1       1.225   2.737  20.704  0.00  0.00    +0.000 A 
ATOM      8  C   UNL     1       0.904   4.098  20.882  0.00  0.00    +0.000 A 
ATOM      9  C   UNL     1       1.517   5.093  20.108  0.00  0.00    +0.000 A 
ATOM     10  C   UNL     1       2.448   4.686  19.169  0.00  0.00    +0.000 A 
ATOM     11  C   UNL     1       3.216   5.436  18.166  0.00  0.00    +0.000 C 
ATOM     12  O   UNL     1       3.104   6.635  17.982  0.00  0.00    +0.000 OA
ENDBRANCH   1   2
BRANCH   1  13
ATOM     13  N   UNL     1       6.115   4.487  16.339  0.00  0.00    +0.000 N 
ATOM     14  H   UNL     1       6.324   3.538  16.661  0.00  0.00    +0.000 HD
BRANCH  13  18
ATOM     15  C   UNL     1       8.190   7.491  18.506  0.00  0.00    +0.000 A 
ATOM     16  C   UNL     1       7.584   7.763  17.281  0.00  0.00    +0.000 A 
ATOM     17  C   UNL     1       6.897   6.764  16.582  0.00  0.00    +0.000 A 
ATOM     18  C   UNL     1       6.839   5.452  17.064  0.00  0.00    +0.000 A 
ATOM     19  C   UNL     1       7.427   5.198  18.316  0.00  0.00    +0.000 A 
ATOM     20  C   UNL     1       8.115   6.201  19.021  0.00  0.00    +0.000 A 
BRANCH  15  22
ATOM     21  C   UNL     1       8.739   9.792  18.408  0.00  0.00    +0.000 C 
ATOM     22  O   UNL     1       8.844   8.542  19.083  0.00  0.00    +0.000 OA
ENDBRANCH  15  22
ENDBRANCH  13  18
ENDBRANCH   1  13
TORSDOF 4
ENDMDL
MODEL 9
REMARK VINA RESULT:      -6.9      2.752      4.804
REMARK  Name = 
REMARK  5 active torsions:
REMARK  status: ('A' for Active; 'I' for Inactive)
REMARK    1  A    between atoms: C_1  and  O_2
REMARK    2  A    between atoms: O_2  and  C_3
REMARK    3  A    between atoms: C_6  and  N_7
REMARK    4  A    between atoms: N_7  and  C_8
REMARK    5  A    between atoms: C_8  and  N_9
REMARK                            x       y       z     vdW  Elec       q    Type
REMARK                         _______ _______ _______ _____ _____    ______ ____
ROOT
ATOM      1  C   UNL     1       7.942   7.301  18.131  0.00  0.00    +0.000 C 
ENDROOT
BRANCH   1   2
ATOM      2  N   UNL     1       6.742   6.501  18.106  0.00  0.00    +0.000 N 
ATOM      3  C   UNL     1       6.583   5.549  19.079  0.00  0.00    +0.000 C 
ATOM      4  O   UNL     1       7.271   5.338  20.061  0.00  0.00    +0.000 OA
ATOM      5  C   UNL     1       5.470   4.702  18.678  0.00  0.00    +0.000 A 
ATOM      6  C   UNL     1       4.910   3.618  19.325  0.00  0.00    +0.000 A 
ATOM      7  C   UNL     1       3.896   2.931  18.654  0.00  0.00    +0.000 A 
ATOM      8  C   UNL     1       3.486   3.336  17.367  0.00  0.00    +0.000 A 
ATOM      9  C   UNL     1       4.075   4.439  16.733  0.00  0.00    +0.000 A 
ATOM     10  C   UNL     1       5.069   5.112  17.421  0.00  0.00    +0.000 A 
ATOM     11  C   UNL     1       5.925   6.243  17.040  0.00  0.00    +0.000 C 
ATOM     12  O   UNL     1       5.899   6.777  15.945  0.00  0.00    +0.000 OA
ENDBRANCH   1   2
BRANCH   1  13
ATOM     13  N   UNL     1       7.821   8.552  17.405  0.00  0.00    +0.000 N 
ATOM     14  H   UNL     1       8.167   8.460  16.447  0.00  0.00    +0.000 HD
BRANCH  13  18
ATOM     15  C   UNL     1       9.561  11.899  19.353  0.00  0.00    +0.000 A 
ATOM     16  C   UNL     1       9.665  10.614  19.881  0.00  0.00    +0.000 A 
ATOM     17  C   UNL     1       9.092   9.520  19.223  0.00  0.00    +0.000 A 
ATOM     18  C   UNL     1       8.357   9.686  18.045  0.00  0.00    +0.000 A 
ATOM     19  C   UNL     1       8.288  10.983  17.506  0.00  0.00    +0.000 A 
ATOM     20  C   UNL     1       8.864  12.083  18.163  0.00  0.00    +0.000 A 
BRANCH  15  22
ATOM     21  C   UNL     1       9.298  13.560  21.020  0.00  0.00    +0.000 C 
ATOM     22  O   UNL     1      10.146  12.887  20.095  0.00  0.00    +0.000 OA
ENDBRANCH  15  22
ENDBRANCH  13  18
ENDBRANCH   1  13
TORSDOF 4
ENDMDL
