MODEL 1
REMARK VINA RESULT:      -7.6      0.000      0.000
REMARK  Name = 
REMARK  4 active torsions:
REMARK  status: ('A' for Active; 'I' for Inactive)
REMARK    1  A    between atoms: C_1  and  O_2
REMARK    2  A    between atoms: O_2  and  C_3
REMARK    3  A    between atoms: C_6  and  C_7
REMARK    4  A    between atoms: N_12  and  C_13
REMARK                            x       y       z     vdW  Elec       q    Type
REMARK                         _______ _______ _______ _____ _____    ______ ____
ROOT
ATOM      1  C   UNL     1       1.839   7.836  20.050  0.00  0.00    +0.000 C 
ATOM      2  O   UNL     1       2.388   8.199  19.008  0.00  0.00    +0.000 OA
ATOM      3  N   UNL     1       1.995   6.564  20.575  0.00  0.00    +0.000 N 
ATOM      4  C   UNL     1       2.791   5.555  20.082  0.00  0.00    +0.000 C 
ATOM      5  O   UNL     1       2.841   4.472  20.653  0.00  0.00    +0.000 OA
ATOM      6  N   UNL     1       3.513   5.870  18.974  0.00  0.00    +0.000 N 
ATOM      7  H   UNL     1       1.526   6.288  21.420  0.00  0.00    +0.000 HD
ATOM      8  H   UNL     1       3.257   6.744  18.516  0.00  0.00    +0.000 HD
ENDROOT
BRANCH   6   9
ATOM      9  C   UNL     1       4.437   4.976  18.302  0.00  0.00    +0.000 C 
ATOM     10  C   UNL     1       5.885   5.068  18.861  0.00  0.00    +0.000 C 
ATOM     11  N   UNL     1       6.871   5.443  17.814  0.00  0.00    +0.000 NA
ATOM     12  C   UNL     1       6.836   4.425  16.743  0.00  0.00    +0.000 C 
ATOM     13  C   UNL     1       5.435   4.284  16.126  0.00  0.00    +0.000 C 
ATOM     14  C   UNL     1       4.482   5.292  16.786  0.00  0.00    +0.000 C 
ATOM     15  C   UNL     1       5.096   6.690  16.575  0.00  0.00    +0.000 C 
ATOM     16  C   UNL     1       6.471   6.753  17.255  0.00  0.00    +0.000 C 
ENDBRANCH   6   9
BRANCH   1  20
ATOM     17  C   UNL     1      -0.620  10.574  22.277  0.00  0.00    +0.000 A 
ATOM     18  C   UNL     1       0.075   9.542  22.902  0.00  0.00    +0.000 A 
ATOM     19  C   UNL     1       0.857   8.668  22.151  0.00  0.00    +0.000 A 
ATOM     20  C   UNL     1       0.948   8.800  20.757  0.00  0.00    +0.000 A 
ATOM     21  C   UNL     1       0.223   9.818  20.128  0.00  0.00    +0.000 A 
ATOM     22  C   UNL     1      -0.557  10.702  20.889  0.00  0.00    +0.000 A 
BRANCH  17  24
ATOM     23  C   UNL     1      -1.210  12.765  22.935  0.00  0.00    +0.000 C 
ATOM     24  O   UNL     1      -1.358  11.363  23.115  0.00  0.00    +0.000 OA
ENDBRANCH  17  24
ENDBRANCH   1  20
TORSDOF 3
ENDMDL
MODEL 2
REMARK VINA RESULT:      -7.5      2.418      3.288
REMARK  Name = 
REMARK  4 active torsions:
REMARK  status: ('A' for Active; 'I' for Inactive)
REMARK    1  A    between atoms: C_1  and  O_2
REMARK    2  A    between atoms: O_2  and  C_3
REMARK    3  A    between atoms: C_6  and  C_7
REMARK    4  A    between atoms: N_12  and  C_13
REMARK                            x       y       z     vdW  Elec       q    Type
REMARK                         _______ _______ _______ _____ _____    ______ ____
ROOT
ATOM      1  C   UNL     1       1.184   8.097  20.683  0.00  0.00    +0.000 C 
ATOM      2  O   UNL     1       1.093   7.031  21.293  0.00  0.00    +0.000 OA
ATOM      3  N   UNL     1       1.898   8.227  19.504  0.00  0.00    +0.000 N 
ATOM      4  C   UNL     1       2.548   7.229  18.814  0.00  0.00    +0.000 C 
ATOM      5  O   UNL     1       3.141   7.482  17.771  0.00  0.00    +0.000 OA
ATOM      6  N   UNL     1       2.445   5.985  19.352  0.00  0.00    +0.000 N 
ATOM      7  H   UNL     1       1.969   9.111  19.031  0.00  0.00    +0.000 HD
ATOM      8  H   UNL     1       2.062   5.944  20.297  0.00  0.00    +0.000 HD
ENDROOT
BRANCH   6   9
ATOM      9  C   UNL     1       3.023   4.781  18.783  0.00  0.00    +0.000 C 
ATOM     10  C   UNL     1       2.172   4.189  17.625  0.00  0.00    +0.000 C 
ATOM     11  N   UNL     1       1.745   2.791  17.897  0.00  0.00    +0.000 NA
ATOM     12  C   UNL     1       2.949   1.955  18.083  0.00  0.00    +0.000 C 
ATOM     13  C   UNL     1       3.840   2.469  19.226  0.00  0.00    +0.000 C 
ATOM     14  C   UNL     1       3.179   3.694  19.876  0.00  0.00    +0.000 C 
ATOM     15  C   UNL     1       1.784   3.247  20.353  0.00  0.00    +0.000 C 
ATOM     16  C   UNL     1       0.952   2.789  19.146  0.00  0.00    +0.000 C 
ENDBRANCH   6   9
BRANCH   1  20
ATOM     17  C   UNL     1      -0.731  11.476  22.532  0.00  0.00    +0.000 A 
ATOM     18  C   UNL     1      -0.814  10.200  23.081  0.00  0.00    +0.000 A 
ATOM     19  C   UNL     1      -0.188   9.125  22.454  0.00  0.00    +0.000 A 
ATOM     20  C   UNL     1       0.521   9.304  21.256  0.00  0.00    +0.000 A 
ATOM     21  C   UNL     1       0.576  10.583  20.690  0.00  0.00    +0.000 A 
ATOM     22  C   UNL     1      -0.049  11.664  21.329  0.00  0.00    +0.000 A 
BRANCH  17  24
ATOM     23  C   UNL     1      -2.789  12.259  23.388  0.00  0.00    +0.000 C 
ATOM     24  O   UNL     1      -1.389  12.449  23.232  0.00  0.00    +0.000 OA
ENDBRANCH  17  24
ENDBRANCH   1  20
TORSDOF 3
ENDMDL
MODEL 3
REMARK VINA RESULT:      -7.4      2.425      3.412
REMARK  Name = 
REMARK  4 active torsions:
REMARK  status: ('A' for Active; 'I' for Inactive)
REMARK    1  A    between atoms: C_1  and  O_2
REMARK    2  A    between atoms: O_2  and  C_3
REMARK    3  A    between atoms: C_6  and  C_7
REMARK    4  A    between atoms: N_12  and  C_13
REMARK                            x       y       z     vdW  Elec       q    Type
REMARK                         _______ _______ _______ _____ _____    ______ ____
ROOT
ATOM      1  C   UNL     1       1.140   8.101  20.805  0.00  0.00    +0.000 C 
ATOM      2  O   UNL     1       1.054   7.001  21.352  0.00  0.00    +0.000 OA
ATOM      3  N   UNL     1       1.833   8.296  19.622  0.00  0.00    +0.000 N 
ATOM      4  C   UNL     1       2.465   7.338  18.862  0.00  0.00    +0.000 C 
ATOM      5  O   UNL     1       3.039   7.650  17.825  0.00  0.00    +0.000 OA
ATOM      6  N   UNL     1       2.365   6.065  19.328  0.00  0.00    +0.000 N 
ATOM      7  H   UNL     1       1.899   9.207  19.200  0.00  0.00    +0.000 HD
ATOM      8  H   UNL     1       1.999   5.970  20.276  0.00  0.00    +0.000 HD
ENDROOT
BRANCH   6   9
ATOM      9  C   UNL     1       2.925   4.895  18.679  0.00  0.00    +0.000 C 
ATOM     10  C   UNL     1       1.970   4.271  17.623  0.00  0.00    +0.000 C 
ATOM     11  N   UNL     1       1.644   2.852  17.927  0.00  0.00    +0.000 NA
ATOM     12  C   UNL     1       2.899   2.073  17.956  0.00  0.00    +0.000 C 
ATOM     13  C   UNL     1       3.896   2.621  18.990  0.00  0.00    +0.000 C 
ATOM     14  C   UNL     1       3.262   3.808  19.730  0.00  0.00    +0.000 C 
ATOM     15  C   UNL     1       1.957   3.292  20.366  0.00  0.00    +0.000 C 
ATOM     16  C   UNL     1       1.008   2.803  19.261  0.00  0.00    +0.000 C 
ENDBRANCH   6   9
BRANCH   1  20
ATOM     17  C   UNL     1      -0.712  11.593  22.502  0.00  0.00    +0.000 A 
ATOM     18  C   UNL     1       0.071  11.667  21.354  0.00  0.00    +0.000 A 
ATOM     19  C   UNL     1       0.663  10.519  20.833  0.00  0.00    +0.000 A 
ATOM     20  C   UNL     1       0.495   9.275  21.460  0.00  0.00    +0.000 A 
ATOM     21  C   UNL     1      -0.267   9.208  22.632  0.00  0.00    +0.000 A 
ATOM     22  C   UNL     1      -0.869  10.366  23.148  0.00  0.00    +0.000 A 
BRANCH  17  24
ATOM     23  C   UNL     1      -2.610  12.764  23.283  0.00  0.00    +0.000 C 
ATOM     24  O   UNL     1      -1.236  12.785  22.921  0.00  0.00    +0.000 OA
ENDBRANCH  17  24
ENDBRANCH   1  20
TORSDOF 3
ENDMDL
MODEL 4
REMARK VINA RESULT:      -7.4      0.197      1.044
REMARK  Name = 
REMARK  4 active torsions:
REMARK  status: ('A' for Active; 'I' for Inactive)
REMARK    1  A    between atoms: C_1  and  O_2
REMARK    2  A    between atoms: O_2  and  C_3
REMARK    3  A    between atoms: C_6  and  C_7
REMARK    4  A    between atoms: N_12  and  C_13
REMARK                            x       y       z     vdW  Elec       q    Type
REMARK                         _______ _______ _______ _____ _____    ______ ____
ROOT
ATOM      1  C   UNL     1       1.871   7.811  20.084  0.00  0.00    +0.000 C 
ATOM      2  O   UNL     1       2.373   8.179  19.021  0.00  0.00    +0.000 OA
ATOM      3  N   UNL     1       2.045   6.534  20.591  0.00  0.00    +0.000 N 
ATOM      4  C   UNL     1       2.812   5.525  20.053  0.00  0.00    +0.000 C 
ATOM      5  O   UNL     1       2.883   4.437  20.613  0.00  0.00    +0.000 OA
ATOM      6  N   UNL     1       3.482   5.845  18.915  0.00  0.00    +0.000 N 
ATOM      7  H   UNL     1       1.615   6.253  21.455  0.00  0.00    +0.000 HD
ATOM      8  H   UNL     1       3.210   6.725  18.476  0.00  0.00    +0.000 HD
ENDROOT
BRANCH   6   9
ATOM      9  C   UNL     1       4.369   4.952  18.193  0.00  0.00    +0.000 C 
ATOM     10  C   UNL     1       5.808   4.920  18.781  0.00  0.00    +0.000 C 
ATOM     11  N   UNL     1       6.835   5.315  17.781  0.00  0.00    +0.000 NA
ATOM     12  C   UNL     1       6.765   4.384  16.636  0.00  0.00    +0.000 C 
ATOM     13  C   UNL     1       5.371   4.369  15.988  0.00  0.00    +0.000 C 
ATOM     14  C   UNL     1       4.463   5.378  16.706  0.00  0.00    +0.000 C 
ATOM     15  C   UNL     1       5.158   6.749  16.611  0.00  0.00    +0.000 C 
ATOM     16  C   UNL     1       6.520   6.684  17.317  0.00  0.00    +0.000 C 
ENDBRANCH   6   9
BRANCH   1  20
ATOM     17  C   UNL     1      -0.697  10.627  22.080  0.00  0.00    +0.000 A 
ATOM     18  C   UNL     1      -0.507  10.661  20.702  0.00  0.00    +0.000 A 
ATOM     19  C   UNL     1       0.337   9.739  20.086  0.00  0.00    +0.000 A 
ATOM     20  C   UNL     1       1.020   8.773  20.841  0.00  0.00    +0.000 A 
ATOM     21  C   UNL     1       0.853   8.761  22.230  0.00  0.00    +0.000 A 
ATOM     22  C   UNL     1      -0.005   9.686  22.845  0.00  0.00    +0.000 A 
BRANCH  17  24
ATOM     23  C   UNL     1      -1.004  12.896  22.661  0.00  0.00    +0.000 C 
ATOM     24  O   UNL     1      -1.541  11.583  22.570  0.00  0.00    +0.000 OA
ENDBRANCH  17  24
ENDBRANCH   1  20
TORSDOF 3
ENDMDL
MODEL 5
REMARK VINA RESULT:      -7.3      5.960      7.438
REMARK  Name = 
REMARK  4 active torsions:
REMARK  status: ('A' for Active; 'I' for Inactive)
REMARK    1  A    between atoms: C_1  and  O_2
REMARK    2  A    between atoms: O_2  and  C_3
REMARK    3  A    between atoms: C_6  and  C_7
REMARK    4  A    between atoms: N_12  and  C_13
REMARK                            x       y       z     vdW  Elec       q    Type
REMARK                         _______ _______ _______ _____ _____    ______ ____
ROOT
ATOM      1  C   UNL     1       8.375   8.845  18.352  0.00  0.00    +0.000 C 
ATOM      2  O   UNL     1       7.536   8.877  17.451  0.00  0.00    +0.000 OA
ATOM      3  N   UNL     1       8.613   7.714  19.114  0.00  0.00    +0.000 N 
ATOM      4  C   UNL     1       8.026   6.477  18.969  0.00  0.00    +0.000 C 
ATOM      5  O   UNL     1       8.336   5.554  19.713  0.00  0.00    +0.000 OA
ATOM      6  N   UNL     1       7.138   6.370  17.946  0.00  0.00    +0.000 N 
ATOM      7  H   UNL     1       9.296   7.717  19.853  0.00  0.00    +0.000 HD
ATOM      8  H   UNL     1       6.858   7.249  17.512  0.00  0.00    +0.000 HD
ENDROOT
BRANCH   6   9
ATOM      9  C   UNL     1       6.422   5.159  17.589  0.00  0.00    +0.000 C 
ATOM     10  C   UNL     1       7.173   4.300  16.532  0.00  0.00    +0.000 C 
ATOM     11  N   UNL     1       6.363   4.083  15.305  0.00  0.00    +0.000 NA
ATOM     12  C   UNL     1       5.110   3.394  15.679  0.00  0.00    +0.000 C 
ATOM     13  C   UNL     1       4.300   4.190  16.715  0.00  0.00    +0.000 C 
ATOM     14  C   UNL     1       5.023   5.510  17.025  0.00  0.00    +0.000 C 
ATOM     15  C   UNL     1       5.186   6.254  15.685  0.00  0.00    +0.000 C 
ATOM     16  C   UNL     1       6.039   5.406  14.729  0.00  0.00    +0.000 C 
ENDBRANCH   6   9
BRANCH   1  20
ATOM     17  C   UNL     1      10.640  12.345  19.416  0.00  0.00    +0.000 A 
ATOM     18  C   UNL     1      10.078  11.517  20.383  0.00  0.00    +0.000 A 
ATOM     19  C   UNL     1       9.344  10.395  20.006  0.00  0.00    +0.000 A 
ATOM     20  C   UNL     1       9.145  10.087  18.651  0.00  0.00    +0.000 A 
ATOM     21  C   UNL     1       9.684  10.938  17.680  0.00  0.00    +0.000 A 
ATOM     22  C   UNL     1      10.430  12.063  18.065  0.00  0.00    +0.000 A 
BRANCH  17  24
ATOM     23  C   UNL     1      11.363  14.567  19.071  0.00  0.00    +0.000 C 
ATOM     24  O   UNL     1      11.332  13.417  19.905  0.00  0.00    +0.000 OA
ENDBRANCH  17  24
ENDBRANCH   1  20
TORSDOF 3
ENDMDL
MODEL 6
REMARK VINA RESULT:      -7.2      5.041      7.532
REMARK  Name = 
REMARK  4 active torsions:
REMARK  status: ('A' for Active; 'I' for Inactive)
REMARK    1  A    between atoms: C_1  and  O_2
REMARK    2  A    between atoms: O_2  and  C_3
REMARK    3  A    between atoms: C_6  and  C_7
REMARK    4  A    between atoms: N_12  and  C_13
REMARK                            x       y       z     vdW  Elec       q    Type
REMARK                         _______ _______ _______ _____ _____    ______ ____
ROOT
ATOM      1  C   UNL     1       8.252   8.647  18.385  0.00  0.00    +0.000 C 
ATOM      2  O   UNL     1       7.336   8.679  17.562  0.00  0.00    +0.000 OA
ATOM      3  N   UNL     1       8.561   7.514  19.118  0.00  0.00    +0.000 N 
ATOM      4  C   UNL     1       7.967   6.276  19.022  0.00  0.00    +0.000 C 
ATOM      5  O   UNL     1       8.345   5.351  19.732  0.00  0.00    +0.000 OA
ATOM      6  N   UNL     1       6.992   6.169  18.081  0.00  0.00    +0.000 N 
ATOM      7  H   UNL     1       9.306   7.516  19.794  0.00  0.00    +0.000 HD
ATOM      8  H   UNL     1       6.671   7.048  17.677  0.00  0.00    +0.000 HD
ENDROOT
BRANCH   6   9
ATOM      9  C   UNL     1       6.251   4.956  17.785  0.00  0.00    +0.000 C 
ATOM     10  C   UNL     1       5.345   5.091  16.529  0.00  0.00    +0.000 C 
ATOM     11  N   UNL     1       3.913   4.833  16.837  0.00  0.00    +0.000 NA
ATOM     12  C   UNL     1       3.783   3.464  17.377  0.00  0.00    +0.000 C 
ATOM     13  C   UNL     1       4.642   3.254  18.634  0.00  0.00    +0.000 C 
ATOM     14  C   UNL     1       5.358   4.566  18.989  0.00  0.00    +0.000 C 
ATOM     15  C   UNL     1       4.263   5.634  19.178  0.00  0.00    +0.000 C 
ATOM     16  C   UNL     1       3.483   5.806  17.866  0.00  0.00    +0.000 C 
ENDBRANCH   6   9
BRANCH   1  20
ATOM     17  C   UNL     1      10.577  12.159  19.264  0.00  0.00    +0.000 A 
ATOM     18  C   UNL     1      10.027  11.375  20.274  0.00  0.00    +0.000 A 
ATOM     19  C   UNL     1       9.273  10.247  19.957  0.00  0.00    +0.000 A 
ATOM     20  C   UNL     1       9.042   9.891  18.619  0.00  0.00    +0.000 A 
ATOM     21  C   UNL     1       9.568  10.698  17.605  0.00  0.00    +0.000 A 
ATOM     22  C   UNL     1      10.334  11.827  17.930  0.00  0.00    +0.000 A 
BRANCH  17  24
ATOM     23  C   UNL     1      12.300  13.710  18.812  0.00  0.00    +0.000 C 
ATOM     24  O   UNL     1      11.291  13.241  19.697  0.00  0.00    +0.000 OA
ENDBRANCH  17  24
ENDBRANCH   1  20
TORSDOF 3
ENDMDL
MODEL 7
REMARK VINA RESULT:      -7.2      6.027      7.379
REMARK  Name = 
REMARK  4 active torsions:
REMARK  status: ('A' for Active; 'I' for Inactive)
REMARK    1  A    between atoms: C_1  and  O_2
REMARK    2  A    between atoms: O_2  and  C_3
REMARK    3  A    between atoms: C_6  and  C_7
REMARK    4  A    between atoms: N_12  and  C_13
REMARK                            x       y       z     vdW  Elec       q    Type
REMARK                         _______ _______ _______ _____ _____    ______ ____
ROOT
ATOM      1  C   UNL     1       8.298   8.825  18.342  0.00  0.00    +0.000 C 
ATOM      2  O   UNL     1       7.476   8.831  17.425  0.00  0.00    +0.000 OA
ATOM      3  N   UNL     1       8.568   7.696  19.099  0.00  0.00    +0.000 N 
ATOM      4  C   UNL     1       8.035   6.438  18.931  0.00  0.00    +0.000 C 
ATOM      5  O   UNL     1       8.368   5.522  19.673  0.00  0.00    +0.000 OA
ATOM      6  N   UNL     1       7.171   6.305  17.890  0.00  0.00    +0.000 N 
ATOM      7  H   UNL     1       9.235   7.720  19.851  0.00  0.00    +0.000 HD
ATOM      8  H   UNL     1       6.864   7.176  17.458  0.00  0.00    +0.000 HD
ENDROOT
BRANCH   6   9
ATOM      9  C   UNL     1       6.513   5.069  17.508  0.00  0.00    +0.000 C 
ATOM     10  C   UNL     1       7.283   4.287  16.406  0.00  0.00    +0.000 C 
ATOM     11  N   UNL     1       6.456   4.067  15.190  0.00  0.00    +0.000 NA
ATOM     12  C   UNL     1       5.251   3.300  15.568  0.00  0.00    +0.000 C 
ATOM     13  C   UNL     1       4.425   4.017  16.648  0.00  0.00    +0.000 C 
ATOM     14  C   UNL     1       5.084   5.362  16.986  0.00  0.00    +0.000 C 
ATOM     15  C   UNL     1       5.175   6.157  15.670  0.00  0.00    +0.000 C 
ATOM     16  C   UNL     1       6.049   5.389  14.667  0.00  0.00    +0.000 C 
ENDBRANCH   6   9
BRANCH   1  20
ATOM     17  C   UNL     1      10.228  12.588  19.131  0.00  0.00    +0.000 A 
ATOM     18  C   UNL     1       9.571  12.342  17.929  0.00  0.00    +0.000 A 
ATOM     19  C   UNL     1       8.962  11.110  17.701  0.00  0.00    +0.000 A 
ATOM     20  C   UNL     1       9.011  10.094  18.668  0.00  0.00    +0.000 A 
ATOM     21  C   UNL     1       9.699  10.332  19.863  0.00  0.00    +0.000 A 
ATOM     22  C   UNL     1      10.304  11.577  20.091  0.00  0.00    +0.000 A 
BRANCH  17  24
ATOM     23  C   UNL     1      10.564  14.708  18.144  0.00  0.00    +0.000 C 
ATOM     24  O   UNL     1      10.792  13.829  19.237  0.00  0.00    +0.000 OA
ENDBRANCH  17  24
ENDBRANCH   1  20
TORSDOF 3
ENDMDL
MODEL 8
REMARK VINA RESULT:      -7.2      1.746      2.721
REMARK  Name = 
REMARK  4 active torsions:
REMARK  status: ('A' for Active; 'I' for Inactive)
REMARK    1  A    between atoms: C_1  and  O_2
REMARK    2  A    between atoms: O_2  and  C_3
REMARK    3  A    between atoms: C_6  and  C_7
REMARK    4  A    between atoms: N_12  and  C_13
REMARK                            x       y       z     vdW  Elec       q    Type
REMARK                         _______ _______ _______ _____ _____    ______ ____
ROOT
ATOM      1  C   UNL     1       1.155   8.576  20.423  0.00  0.00    +0.000 C 
ATOM      2  O   UNL     1       1.376   7.441  20.849  0.00  0.00    +0.000 OA
ATOM      3  N   UNL     1       1.568   8.999  19.171  0.00  0.00    +0.000 N 
ATOM      4  C   UNL     1       2.213   8.251  18.213  0.00  0.00    +0.000 C 
ATOM      5  O   UNL     1       2.518   8.753  17.137  0.00  0.00    +0.000 OA
ATOM      6  N   UNL     1       2.438   6.951  18.542  0.00  0.00    +0.000 N 
ATOM      7  H   UNL     1       1.386   9.935  18.851  0.00  0.00    +0.000 HD
ATOM      8  H   UNL     1       2.278   6.710  19.520  0.00  0.00    +0.000 HD
ENDROOT
BRANCH   6   9
ATOM      9  C   UNL     1       3.074   5.973  17.679  0.00  0.00    +0.000 C 
ATOM     10  C   UNL     1       2.443   4.557  17.799  0.00  0.00    +0.000 C 
ATOM     11  N   UNL     1       3.436   3.531  18.211  0.00  0.00    +0.000 NA
ATOM     12  C   UNL     1       4.520   3.488  17.208  0.00  0.00    +0.000 C 
ATOM     13  C   UNL     1       5.207   4.853  17.041  0.00  0.00    +0.000 C 
ATOM     14  C   UNL     1       4.582   5.862  18.017  0.00  0.00    +0.000 C 
ATOM     15  C   UNL     1       4.746   5.273  19.431  0.00  0.00    +0.000 C 
ATOM     16  C   UNL     1       3.998   3.935  19.519  0.00  0.00    +0.000 C 
ENDBRANCH   6   9
BRANCH   1  20
ATOM     17  C   UNL     1      -0.944  11.488  22.794  0.00  0.00    +0.000 A 
ATOM     18  C   UNL     1      -0.320  11.832  21.598  0.00  0.00    +0.000 A 
ATOM     19  C   UNL     1       0.358  10.867  20.857  0.00  0.00    +0.000 A 
ATOM     20  C   UNL     1       0.437   9.540  21.306  0.00  0.00    +0.000 A 
ATOM     21  C   UNL     1      -0.164   9.203  22.524  0.00  0.00    +0.000 A 
ATOM     22  C   UNL     1      -0.852  10.176  23.263  0.00  0.00    +0.000 A 
BRANCH  17  24
ATOM     23  C   UNL     1      -2.978  12.603  23.242  0.00  0.00    +0.000 C 
ATOM     24  O   UNL     1      -1.572  12.519  23.435  0.00  0.00    +0.000 OA
ENDBRANCH  17  24
ENDBRANCH   1  20
TORSDOF 3
ENDMDL
MODEL 9
REMARK VINA RESULT:      -7.2      5.095      7.415
REMARK  Name = 
REMARK  4 active torsions:
REMARK  status: ('A' for Active; 'I' for Inactive)
REMARK    1  A    between atoms: C_1  and  O_2
REMARK    2  A    between atoms: O_2  and  C_3
REMARK    3  A    between atoms: C_6  and  C_7
REMARK    4  A    between atoms: N_12  and  C_13
REMARK                            x       y       z     vdW  Elec       q    Type
REMARK                         _______ _______ _______ _____ _____    ______ ____
ROOT
ATOM      1  C   UNL     1       8.066   8.595  18.231  0.00  0.00    +0.000 C 
ATOM      2  O   UNL     1       7.122   8.544  17.440  0.00  0.00    +0.000 OA
ATOM      3  N   UNL     1       8.458   7.511  18.999  0.00  0.00    +0.000 N 
ATOM      4  C   UNL     1       7.928   6.241  18.973  0.00  0.00    +0.000 C 
ATOM      5  O   UNL     1       8.377   5.368  19.706  0.00  0.00    +0.000 OA
ATOM      6  N   UNL     1       6.929   6.044  18.072  0.00  0.00    +0.000 N 
ATOM      7  H   UNL     1       9.224   7.581  19.647  0.00  0.00    +0.000 HD
ATOM      8  H   UNL     1       6.550   6.888  17.644  0.00  0.00    +0.000 HD
ENDROOT
BRANCH   6   9
ATOM      9  C   UNL     1       6.245   4.783  17.852  0.00  0.00    +0.000 C 
ATOM     10  C   UNL     1       5.403   4.771  16.545  0.00  0.00    +0.000 C 
ATOM     11  N   UNL     1       3.966   4.490  16.803  0.00  0.00    +0.000 NA
ATOM     12  C   UNL     1       3.851   3.171  17.459  0.00  0.00    +0.000 C 
ATOM     13  C   UNL     1       4.648   3.107  18.772  0.00  0.00    +0.000 C 
ATOM     14  C   UNL     1       5.301   4.471  19.040  0.00  0.00    +0.000 C 
ATOM     15  C   UNL     1       4.164   5.510  19.075  0.00  0.00    +0.000 C 
ATOM     16  C   UNL     1       3.451   5.534  17.715  0.00  0.00    +0.000 C 
ENDBRANCH   6   9
BRANCH   1  20
ATOM     17  C   UNL     1       9.997  12.422  18.590  0.00  0.00    +0.000 A 
ATOM     18  C   UNL     1       8.979  12.202  17.666  0.00  0.00    +0.000 A 
ATOM     19  C   UNL     1       8.378  10.948  17.570  0.00  0.00    +0.000 A 
ATOM     20  C   UNL     1       8.796   9.886  18.387  0.00  0.00    +0.000 A 
ATOM     21  C   UNL     1       9.841  10.101  19.292  0.00  0.00    +0.000 A 
ATOM     22  C   UNL     1      10.437  11.367  19.391  0.00  0.00    +0.000 A 
BRANCH  17  24
ATOM     23  C   UNL     1      10.893  14.200  17.318  0.00  0.00    +0.000 C 
ATOM     24  O   UNL     1      10.513  13.688  18.588  0.00  0.00    +0.000 OA
ENDBRANCH  17  24
ENDBRANCH   1  20
TORSDOF 3
ENDMDL
