MODEL 1
REMARK VINA RESULT:      -8.0      0.000      0.000
REMARK  Name = 
REMARK  11 active torsions:
REMARK  status: ('A' for Active; 'I' for Inactive)
REMARK    1  A    between atoms: C_1  and  O_2
REMARK    2  A    between atoms: O_2  and  C_3
REMARK    3  A    between atoms: C_9  and  C_10
REMARK    4  A    between atoms: C_10  and  N_11
REMARK    5  A    between atoms: N_11  and  C_12
REMARK    6  A    between atoms: C_12  and  C_13
REMARK    7  A    between atoms: C_13  and  C_14
REMARK    8  A    between atoms: C_14  and  N_15
REMARK    9  A    between atoms: N_15  and  C_16
REMARK   10  A    between atoms: C_22  and  O_23
REMARK   11  A    between atoms: O_23  and  C_24
REMARK                            x       y       z     vdW  Elec       q    Type
REMARK                         _______ _______ _______ _____ _____    ______ ____
ROOT
ATOM      1  C   UNL     1       2.198   7.081  19.703  0.00  0.00    +0.000 A 
ATOM      2  C   UNL     1       2.425   7.083  18.326  0.00  0.00    +0.000 A 
ATOM      3  C   UNL     1       2.228   8.245  17.607  0.00  0.00    +0.000 A 
ATOM      4  N   UNL     1       1.800   9.401  18.145  0.00  0.00    +0.000 NA
ATOM      5  C   UNL     1       1.523   9.411  19.456  0.00  0.00    +0.000 A 
ATOM      6  C   UNL     1       1.056  10.599  20.004  0.00  0.00    +0.000 A 
ATOM      7  C   UNL     1       0.726  10.703  21.353  0.00  0.00    +0.000 A 
ATOM      8  C   UNL     1       0.799   9.572  22.162  0.00  0.00    +0.000 A 
ATOM      9  C   UNL     1       1.311   8.382  21.644  0.00  0.00    +0.000 A 
ATOM     10  C   UNL     1       1.697   8.277  20.287  0.00  0.00    +0.000 A 
ENDROOT
BRANCH   1  11
ATOM     11  N   UNL     1       2.356   5.917  20.484  0.00  0.00    +0.000 N 
ATOM     12  H   UNL     1       3.302   5.548  20.404  0.00  0.00    +0.000 HD
BRANCH  11  13
ATOM     13  C   UNL     1       1.320   4.889  20.463  0.00  0.00    +0.000 C 
BRANCH  13  14
ATOM     14  C   UNL     1       1.433   4.034  19.205  0.00  0.00    +0.000 C 
BRANCH  14  15
ATOM     15  C   UNL     1       2.352   2.836  19.461  0.00  0.00    +0.000 C 
BRANCH  15  16
ATOM     16  N   UNL     1       3.738   3.242  19.269  0.00  0.00    +0.000 NA
ATOM     17  H   UNL     1       3.970   4.005  19.904  0.00  0.00    +0.000 HD
BRANCH  16  18
ATOM     18  C   UNL     1       3.993   3.698  17.900  0.00  0.00    +0.000 C 
BRANCH  18  25
ATOM     19  C   UNL     1       5.761   5.088  16.664  0.00  0.00    +0.000 A 
ATOM     20  C   UNL     1       6.915   5.885  16.706  0.00  0.00    +0.000 A 
ATOM     21  C   UNL     1       7.556   6.144  17.920  0.00  0.00    +0.000 A 
ATOM     22  C   UNL     1       7.043   5.613  19.093  0.00  0.00    +0.000 A 
ATOM     23  F   UNL     1       7.655   5.867  20.257  0.00  0.00    +0.000 F 
ATOM     24  C   UNL     1       5.902   4.826  19.074  0.00  0.00    +0.000 A 
ATOM     25  C   UNL     1       5.238   4.559  17.861  0.00  0.00    +0.000 A 
BRANCH  19  27
ATOM     26  C   UNL     1       5.785   4.167  14.472  0.00  0.00    +0.000 C 
ATOM     27  O   UNL     1       5.065   4.816  15.515  0.00  0.00    +0.000 OA
ENDBRANCH  19  27
ENDBRANCH  18  25
ENDBRANCH  16  18
ENDBRANCH  15  16
ENDBRANCH  14  15
ENDBRANCH  13  14
ENDBRANCH  11  13
ENDBRANCH   1  11
BRANCH   7  28
ATOM     28  O   UNL     1       0.298  11.941  21.783  0.00  0.00    +0.000 OA
BRANCH  28  29
ATOM     29  C   UNL     1      -1.055  12.183  21.890  0.00  0.00    +0.000 A 
ATOM     30  C   UNL     1      -1.774  12.059  23.082  0.00  0.00    +0.000 A 
ATOM     31  C   UNL     1      -3.159  12.222  23.085  0.00  0.00    +0.000 A 
ATOM     32  C   UNL     1      -3.812  12.586  21.911  0.00  0.00    +0.000 A 
ATOM     33 CL   UNL     1      -5.524  12.760  21.909  0.00  0.00    +0.000 Cl
ATOM     34  C   UNL     1      -3.089  12.807  20.739  0.00  0.00    +0.000 A 
ATOM     35  C   UNL     1      -1.707  12.605  20.728  0.00  0.00    +0.000 A 
ENDBRANCH  28  29
ENDBRANCH   7  28
TORSDOF 10
ENDMDL
MODEL 2
REMARK VINA RESULT:      -8.0      1.500      1.953
REMARK  Name = 
REMARK  11 active torsions:
REMARK  status: ('A' for Active; 'I' for Inactive)
REMARK    1  A    between atoms: C_1  and  O_2
REMARK    2  A    between atoms: O_2  and  C_3
REMARK    3  A    between atoms: C_9  and  C_10
REMARK    4  A    between atoms: C_10  and  N_11
REMARK    5  A    between atoms: N_11  and  C_12
REMARK    6  A    between atoms: C_12  and  C_13
REMARK    7  A    between atoms: C_13  and  C_14
REMARK    8  A    between atoms: C_14  and  N_15
REMARK    9  A    between atoms: N_15  and  C_16
REMARK   10  A    between atoms: C_22  and  O_23
REMARK   11  A    between atoms: O_23  and  C_24
REMARK                            x       y       z     vdW  Elec       q    Type
REMARK                         _______ _______ _______ _____ _____    ______ ____
ROOT
ATOM      1  C   UNL     1       2.224   7.301  19.743  0.00  0.00    +0.000 A 
ATOM      2  C   UNL     1       2.963   7.035  18.589  0.00  0.00    +0.000 A 
ATOM      3  C   UNL     1       2.930   7.932  17.540  0.00  0.00    +0.000 A 
ATOM      4  N   UNL     1       2.203   9.063  17.538  0.00  0.00    +0.000 NA
ATOM      5  C   UNL     1       1.442   9.314  18.612  0.00  0.00    +0.000 A 
ATOM      6  C   UNL     1       0.671  10.470  18.596  0.00  0.00    +0.000 A 
ATOM      7  C   UNL     1      -0.163  10.808  19.659  0.00  0.00    +0.000 A 
ATOM      8  C   UNL     1      -0.282   9.935  20.737  0.00  0.00    +0.000 A 
ATOM      9  C   UNL     1       0.519   8.794  20.796  0.00  0.00    +0.000 A 
ATOM     10  C   UNL     1       1.407   8.465  19.745  0.00  0.00    +0.000 A 
ENDROOT
BRANCH   1  11
ATOM     11  N   UNL     1       2.197   6.408  20.834  0.00  0.00    +0.000 N 
ATOM     12  H   UNL     1       3.101   6.375  21.303  0.00  0.00    +0.000 HD
BRANCH  11  13
ATOM     13  C   UNL     1       1.566   5.101  20.681  0.00  0.00    +0.000 C 
BRANCH  13  14
ATOM     14  C   UNL     1       2.615   3.992  20.676  0.00  0.00    +0.000 C 
BRANCH  14  15
ATOM     15  C   UNL     1       2.375   3.042  19.500  0.00  0.00    +0.000 C 
BRANCH  15  16
ATOM     16  N   UNL     1       3.648   2.737  18.858  0.00  0.00    +0.000 NA
ATOM     17  H   UNL     1       4.420   3.011  19.466  0.00  0.00    +0.000 HD
BRANCH  16  18
ATOM     18  C   UNL     1       3.803   3.442  17.582  0.00  0.00    +0.000 C 
BRANCH  18  25
ATOM     19  C   UNL     1       5.801   4.511  16.378  0.00  0.00    +0.000 A 
ATOM     20  C   UNL     1       7.001   5.235  16.441  0.00  0.00    +0.000 A 
ATOM     21  C   UNL     1       7.519   5.646  17.671  0.00  0.00    +0.000 A 
ATOM     22  C   UNL     1       6.838   5.340  18.839  0.00  0.00    +0.000 A 
ATOM     23  F   UNL     1       7.332   5.740  20.017  0.00  0.00    +0.000 F 
ATOM     24  C   UNL     1       5.648   4.629  18.798  0.00  0.00    +0.000 A 
ATOM     25  C   UNL     1       5.107   4.211  17.567  0.00  0.00    +0.000 A 
BRANCH  19  27
ATOM     26  C   UNL     1       6.049   4.101  14.048  0.00  0.00    +0.000 C 
ATOM     27  O   UNL     1       5.220   4.100  15.207  0.00  0.00    +0.000 OA
ENDBRANCH  19  27
ENDBRANCH  18  25
ENDBRANCH  16  18
ENDBRANCH  15  16
ENDBRANCH  14  15
ENDBRANCH  13  14
ENDBRANCH  11  13
ENDBRANCH   1  11
BRANCH   7  28
ATOM     28  O   UNL     1      -0.858  11.993  19.536  0.00  0.00    +0.000 OA
BRANCH  28  29
ATOM     29  C   UNL     1      -2.194  11.954  19.199  0.00  0.00    +0.000 A 
ATOM     30  C   UNL     1      -2.679  11.405  18.008  0.00  0.00    +0.000 A 
ATOM     31  C   UNL     1      -4.035  11.497  17.695  0.00  0.00    +0.000 A 
ATOM     32  C   UNL     1      -4.916  12.069  18.610  0.00  0.00    +0.000 A 
ATOM     33 CL   UNL     1      -6.584  12.208  18.212  0.00  0.00    +0.000 Cl
ATOM     34  C   UNL     1      -4.454  12.532  19.842  0.00  0.00    +0.000 A 
ATOM     35  C   UNL     1      -3.089  12.475  20.137  0.00  0.00    +0.000 A 
ENDBRANCH  28  29
ENDBRANCH   7  28
TORSDOF 10
ENDMDL
MODEL 3
REMARK VINA RESULT:      -7.8      1.677      2.203
REMARK  Name = 
REMARK  11 active torsions:
REMARK  status: ('A' for Active; 'I' for Inactive)
REMARK    1  A    between atoms: C_1  and  O_2
REMARK    2  A    between atoms: O_2  and  C_3
REMARK    3  A    between atoms: C_9  and  C_10
REMARK    4  A    between atoms: C_10  and  N_11
REMARK    5  A    between atoms: N_11  and  C_12
REMARK    6  A    between atoms: C_12  and  C_13
REMARK    7  A    between atoms: C_13  and  C_14
REMARK    8  A    between atoms: C_14  and  N_15
REMARK    9  A    between atoms: N_15  and  C_16
REMARK   10  A    between atoms: C_22  and  O_23
REMARK   11  A    between atoms: O_23  and  C_24
REMARK                            x       y       z     vdW  Elec       q    Type
REMARK                         _______ _______ _______ _____ _____    ______ ____
ROOT
ATOM      1  C   UNL     1       1.856   7.557  20.020  0.00  0.00    +0.000 A 
ATOM      2  C   UNL     1       2.170   7.530  18.660  0.00  0.00    +0.000 A 
ATOM      3  C   UNL     1       1.957   8.657  17.891  0.00  0.00    +0.000 A 
ATOM      4  N   UNL     1       1.436   9.803  18.364  0.00  0.00    +0.000 NA
ATOM      5  C   UNL     1       1.076   9.838  19.654  0.00  0.00    +0.000 A 
ATOM      6  C   UNL     1       0.513  11.014  20.132  0.00  0.00    +0.000 A 
ATOM      7  C   UNL     1       0.095  11.141  21.454  0.00  0.00    +0.000 A 
ATOM      8  C   UNL     1       0.176  10.041  22.304  0.00  0.00    +0.000 A 
ATOM      9  C   UNL     1       0.782   8.866  21.859  0.00  0.00    +0.000 A 
ATOM     10  C   UNL     1       1.257   8.741  20.532  0.00  0.00    +0.000 A 
ENDROOT
BRANCH   1  11
ATOM     11  N   UNL     1       2.027   6.428  20.848  0.00  0.00    +0.000 N 
ATOM     12  H   UNL     1       3.007   6.295  21.089  0.00  0.00    +0.000 HD
BRANCH  11  13
ATOM     13  C   UNL     1       1.325   5.188  20.528  0.00  0.00    +0.000 C 
BRANCH  13  14
ATOM     14  C   UNL     1       2.214   3.979  20.807  0.00  0.00    +0.000 C 
BRANCH  14  15
ATOM     15  C   UNL     1       2.923   3.537  19.524  0.00  0.00    +0.000 C 
BRANCH  15  16
ATOM     16  N   UNL     1       4.285   4.053  19.524  0.00  0.00    +0.000 NA
ATOM     17  H   UNL     1       4.556   4.326  20.469  0.00  0.00    +0.000 HD
BRANCH  16  18
ATOM     18  C   UNL     1       4.430   5.224  18.654  0.00  0.00    +0.000 C 
BRANCH  18  25
ATOM     19  C   UNL     1       6.716   4.721  17.603  0.00  0.00    +0.000 A 
ATOM     20  C   UNL     1       7.480   4.406  16.470  0.00  0.00    +0.000 A 
ATOM     21  C   UNL     1       6.873   4.276  15.218  0.00  0.00    +0.000 A 
ATOM     22  C   UNL     1       5.505   4.455  15.098  0.00  0.00    +0.000 A 
ATOM     23  F   UNL     1       4.923   4.323  13.898  0.00  0.00    +0.000 F 
ATOM     24  C   UNL     1       4.731   4.762  16.206  0.00  0.00    +0.000 A 
ATOM     25  C   UNL     1       5.323   4.891  17.477  0.00  0.00    +0.000 A 
BRANCH  19  27
ATOM     26  C   UNL     1       7.959   6.032  19.151  0.00  0.00    +0.000 C 
ATOM     27  O   UNL     1       7.239   4.836  18.865  0.00  0.00    +0.000 OA
ENDBRANCH  19  27
ENDBRANCH  18  25
ENDBRANCH  16  18
ENDBRANCH  15  16
ENDBRANCH  14  15
ENDBRANCH  13  14
ENDBRANCH  11  13
ENDBRANCH   1  11
BRANCH   7  28
ATOM     28  O   UNL     1      -0.425  12.367  21.815  0.00  0.00    +0.000 OA
BRANCH  28  29
ATOM     29  C   UNL     1      -1.792  12.520  21.893  0.00  0.00    +0.000 A 
ATOM     30  C   UNL     1      -2.509  12.499  23.094  0.00  0.00    +0.000 A 
ATOM     31  C   UNL     1      -3.902  12.557  23.079  0.00  0.00    +0.000 A 
ATOM     32  C   UNL     1      -4.572  12.715  21.868  0.00  0.00    +0.000 A 
ATOM     33 CL   UNL     1      -6.292  12.759  21.848  0.00  0.00    +0.000 Cl
ATOM     34  C   UNL     1      -3.859  12.833  20.676  0.00  0.00    +0.000 A 
ATOM     35  C   UNL     1      -2.465  12.736  20.688  0.00  0.00    +0.000 A 
ENDBRANCH  28  29
ENDBRANCH   7  28
TORSDOF 10
ENDMDL
MODEL 4
REMARK VINA RESULT:      -7.7      1.876      2.620
REMARK  Name = 
REMARK  11 active torsions:
REMARK  status: ('A' for Active; 'I' for Inactive)
REMARK    1  A    between atoms: C_1  and  O_2
REMARK    2  A    between atoms: O_2  and  C_3
REMARK    3  A    between atoms: C_9  and  C_10
REMARK    4  A    between atoms: C_10  and  N_11
REMARK    5  A    between atoms: N_11  and  C_12
REMARK    6  A    between atoms: C_12  and  C_13
REMARK    7  A    between atoms: C_13  and  C_14
REMARK    8  A    between atoms: C_14  and  N_15
REMARK    9  A    between atoms: N_15  and  C_16
REMARK   10  A    between atoms: C_22  and  O_23
REMARK   11  A    between atoms: O_23  and  C_24
REMARK                            x       y       z     vdW  Elec       q    Type
REMARK                         _______ _______ _______ _____ _____    ______ ____
ROOT
ATOM      1  C   UNL     1       1.571   8.289  20.306  0.00  0.00    +0.000 A 
ATOM      2  C   UNL     1       1.893   8.427  18.955  0.00  0.00    +0.000 A 
ATOM      3  C   UNL     1       1.571   9.596  18.295  0.00  0.00    +0.000 A 
ATOM      4  N   UNL     1       0.934  10.633  18.868  0.00  0.00    +0.000 NA
ATOM      5  C   UNL     1       0.565  10.505  20.150  0.00  0.00    +0.000 A 
ATOM      6  C   UNL     1      -0.117  11.566  20.731  0.00  0.00    +0.000 A 
ATOM      7  C   UNL     1      -0.554  11.520  22.053  0.00  0.00    +0.000 A 
ATOM      8  C   UNL     1      -0.366  10.356  22.793  0.00  0.00    +0.000 A 
ATOM      9  C   UNL     1       0.359   9.297  22.246  0.00  0.00    +0.000 A 
ATOM     10  C   UNL     1       0.852   9.351  20.920  0.00  0.00    +0.000 A 
ENDROOT
BRANCH   1  11
ATOM     11  N   UNL     1       1.851   7.108  21.023  0.00  0.00    +0.000 N 
ATOM     12  H   UNL     1       2.846   7.028  21.225  0.00  0.00    +0.000 HD
BRANCH  11  13
ATOM     13  C   UNL     1       1.232   5.851  20.611  0.00  0.00    +0.000 C 
BRANCH  13  14
ATOM     14  C   UNL     1       2.142   4.670  20.934  0.00  0.00    +0.000 C 
BRANCH  14  15
ATOM     15  C   UNL     1       2.628   4.008  19.641  0.00  0.00    +0.000 C 
BRANCH  15  16
ATOM     16  N   UNL     1       2.974   5.039  18.672  0.00  0.00    +0.000 NA
ATOM     17  H   UNL     1       2.941   4.656  17.727  0.00  0.00    +0.000 HD
BRANCH  16  18
ATOM     18  C   UNL     1       4.320   5.575  18.897  0.00  0.00    +0.000 C 
BRANCH  18  25
ATOM     19  C   UNL     1       6.594   4.828  17.973  0.00  0.00    +0.000 A 
ATOM     20  C   UNL     1       7.386   4.447  16.880  0.00  0.00    +0.000 A 
ATOM     21  C   UNL     1       6.847   4.411  15.591  0.00  0.00    +0.000 A 
ATOM     22  C   UNL     1       5.519   4.750  15.393  0.00  0.00    +0.000 A 
ATOM     23  F   UNL     1       5.002   4.709  14.158  0.00  0.00    +0.000 F 
ATOM     24  C   UNL     1       4.718   5.126  16.461  0.00  0.00    +0.000 A 
ATOM     25  C   UNL     1       5.241   5.162  17.768  0.00  0.00    +0.000 A 
BRANCH  19  27
ATOM     26  C   UNL     1       8.050   5.823  19.569  0.00  0.00    +0.000 C 
ATOM     27  O   UNL     1       7.047   4.859  19.266  0.00  0.00    +0.000 OA
ENDBRANCH  19  27
ENDBRANCH  18  25
ENDBRANCH  16  18
ENDBRANCH  15  16
ENDBRANCH  14  15
ENDBRANCH  13  14
ENDBRANCH  11  13
ENDBRANCH   1  11
BRANCH   7  28
ATOM     28  O   UNL     1      -1.197  12.646  22.522  0.00  0.00    +0.000 OA
BRANCH  28  29
ATOM     29  C   UNL     1      -2.574  12.681  22.522  0.00  0.00    +0.000 A 
ATOM     30  C   UNL     1      -3.349  12.770  21.361  0.00  0.00    +0.000 A 
ATOM     31  C   UNL     1      -4.734  12.903  21.451  0.00  0.00    +0.000 A 
ATOM     32  C   UNL     1      -5.350  12.870  22.700  0.00  0.00    +0.000 A 
ATOM     33 CL   UNL     1      -7.055  13.062  22.813  0.00  0.00    +0.000 Cl
ATOM     34  C   UNL     1      -4.593  12.685  23.856  0.00  0.00    +0.000 A 
ATOM     35  C   UNL     1      -3.201  12.590  23.767  0.00  0.00    +0.000 A 
ENDBRANCH  28  29
ENDBRANCH   7  28
TORSDOF 10
ENDMDL
MODEL 5
REMARK VINA RESULT:      -7.7      2.507      3.182
REMARK  Name = 
REMARK  11 active torsions:
REMARK  status: ('A' for Active; 'I' for Inactive)
REMARK    1  A    between atoms: C_1  and  O_2
REMARK    2  A    between atoms: O_2  and  C_3
REMARK    3  A    between atoms: C_9  and  C_10
REMARK    4  A    between atoms: C_10  and  N_11
REMARK    5  A    between atoms: N_11  and  C_12
REMARK    6  A    between atoms: C_12  and  C_13
REMARK    7  A    between atoms: C_13  and  C_14
REMARK    8  A    between atoms: C_14  and  N_15
REMARK    9  A    between atoms: N_15  and  C_16
REMARK   10  A    between atoms: C_22  and  O_23
REMARK   11  A    between atoms: O_23  and  C_24
REMARK                            x       y       z     vdW  Elec       q    Type
REMARK                         _______ _______ _______ _____ _____    ______ ____
ROOT
ATOM      1  C   UNL     1       2.095   7.279  19.869  0.00  0.00    +0.000 A 
ATOM      2  C   UNL     1       2.352   7.273  18.497  0.00  0.00    +0.000 A 
ATOM      3  C   UNL     1       2.101   8.409  17.754  0.00  0.00    +0.000 A 
ATOM      4  N   UNL     1       1.594   9.546  18.264  0.00  0.00    +0.000 NA
ATOM      5  C   UNL     1       1.288   9.560  19.568  0.00  0.00    +0.000 A 
ATOM      6  C   UNL     1       0.739  10.726  20.086  0.00  0.00    +0.000 A 
ATOM      7  C   UNL     1       0.375  10.831  21.427  0.00  0.00    +0.000 A 
ATOM      8  C   UNL     1       0.498   9.720  22.256  0.00  0.00    +0.000 A 
ATOM      9  C   UNL     1       1.091   8.555  21.769  0.00  0.00    +0.000 A 
ATOM     10  C   UNL     1       1.511   8.452  20.422  0.00  0.00    +0.000 A 
ENDROOT
BRANCH   1  11
ATOM     11  N   UNL     1       2.306   6.139  20.672  0.00  0.00    +0.000 N 
ATOM     12  H   UNL     1       3.278   5.838  20.633  0.00  0.00    +0.000 HD
BRANCH  11  13
ATOM     13  C   UNL     1       1.347   5.039  20.628  0.00  0.00    +0.000 C 
BRANCH  13  14
ATOM     14  C   UNL     1       2.044   3.730  20.271  0.00  0.00    +0.000 C 
BRANCH  14  15
ATOM     15  C   UNL     1       1.869   3.428  18.780  0.00  0.00    +0.000 C 
BRANCH  15  16
ATOM     16  N   UNL     1       3.162   3.089  18.201  0.00  0.00    +0.000 NA
ATOM     17  H   UNL     1       3.438   2.149  18.486  0.00  0.00    +0.000 HD
BRANCH  16  18
ATOM     18  C   UNL     1       4.214   4.018  18.623  0.00  0.00    +0.000 C 
BRANCH  18  25
ATOM     19  C   UNL     1       6.537   4.603  17.703  0.00  0.00    +0.000 A 
ATOM     20  C   UNL     1       7.386   4.796  16.603  0.00  0.00    +0.000 A 
ATOM     21  C   UNL     1       6.902   4.656  15.300  0.00  0.00    +0.000 A 
ATOM     22  C   UNL     1       5.574   4.319  15.094  0.00  0.00    +0.000 A 
ATOM     23  F   UNL     1       5.113   4.179  13.844  0.00  0.00    +0.000 F 
ATOM     24  C   UNL     1       4.719   4.120  16.168  0.00  0.00    +0.000 A 
ATOM     25  C   UNL     1       5.190   4.251  17.488  0.00  0.00    +0.000 A 
BRANCH  19  27
ATOM     26  C   UNL     1       7.818   5.779  19.326  0.00  0.00    +0.000 C 
ATOM     27  O   UNL     1       6.949   4.697  19.007  0.00  0.00    +0.000 OA
ENDBRANCH  19  27
ENDBRANCH  18  25
ENDBRANCH  16  18
ENDBRANCH  15  16
ENDBRANCH  14  15
ENDBRANCH  13  14
ENDBRANCH  11  13
ENDBRANCH   1  11
BRANCH   7  28
ATOM     28  O   UNL     1      -0.135  12.049  21.826  0.00  0.00    +0.000 OA
BRANCH  28  29
ATOM     29  C   UNL     1       0.093  13.161  21.045  0.00  0.00    +0.000 A 
ATOM     30  C   UNL     1      -0.807  13.632  20.083  0.00  0.00    +0.000 A 
ATOM     31  C   UNL     1      -0.457  14.704  19.262  0.00  0.00    +0.000 A 
ATOM     32  C   UNL     1       0.761  15.352  19.457  0.00  0.00    +0.000 A 
ATOM     33 CL   UNL     1       1.204  16.656  18.426  0.00  0.00    +0.000 Cl
ATOM     34  C   UNL     1       1.621  14.949  20.477  0.00  0.00    +0.000 A 
ATOM     35  C   UNL     1       1.286  13.850  21.274  0.00  0.00    +0.000 A 
ENDBRANCH  28  29
ENDBRANCH   7  28
TORSDOF 10
ENDMDL
MODEL 6
REMARK VINA RESULT:      -7.6      1.461      1.739
REMARK  Name = 
REMARK  11 active torsions:
REMARK  status: ('A' for Active; 'I' for Inactive)
REMARK    1  A    between atoms: C_1  and  O_2
REMARK    2  A    between atoms: O_2  and  C_3
REMARK    3  A    between atoms: C_9  and  C_10
REMARK    4  A    between atoms: C_10  and  N_11
REMARK    5  A    between atoms: N_11  and  C_12
REMARK    6  A    between atoms: C_12  and  C_13
REMARK    7  A    between atoms: C_13  and  C_14
REMARK    8  A    between atoms: C_14  and  N_15
REMARK    9  A    between atoms: N_15  and  C_16
REMARK   10  A    between atoms: C_22  and  O_23
REMARK   11  A    between atoms: O_23  and  C_24
REMARK                            x       y       z     vdW  Elec       q    Type
REMARK                         _______ _______ _______ _____ _____    ______ ____
ROOT
ATOM      1  C   UNL     1       2.284   7.163  19.717  0.00  0.00    +0.000 A 
ATOM      2  C   UNL     1       3.032   6.970  18.554  0.00  0.00    +0.000 A 
ATOM      3  C   UNL     1       2.989   7.922  17.554  0.00  0.00    +0.000 A 
ATOM      4  N   UNL     1       2.244   9.041  17.610  0.00  0.00    +0.000 NA
ATOM      5  C   UNL     1       1.476   9.222  18.693  0.00  0.00    +0.000 A 
ATOM      6  C   UNL     1       0.688  10.365  18.735  0.00  0.00    +0.000 A 
ATOM      7  C   UNL     1      -0.155  10.633  19.812  0.00  0.00    +0.000 A 
ATOM      8  C   UNL     1      -0.265   9.701  20.840  0.00  0.00    +0.000 A 
ATOM      9  C   UNL     1       0.553   8.571  20.841  0.00  0.00    +0.000 A 
ATOM     10  C   UNL     1       1.450   8.312  19.778  0.00  0.00    +0.000 A 
ENDROOT
BRANCH   1  11
ATOM     11  N   UNL     1       2.268   6.212  20.758  0.00  0.00    +0.000 N 
ATOM     12  H   UNL     1       3.204   6.057  21.129  0.00  0.00    +0.000 HD
BRANCH  11  13
ATOM     13  C   UNL     1       1.486   4.988  20.604  0.00  0.00    +0.000 C 
BRANCH  13  14
ATOM     14  C   UNL     1       2.199   3.807  21.257  0.00  0.00    +0.000 C 
BRANCH  14  15
ATOM     15  C   UNL     1       2.943   2.988  20.198  0.00  0.00    +0.000 C 
BRANCH  15  16
ATOM     16  N   UNL     1       4.145   3.705  19.791  0.00  0.00    +0.000 NA
ATOM     17  H   UNL     1       4.038   4.702  19.979  0.00  0.00    +0.000 HD
BRANCH  16  18
ATOM     18  C   UNL     1       4.427   3.539  18.362  0.00  0.00    +0.000 C 
BRANCH  18  25
ATOM     19  C   UNL     1       5.734   4.836  16.575  0.00  0.00    +0.000 A 
ATOM     20  C   UNL     1       6.742   5.754  16.247  0.00  0.00    +0.000 A 
ATOM     21  C   UNL     1       7.523   6.339  17.247  0.00  0.00    +0.000 A 
ATOM     22  C   UNL     1       7.296   6.013  18.574  0.00  0.00    +0.000 A 
ATOM     23  F   UNL     1       8.041   6.579  19.532  0.00  0.00    +0.000 F 
ATOM     24  C   UNL     1       6.302   5.110  18.920  0.00  0.00    +0.000 A 
ATOM     25  C   UNL     1       5.501   4.515  17.927  0.00  0.00    +0.000 A 
BRANCH  19  27
ATOM     26  C   UNL     1       5.426   4.120  14.328  0.00  0.00    +0.000 C 
ATOM     27  O   UNL     1       4.913   4.245  15.651  0.00  0.00    +0.000 OA
ENDBRANCH  19  27
ENDBRANCH  18  25
ENDBRANCH  16  18
ENDBRANCH  15  16
ENDBRANCH  14  15
ENDBRANCH  13  14
ENDBRANCH  11  13
ENDBRANCH   1  11
BRANCH   7  28
ATOM     28  O   UNL     1      -0.868  11.812  19.749  0.00  0.00    +0.000 OA
BRANCH  28  29
ATOM     29  C   UNL     1      -0.937  12.614  20.867  0.00  0.00    +0.000 A 
ATOM     30  C   UNL     1       0.067  13.513  21.241  0.00  0.00    +0.000 A 
ATOM     31  C   UNL     1      -0.032  14.214  22.442  0.00  0.00    +0.000 A 
ATOM     32  C   UNL     1      -1.173  14.075  23.230  0.00  0.00    +0.000 A 
ATOM     33 CL   UNL     1      -1.282  14.919  24.724  0.00  0.00    +0.000 Cl
ATOM     34  C   UNL     1      -2.221  13.254  22.815  0.00  0.00    +0.000 A 
ATOM     35  C   UNL     1      -2.103  12.522  21.631  0.00  0.00    +0.000 A 
ENDBRANCH  28  29
ENDBRANCH   7  28
TORSDOF 10
ENDMDL
MODEL 7
REMARK VINA RESULT:      -7.5      2.122      2.564
REMARK  Name = 
REMARK  11 active torsions:
REMARK  status: ('A' for Active; 'I' for Inactive)
REMARK    1  A    between atoms: C_1  and  O_2
REMARK    2  A    between atoms: O_2  and  C_3
REMARK    3  A    between atoms: C_9  and  C_10
REMARK    4  A    between atoms: C_10  and  N_11
REMARK    5  A    between atoms: N_11  and  C_12
REMARK    6  A    between atoms: C_12  and  C_13
REMARK    7  A    between atoms: C_13  and  C_14
REMARK    8  A    between atoms: C_14  and  N_15
REMARK    9  A    between atoms: N_15  and  C_16
REMARK   10  A    between atoms: C_22  and  O_23
REMARK   11  A    between atoms: O_23  and  C_24
REMARK                            x       y       z     vdW  Elec       q    Type
REMARK                         _______ _______ _______ _____ _____    ______ ____
ROOT
ATOM      1  C   UNL     1       2.389   7.096  19.677  0.00  0.00    +0.000 A 
ATOM      2  C   UNL     1       2.872   7.087  18.368  0.00  0.00    +0.000 A 
ATOM      3  C   UNL     1       2.629   8.170  17.547  0.00  0.00    +0.000 A 
ATOM      4  N   UNL     1       1.925   9.255  17.919  0.00  0.00    +0.000 NA
ATOM      5  C   UNL     1       1.405   9.264  19.153  0.00  0.00    +0.000 A 
ATOM      6  C   UNL     1       0.655  10.373  19.524  0.00  0.00    +0.000 A 
ATOM      7  C   UNL     1       0.062  10.469  20.781  0.00  0.00    +0.000 A 
ATOM      8  C   UNL     1       0.162   9.398  21.665  0.00  0.00    +0.000 A 
ATOM      9  C   UNL     1       0.949   8.295  21.332  0.00  0.00    +0.000 A 
ATOM     10  C   UNL     1       1.598   8.209  20.077  0.00  0.00    +0.000 A 
ENDROOT
BRANCH   1  11
ATOM     11  N   UNL     1       2.582   6.007  20.551  0.00  0.00    +0.000 N 
ATOM     12  H   UNL     1       3.561   5.728  20.579  0.00  0.00    +0.000 HD
BRANCH  11  13
ATOM     13  C   UNL     1       1.651   4.882  20.518  0.00  0.00    +0.000 C 
BRANCH  13  14
ATOM     14  C   UNL     1       2.346   3.593  20.947  0.00  0.00    +0.000 C 
BRANCH  14  15
ATOM     15  C   UNL     1       2.917   2.868  19.725  0.00  0.00    +0.000 C 
BRANCH  15  16
ATOM     16  N   UNL     1       3.721   3.799  18.944  0.00  0.00    +0.000 NA
ATOM     17  H   UNL     1       3.568   3.643  17.948  0.00  0.00    +0.000 HD
BRANCH  16  18
ATOM     18  C   UNL     1       5.154   3.647  19.213  0.00  0.00    +0.000 C 
BRANCH  18  25
ATOM     19  C   UNL     1       5.805   4.878  17.058  0.00  0.00    +0.000 A 
ATOM     20  C   UNL     1       6.561   5.871  16.416  0.00  0.00    +0.000 A 
ATOM     21  C   UNL     1       7.456   6.661  17.141  0.00  0.00    +0.000 A 
ATOM     22  C   UNL     1       7.593   6.466  18.506  0.00  0.00    +0.000 A 
ATOM     23  F   UNL     1       8.447   7.229  19.201  0.00  0.00    +0.000 F 
ATOM     24  C   UNL     1       6.852   5.494  19.160  0.00  0.00    +0.000 A 
ATOM     25  C   UNL     1       5.940   4.691  18.447  0.00  0.00    +0.000 A 
BRANCH  19  27
ATOM     26  C   UNL     1       5.006   3.994  14.999  0.00  0.00    +0.000 C 
ATOM     27  O   UNL     1       4.889   4.086  16.416  0.00  0.00    +0.000 OA
ENDBRANCH  19  27
ENDBRANCH  18  25
ENDBRANCH  16  18
ENDBRANCH  15  16
ENDBRANCH  14  15
ENDBRANCH  13  14
ENDBRANCH  11  13
ENDBRANCH   1  11
BRANCH   7  28
ATOM     28  O   UNL     1      -0.636  11.630  21.040  0.00  0.00    +0.000 OA
BRANCH  28  29
ATOM     29  C   UNL     1      -0.196  12.814  20.488  0.00  0.00    +0.000 A 
ATOM     30  C   UNL     1      -0.730  13.372  19.322  0.00  0.00    +0.000 A 
ATOM     31  C   UNL     1      -0.161  14.520  18.771  0.00  0.00    +0.000 A 
ATOM     32  C   UNL     1       0.891  15.151  19.429  0.00  0.00    +0.000 A 
ATOM     33 CL   UNL     1       1.610  16.551  18.735  0.00  0.00    +0.000 Cl
ATOM     34  C   UNL     1       1.365  14.655  20.643  0.00  0.00    +0.000 A 
ATOM     35  C   UNL     1       0.820  13.483  21.174  0.00  0.00    +0.000 A 
ENDBRANCH  28  29
ENDBRANCH   7  28
TORSDOF 10
ENDMDL
MODEL 8
REMARK VINA RESULT:      -7.5      1.706      1.926
REMARK  Name = 
REMARK  11 active torsions:
REMARK  status: ('A' for Active; 'I' for Inactive)
REMARK    1  A    between atoms: C_1  and  O_2
REMARK    2  A    between atoms: O_2  and  C_3
REMARK    3  A    between atoms: C_9  and  C_10
REMARK    4  A    between atoms: C_10  and  N_11
REMARK    5  A    between atoms: N_11  and  C_12
REMARK    6  A    between atoms: C_12  and  C_13
REMARK    7  A    between atoms: C_13  and  C_14
REMARK    8  A    between atoms: C_14  and  N_15
REMARK    9  A    between atoms: N_15  and  C_16
REMARK   10  A    between atoms: C_22  and  O_23
REMARK   11  A    between atoms: O_23  and  C_24
REMARK                            x       y       z     vdW  Elec       q    Type
REMARK                         _______ _______ _______ _____ _____    ______ ____
ROOT
ATOM      1  C   UNL     1       2.032   7.506  19.795  0.00  0.00    +0.000 A 
ATOM      2  C   UNL     1       2.738   7.272  18.614  0.00  0.00    +0.000 A 
ATOM      3  C   UNL     1       2.708   8.216  17.606  0.00  0.00    +0.000 A 
ATOM      4  N   UNL     1       2.012   9.365  17.671  0.00  0.00    +0.000 NA
ATOM      5  C   UNL     1       1.283   9.589  18.772  0.00  0.00    +0.000 A 
ATOM      6  C   UNL     1       0.544  10.764  18.825  0.00  0.00    +0.000 A 
ATOM      7  C   UNL     1      -0.256  11.077  19.921  0.00  0.00    +0.000 A 
ATOM      8  C   UNL     1      -0.377  10.160  20.961  0.00  0.00    +0.000 A 
ATOM      9  C   UNL     1       0.393   8.997  20.952  0.00  0.00    +0.000 A 
ATOM     10  C   UNL     1       1.248   8.691  19.867  0.00  0.00    +0.000 A 
ENDROOT
BRANCH   1  11
ATOM     11  N   UNL     1       2.004   6.567  20.846  0.00  0.00    +0.000 N 
ATOM     12  H   UNL     1       2.300   6.990  21.724  0.00  0.00    +0.000 HD
BRANCH  11  13
ATOM     13  C   UNL     1       2.540   5.226  20.628  0.00  0.00    +0.000 C 
BRANCH  13  14
ATOM     14  C   UNL     1       1.447   4.280  20.141  0.00  0.00    +0.000 C 
BRANCH  14  15
ATOM     15  C   UNL     1       1.796   3.739  18.752  0.00  0.00    +0.000 C 
BRANCH  15  16
ATOM     16  N   UNL     1       3.194   3.328  18.732  0.00  0.00    +0.000 NA
ATOM     17  H   UNL     1       3.740   3.915  19.364  0.00  0.00    +0.000 HD
BRANCH  16  18
ATOM     18  C   UNL     1       3.780   3.434  17.393  0.00  0.00    +0.000 C 
BRANCH  18  25
ATOM     19  C   UNL     1       5.675   4.752  16.274  0.00  0.00    +0.000 A 
ATOM     20  C   UNL     1       6.823   5.551  16.391  0.00  0.00    +0.000 A 
ATOM     21  C   UNL     1       7.332   5.881  17.649  0.00  0.00    +0.000 A 
ATOM     22  C   UNL     1       6.696   5.419  18.790  0.00  0.00    +0.000 A 
ATOM     23  F   UNL     1       7.182   5.742  19.996  0.00  0.00    +0.000 F 
ATOM     24  C   UNL     1       5.558   4.632  18.696  0.00  0.00    +0.000 A 
ATOM     25  C   UNL     1       5.026   4.293  17.437  0.00  0.00    +0.000 A 
BRANCH  19  27
ATOM     26  C   UNL     1       5.991   3.991  14.042  0.00  0.00    +0.000 C 
ATOM     27  O   UNL     1       5.104   4.412  15.075  0.00  0.00    +0.000 OA
ENDBRANCH  19  27
ENDBRANCH  18  25
ENDBRANCH  16  18
ENDBRANCH  15  16
ENDBRANCH  14  15
ENDBRANCH  13  14
ENDBRANCH  11  13
ENDBRANCH   1  11
BRANCH   7  28
ATOM     28  O   UNL     1      -0.921  12.285  19.866  0.00  0.00    +0.000 OA
BRANCH  28  29
ATOM     29  C   UNL     1      -0.842  13.144  20.940  0.00  0.00    +0.000 A 
ATOM     30  C   UNL     1      -1.893  13.364  21.837  0.00  0.00    +0.000 A 
ATOM     31  C   UNL     1      -1.769  14.326  22.839  0.00  0.00    +0.000 A 
ATOM     32  C   UNL     1      -0.566  15.011  22.991  0.00  0.00    +0.000 A 
ATOM     33 CL   UNL     1      -0.422  16.217  24.209  0.00  0.00    +0.000 Cl
ATOM     34  C   UNL     1       0.519  14.728  22.161  0.00  0.00    +0.000 A 
ATOM     35  C   UNL     1       0.380  13.791  21.133  0.00  0.00    +0.000 A 
ENDBRANCH  28  29
ENDBRANCH   7  28
TORSDOF 10
ENDMDL
MODEL 9
REMARK VINA RESULT:      -7.5      0.695      1.087
REMARK  Name = 
REMARK  11 active torsions:
REMARK  status: ('A' for Active; 'I' for Inactive)
REMARK    1  A    between atoms: C_1  and  O_2
REMARK    2  A    between atoms: O_2  and  C_3
REMARK    3  A    between atoms: C_9  and  C_10
REMARK    4  A    between atoms: C_10  and  N_11
REMARK    5  A    between atoms: N_11  and  C_12
REMARK    6  A    between atoms: C_12  and  C_13
REMARK    7  A    between atoms: C_13  and  C_14
REMARK    8  A    between atoms: C_14  and  N_15
REMARK    9  A    between atoms: N_15  and  C_16
REMARK   10  A    between atoms: C_22  and  O_23
REMARK   11  A    between atoms: O_23  and  C_24
REMARK                            x       y       z     vdW  Elec       q    Type
REMARK                         _______ _______ _______ _____ _____    ______ ____
ROOT
ATOM      1  C   UNL     1       1.934   7.272  19.959  0.00  0.00    +0.000 A 
ATOM      2  C   UNL     1       2.325   7.279  18.619  0.00  0.00    +0.000 A 
ATOM      3  C   UNL     1       2.215   8.444  17.886  0.00  0.00    +0.000 A 
ATOM      4  N   UNL     1       1.726   9.598  18.374  0.00  0.00    +0.000 NA
ATOM      5  C   UNL     1       1.293   9.603  19.642  0.00  0.00    +0.000 A 
ATOM      6  C   UNL     1       0.763  10.788  20.135  0.00  0.00    +0.000 A 
ATOM      7  C   UNL     1       0.274  10.887  21.435  0.00  0.00    +0.000 A 
ATOM      8  C   UNL     1       0.250   9.753  22.242  0.00  0.00    +0.000 A 
ATOM      9  C   UNL     1       0.821   8.565  21.785  0.00  0.00    +0.000 A 
ATOM     10  C   UNL     1       1.366   8.466  20.483  0.00  0.00    +0.000 A 
ENDROOT
BRANCH   1  11
ATOM     11  N   UNL     1       1.998   6.105  20.748  0.00  0.00    +0.000 N 
ATOM     12  H   UNL     1       2.964   5.821  20.906  0.00  0.00    +0.000 HD
BRANCH  11  13
ATOM     13  C   UNL     1       1.097   4.992  20.462  0.00  0.00    +0.000 C 
BRANCH  13  14
ATOM     14  C   UNL     1       1.794   3.657  20.712  0.00  0.00    +0.000 C 
BRANCH  14  15
ATOM     15  C   UNL     1       3.213   3.686  20.139  0.00  0.00    +0.000 C 
BRANCH  15  16
ATOM     16  N   UNL     1       3.178   3.266  18.744  0.00  0.00    +0.000 NA
ATOM     17  H   UNL     1       3.854   2.518  18.586  0.00  0.00    +0.000 HD
BRANCH  16  18
ATOM     18  C   UNL     1       3.498   4.367  17.830  0.00  0.00    +0.000 C 
BRANCH  18  25
ATOM     19  C   UNL     1       5.800   4.343  16.698  0.00  0.00    +0.000 A 
ATOM     20  C   UNL     1       7.177   4.606  16.757  0.00  0.00    +0.000 A 
ATOM     21  C   UNL     1       7.752   5.122  17.921  0.00  0.00    +0.000 A 
ATOM     22  C   UNL     1       6.955   5.379  19.024  0.00  0.00    +0.000 A 
ATOM     23  F   UNL     1       7.506   5.879  20.137  0.00  0.00    +0.000 F 
ATOM     24  C   UNL     1       5.591   5.130  18.985  0.00  0.00    +0.000 A 
ATOM     25  C   UNL     1       4.992   4.616  17.819  0.00  0.00    +0.000 A 
BRANCH  19  27
ATOM     26  C   UNL     1       5.736   4.209  14.324  0.00  0.00    +0.000 C 
ATOM     27  O   UNL     1       5.165   3.864  15.582  0.00  0.00    +0.000 OA
ENDBRANCH  19  27
ENDBRANCH  18  25
ENDBRANCH  16  18
ENDBRANCH  15  16
ENDBRANCH  14  15
ENDBRANCH  13  14
ENDBRANCH  11  13
ENDBRANCH   1  11
BRANCH   7  28
ATOM     28  O   UNL     1      -0.203  12.124  21.815  0.00  0.00    +0.000 OA
BRANCH  28  29
ATOM     29  C   UNL     1      -1.562  12.309  21.942  0.00  0.00    +0.000 A 
ATOM     30  C   UNL     1      -2.418  12.544  20.861  0.00  0.00    +0.000 A 
ATOM     31  C   UNL     1      -3.766  12.823  21.083  0.00  0.00    +0.000 A 
ATOM     32  C   UNL     1      -4.273  12.789  22.380  0.00  0.00    +0.000 A 
ATOM     33 CL   UNL     1      -5.930  13.160  22.655  0.00  0.00    +0.000 Cl
ATOM     34  C   UNL     1      -3.446  12.460  23.453  0.00  0.00    +0.000 A 
ATOM     35  C   UNL     1      -2.087  12.219  23.234  0.00  0.00    +0.000 A 
ENDBRANCH  28  29
ENDBRANCH   7  28
TORSDOF 10
ENDMDL
