MODEL 1
REMARK VINA RESULT:      -9.7      0.000      0.000
REMARK  Name = 
REMARK  5 active torsions:
REMARK  status: ('A' for Active; 'I' for Inactive)
REMARK    1  A    between atoms: C_4  and  O_5
REMARK    2  A    between atoms: O_5  and  C_6
REMARK    3  A    between atoms: C_6  and  C_7
REMARK    4  A    between atoms: C_18  and  O_19
REMARK    5  A    between atoms: O_19  and  C_20
REMARK                            x       y       z     vdW  Elec       q    Type
REMARK                         _______ _______ _______ _____ _____    ______ ____
ROOT
ATOM      1  O   UNL     1       7.971   5.276  20.119  0.00  0.00    +0.000 OA
ATOM      2  C   UNL     1       7.546   5.899  19.150  0.00  0.00    +0.000 A 
ATOM      3  C   UNL     1       8.175   7.176  18.793  0.00  0.00    +0.000 A 
ATOM      4  C   UNL     1       7.694   7.870  17.762  0.00  0.00    +0.000 A 
ATOM      5  N   UNL     1       6.615   7.472  17.021  0.00  0.00    +0.000 NA
ATOM      6  C   UNL     1       6.046   6.351  17.335  0.00  0.00    +0.000 A 
ATOM      7  C   UNL     1       4.846   5.911  16.565  0.00  0.00    +0.000 A 
ATOM      8  C   UNL     1       4.213   4.781  16.904  0.00  0.00    +0.000 A 
ATOM      9  C   UNL     1       4.686   3.975  18.003  0.00  0.00    +0.000 A 
ATOM     10  C   UNL     1       5.817   4.330  18.638  0.00  0.00    +0.000 A 
ATOM     11  N   UNL     1       6.478   5.516  18.352  0.00  0.00    +0.000 N 
ENDROOT
BRANCH   4  12
ATOM     12  O   UNL     1       8.325   9.067  17.463  0.00  0.00    +0.000 OA
BRANCH  12  13
ATOM     13  C   UNL     1       8.914   9.687  18.610  0.00  0.00    +0.000 C 
BRANCH  13  14
ATOM     14  C   UNL     1       9.409  11.070  18.255  0.00  0.00    +0.000 A 
ATOM     15  C   UNL     1      10.752  11.260  17.893  0.00  0.00    +0.000 A 
ATOM     16  C   UNL     1      11.216  12.517  17.508  0.00  0.00    +0.000 A 
ATOM     17  C   UNL     1      10.341  13.602  17.473  0.00  0.00    +0.000 A 
ATOM     18  C   UNL     1       9.003  13.422  17.818  0.00  0.00    +0.000 A 
ATOM     19 CL   UNL     1       7.920  14.758  17.761  0.00  0.00    +0.000 Cl
ATOM     20  C   UNL     1       8.533  12.167  18.200  0.00  0.00    +0.000 A 
ENDBRANCH  13  14
ENDBRANCH  12  13
ENDBRANCH   4  12
BRANCH   9  21
ATOM     21  O   UNL     1       3.904   2.866  18.281  0.00  0.00    +0.000 OA
BRANCH  21  22
ATOM     22  C   UNL     1       3.034   2.900  19.342  0.00  0.00    +0.000 A 
ATOM     23  C   UNL     1       1.693   3.273  19.242  0.00  0.00    +0.000 A 
ATOM     24  C   UNL     1       0.914   3.341  20.393  0.00  0.00    +0.000 A 
ATOM     25  C   UNL     1       1.489   2.975  21.597  0.00  0.00    +0.000 A 
ATOM     26  N   UNL     1       2.764   2.544  21.721  0.00  0.00    +0.000 NA
ATOM     27  C   UNL     1       3.507   2.514  20.587  0.00  0.00    +0.000 A 
ENDBRANCH  21  22
ENDBRANCH   9  21
TORSDOF 5
ENDMDL
MODEL 2
REMARK VINA RESULT:      -9.5      1.292      1.491
REMARK  Name = 
REMARK  5 active torsions:
REMARK  status: ('A' for Active; 'I' for Inactive)
REMARK    1  A    between atoms: C_4  and  O_5
REMARK    2  A    between atoms: O_5  and  C_6
REMARK    3  A    between atoms: C_6  and  C_7
REMARK    4  A    between atoms: C_18  and  O_19
REMARK    5  A    between atoms: O_19  and  C_20
REMARK                            x       y       z     vdW  Elec       q    Type
REMARK                         _______ _______ _______ _____ _____    ______ ____
ROOT
ATOM      1  O   UNL     1       8.121   5.281  19.935  0.00  0.00    +0.000 OA
ATOM      2  C   UNL     1       7.773   6.032  19.026  0.00  0.00    +0.000 A 
ATOM      3  C   UNL     1       8.405   7.351  18.913  0.00  0.00    +0.000 A 
ATOM      4  C   UNL     1       8.006   8.181  17.950  0.00  0.00    +0.000 A 
ATOM      5  N   UNL     1       7.008   7.884  17.062  0.00  0.00    +0.000 NA
ATOM      6  C   UNL     1       6.437   6.725  17.160  0.00  0.00    +0.000 A 
ATOM      7  C   UNL     1       5.322   6.390  16.228  0.00  0.00    +0.000 A 
ATOM      8  C   UNL     1       4.684   5.218  16.344  0.00  0.00    +0.000 A 
ATOM      9  C   UNL     1       5.071   4.268  17.358  0.00  0.00    +0.000 A 
ATOM     10  C   UNL     1       6.132   4.538  18.140  0.00  0.00    +0.000 A 
ATOM     11  N   UNL     1       6.791   5.758  18.087  0.00  0.00    +0.000 N 
ENDROOT
BRANCH   4  12
ATOM     12  O   UNL     1       8.636   9.413  17.882  0.00  0.00    +0.000 OA
BRANCH  12  13
ATOM     13  C   UNL     1       8.965   9.942  19.170  0.00  0.00    +0.000 C 
BRANCH  13  14
ATOM     14  C   UNL     1       9.993  11.040  19.034  0.00  0.00    +0.000 A 
ATOM     15  C   UNL     1      10.785  11.396  20.137  0.00  0.00    +0.000 A 
ATOM     16  C   UNL     1      11.778  12.368  20.018  0.00  0.00    +0.000 A 
ATOM     17  C   UNL     1      11.999  12.992  18.791  0.00  0.00    +0.000 A 
ATOM     18  C   UNL     1      11.229  12.636  17.686  0.00  0.00    +0.000 A 
ATOM     19 CL   UNL     1      11.512  13.395  16.168  0.00  0.00    +0.000 Cl
ATOM     20  C   UNL     1      10.237  11.664  17.799  0.00  0.00    +0.000 A 
ENDBRANCH  13  14
ENDBRANCH  12  13
ENDBRANCH   4  12
BRANCH   9  21
ATOM     21  O   UNL     1       4.291   3.125  17.403  0.00  0.00    +0.000 OA
BRANCH  21  22
ATOM     22  C   UNL     1       3.268   3.039  18.314  0.00  0.00    +0.000 A 
ATOM     23  C   UNL     1       1.971   2.630  17.998  0.00  0.00    +0.000 A 
ATOM     24  C   UNL     1       0.989   2.645  18.984  0.00  0.00    +0.000 A 
ATOM     25  C   UNL     1       1.353   3.012  20.268  0.00  0.00    +0.000 A 
ATOM     26  N   UNL     1       2.614   3.348  20.624  0.00  0.00    +0.000 NA
ATOM     27  C   UNL     1       3.543   3.351  19.637  0.00  0.00    +0.000 A 
ENDBRANCH  21  22
ENDBRANCH   9  21
TORSDOF 5
ENDMDL
MODEL 3
REMARK VINA RESULT:      -9.4      1.334      1.421
REMARK  Name = 
REMARK  5 active torsions:
REMARK  status: ('A' for Active; 'I' for Inactive)
REMARK    1  A    between atoms: C_4  and  O_5
REMARK    2  A    between atoms: O_5  and  C_6
REMARK    3  A    between atoms: C_6  and  C_7
REMARK    4  A    between atoms: C_18  and  O_19
REMARK    5  A    between atoms: O_19  and  C_20
REMARK                            x       y       z     vdW  Elec       q    Type
REMARK                         _______ _______ _______ _____ _____    ______ ____
ROOT
ATOM      1  O   UNL     1       7.757   5.318  20.237  0.00  0.00    +0.000 OA
ATOM      2  C   UNL     1       7.447   5.840  19.169  0.00  0.00    +0.000 A 
ATOM      3  C   UNL     1       8.152   7.052  18.738  0.00  0.00    +0.000 A 
ATOM      4  C   UNL     1       7.794   7.640  17.597  0.00  0.00    +0.000 A 
ATOM      5  N   UNL     1       6.775   7.191  16.803  0.00  0.00    +0.000 NA
ATOM      6  C   UNL     1       6.140   6.127  17.180  0.00  0.00    +0.000 A 
ATOM      7  C   UNL     1       5.001   5.636  16.350  0.00  0.00    +0.000 A 
ATOM      8  C   UNL     1       4.298   4.567  16.746  0.00  0.00    +0.000 A 
ATOM      9  C   UNL     1       4.637   3.876  17.967  0.00  0.00    +0.000 A 
ATOM     10  C   UNL     1       5.717   4.269  18.666  0.00  0.00    +0.000 A 
ATOM     11  N   UNL     1       6.445   5.399  18.318  0.00  0.00    +0.000 N 
ENDROOT
BRANCH   4  12
ATOM     12  O   UNL     1       8.494   8.780  17.233  0.00  0.00    +0.000 OA
BRANCH  12  13
ATOM     13  C   UNL     1       7.999   9.964  17.865  0.00  0.00    +0.000 C 
BRANCH  13  14
ATOM     14  C   UNL     1       9.125  10.688  18.565  0.00  0.00    +0.000 A 
ATOM     15  C   UNL     1      10.325  10.939  17.882  0.00  0.00    +0.000 A 
ATOM     16  C   UNL     1      11.355  11.655  18.492  0.00  0.00    +0.000 A 
ATOM     17  C   UNL     1      11.197  12.137  19.790  0.00  0.00    +0.000 A 
ATOM     18  C   UNL     1      10.005  11.905  20.472  0.00  0.00    +0.000 A 
ATOM     19 CL   UNL     1       9.802  12.512  22.069  0.00  0.00    +0.000 Cl
ATOM     20  C   UNL     1       8.970  11.193  19.867  0.00  0.00    +0.000 A 
ENDBRANCH  13  14
ENDBRANCH  12  13
ENDBRANCH   4  12
BRANCH   9  21
ATOM     21  O   UNL     1       3.793   2.826  18.286  0.00  0.00    +0.000 OA
BRANCH  21  22
ATOM     22  C   UNL     1       2.975   2.925  19.383  0.00  0.00    +0.000 A 
ATOM     23  C   UNL     1       1.686   3.461  19.352  0.00  0.00    +0.000 A 
ATOM     24  C   UNL     1       0.965   3.579  20.536  0.00  0.00    +0.000 A 
ATOM     25  C   UNL     1       1.536   3.102  21.703  0.00  0.00    +0.000 A 
ATOM     26  N   UNL     1       2.753   2.515  21.759  0.00  0.00    +0.000 NA
ATOM     27  C   UNL     1       3.443   2.438  20.594  0.00  0.00    +0.000 A 
ENDBRANCH  21  22
ENDBRANCH   9  21
TORSDOF 5
ENDMDL
MODEL 4
REMARK VINA RESULT:      -9.2      1.031      1.304
REMARK  Name = 
REMARK  5 active torsions:
REMARK  status: ('A' for Active; 'I' for Inactive)
REMARK    1  A    between atoms: C_4  and  O_5
REMARK    2  A    between atoms: O_5  and  C_6
REMARK    3  A    between atoms: C_6  and  C_7
REMARK    4  A    between atoms: C_18  and  O_19
REMARK    5  A    between atoms: O_19  and  C_20
REMARK                            x       y       z     vdW  Elec       q    Type
REMARK                         _______ _______ _______ _____ _____    ______ ____
ROOT
ATOM      1  O   UNL     1       7.780   5.288  20.195  0.00  0.00    +0.000 OA
ATOM      2  C   UNL     1       7.435   5.907  19.192  0.00  0.00    +0.000 A 
ATOM      3  C   UNL     1       8.108   7.170  18.868  0.00  0.00    +0.000 A 
ATOM      4  C   UNL     1       7.712   7.861  17.800  0.00  0.00    +0.000 A 
ATOM      5  N   UNL     1       6.682   7.472  16.988  0.00  0.00    +0.000 NA
ATOM      6  C   UNL     1       6.075   6.363  17.271  0.00  0.00    +0.000 A 
ATOM      7  C   UNL     1       4.925   5.934  16.422  0.00  0.00    +0.000 A 
ATOM      8  C   UNL     1       4.251   4.818  16.726  0.00  0.00    +0.000 A 
ATOM      9  C   UNL     1       4.632   4.016  17.863  0.00  0.00    +0.000 A 
ATOM     10  C   UNL     1       5.722   4.359  18.574  0.00  0.00    +0.000 A 
ATOM     11  N   UNL     1       6.420   5.533  18.324  0.00  0.00    +0.000 N 
ENDROOT
BRANCH   4  12
ATOM     12  O   UNL     1       8.383   9.045  17.535  0.00  0.00    +0.000 OA
BRANCH  12  13
ATOM     13  C   UNL     1       8.888   9.675  18.716  0.00  0.00    +0.000 C 
BRANCH  13  14
ATOM     14  C   UNL     1       9.330  11.085  18.403  0.00  0.00    +0.000 A 
ATOM     15  C   UNL     1       8.511  11.918  17.625  0.00  0.00    +0.000 A 
ATOM     16  C   UNL     1       8.875  13.240  17.372  0.00  0.00    +0.000 A 
ATOM     17  C   UNL     1      10.060  13.751  17.900  0.00  0.00    +0.000 A 
ATOM     18  C   UNL     1      10.873  12.937  18.685  0.00  0.00    +0.000 A 
ATOM     19 CL   UNL     1      12.328  13.571  19.349  0.00  0.00    +0.000 Cl
ATOM     20  C   UNL     1      10.514  11.615  18.944  0.00  0.00    +0.000 A 
ENDBRANCH  13  14
ENDBRANCH  12  13
ENDBRANCH   4  12
BRANCH   9  21
ATOM     21  O   UNL     1       3.815   2.923  18.095  0.00  0.00    +0.000 OA
BRANCH  21  22
ATOM     22  C   UNL     1       2.912   2.959  19.129  0.00  0.00    +0.000 A 
ATOM     23  C   UNL     1       1.710   3.669  19.092  0.00  0.00    +0.000 A 
ATOM     24  C   UNL     1       0.898   3.697  20.221  0.00  0.00    +0.000 A 
ATOM     25  C   UNL     1       1.288   2.965  21.329  0.00  0.00    +0.000 A 
ATOM     26  N   UNL     1       2.411   2.212  21.375  0.00  0.00    +0.000 NA
ATOM     27  C   UNL     1       3.196   2.225  20.270  0.00  0.00    +0.000 A 
ENDBRANCH  21  22
ENDBRANCH   9  21
TORSDOF 5
ENDMDL
MODEL 5
REMARK VINA RESULT:      -9.1      1.323      1.525
REMARK  Name = 
REMARK  5 active torsions:
REMARK  status: ('A' for Active; 'I' for Inactive)
REMARK    1  A    between atoms: C_4  and  O_5
REMARK    2  A    between atoms: O_5  and  C_6
REMARK    3  A    between atoms: C_6  and  C_7
REMARK    4  A    between atoms: C_18  and  O_19
REMARK    5  A    between atoms: O_19  and  C_20
REMARK                            x       y       z     vdW  Elec       q    Type
REMARK                         _______ _______ _______ _____ _____    ______ ____
ROOT
ATOM      1  O   UNL     1       8.183   5.206  19.904  0.00  0.00    +0.000 OA
ATOM      2  C   UNL     1       7.776   5.966  19.028  0.00  0.00    +0.000 A 
ATOM      3  C   UNL     1       8.409   7.281  18.878  0.00  0.00    +0.000 A 
ATOM      4  C   UNL     1       7.947   8.121  17.952  0.00  0.00    +0.000 A 
ATOM      5  N   UNL     1       6.884   7.837  17.138  0.00  0.00    +0.000 NA
ATOM      6  C   UNL     1       6.313   6.682  17.270  0.00  0.00    +0.000 A 
ATOM      7  C   UNL     1       5.130   6.362  16.419  0.00  0.00    +0.000 A 
ATOM      8  C   UNL     1       4.493   5.194  16.573  0.00  0.00    +0.000 A 
ATOM      9  C   UNL     1       4.946   4.234  17.550  0.00  0.00    +0.000 A 
ATOM     10  C   UNL     1       6.063   4.490  18.255  0.00  0.00    +0.000 A 
ATOM     11  N   UNL     1       6.726   5.706  18.161  0.00  0.00    +0.000 N 
ENDROOT
BRANCH   4  12
ATOM     12  O   UNL     1       8.581   9.349  17.847  0.00  0.00    +0.000 OA
BRANCH  12  13
ATOM     13  C   UNL     1       9.021   9.858  19.108  0.00  0.00    +0.000 C 
BRANCH  13  14
ATOM     14  C   UNL     1       9.820  11.125  18.907  0.00  0.00    +0.000 A 
ATOM     15  C   UNL     1      10.428  11.377  17.668  0.00  0.00    +0.000 A 
ATOM     16  C   UNL     1      11.122  12.566  17.444  0.00  0.00    +0.000 A 
ATOM     17  C   UNL     1      11.211  13.522  18.454  0.00  0.00    +0.000 A 
ATOM     18  C   UNL     1      10.600  13.288  19.683  0.00  0.00    +0.000 A 
ATOM     19 CL   UNL     1      10.697  14.474  20.926  0.00  0.00    +0.000 Cl
ATOM     20  C   UNL     1       9.902  12.103  19.912  0.00  0.00    +0.000 A 
ENDBRANCH  13  14
ENDBRANCH  12  13
ENDBRANCH   4  12
BRANCH   9  21
ATOM     21  O   UNL     1       4.162   3.096  17.644  0.00  0.00    +0.000 OA
BRANCH  21  22
ATOM     22  C   UNL     1       3.203   3.015  18.623  0.00  0.00    +0.000 A 
ATOM     23  C   UNL     1       3.483   2.869  19.983  0.00  0.00    +0.000 A 
ATOM     24  C   UNL     1       2.435   2.726  20.886  0.00  0.00    +0.000 A 
ATOM     25  C   UNL     1       1.140   2.793  20.405  0.00  0.00    +0.000 A 
ATOM     26  N   UNL     1       0.831   3.001  19.105  0.00  0.00    +0.000 NA
ATOM     27  C   UNL     1       1.872   3.110  18.244  0.00  0.00    +0.000 A 
ENDBRANCH  21  22
ENDBRANCH   9  21
TORSDOF 5
ENDMDL
MODEL 6
REMARK VINA RESULT:      -8.9      0.942      1.188
REMARK  Name = 
REMARK  5 active torsions:
REMARK  status: ('A' for Active; 'I' for Inactive)
REMARK    1  A    between atoms: C_4  and  O_5
REMARK    2  A    between atoms: O_5  and  C_6
REMARK    3  A    between atoms: C_6  and  C_7
REMARK    4  A    between atoms: C_18  and  O_19
REMARK    5  A    between atoms: O_19  and  C_20
REMARK                            x       y       z     vdW  Elec       q    Type
REMARK                         _______ _______ _______ _____ _____    ______ ____
ROOT
ATOM      1  O   UNL     1       8.256   5.165  19.698  0.00  0.00    +0.000 OA
ATOM      2  C   UNL     1       7.663   5.892  18.906  0.00  0.00    +0.000 A 
ATOM      3  C   UNL     1       8.206   7.225  18.619  0.00  0.00    +0.000 A 
ATOM      4  C   UNL     1       7.546   8.029  17.786  0.00  0.00    +0.000 A 
ATOM      5  N   UNL     1       6.360   7.693  17.192  0.00  0.00    +0.000 NA
ATOM      6  C   UNL     1       5.867   6.522  17.447  0.00  0.00    +0.000 A 
ATOM      7  C   UNL     1       4.557   6.144  16.841  0.00  0.00    +0.000 A 
ATOM      8  C   UNL     1       4.005   4.959  17.130  0.00  0.00    +0.000 A 
ATOM      9  C   UNL     1       4.670   4.035  18.017  0.00  0.00    +0.000 A 
ATOM     10  C   UNL     1       5.890   4.344  18.492  0.00  0.00    +0.000 A 
ATOM     11  N   UNL     1       6.478   5.579  18.257  0.00  0.00    +0.000 N 
ENDROOT
BRANCH   4  12
ATOM     12  O   UNL     1       8.102   9.275  17.545  0.00  0.00    +0.000 OA
BRANCH  12  13
ATOM     13  C   UNL     1       9.288   9.513  18.308  0.00  0.00    +0.000 C 
BRANCH  13  14
ATOM     14  C   UNL     1       9.203  10.855  18.996  0.00  0.00    +0.000 A 
ATOM     15  C   UNL     1       9.382  10.940  20.386  0.00  0.00    +0.000 A 
ATOM     16  C   UNL     1       9.363  12.176  21.032  0.00  0.00    +0.000 A 
ATOM     17  C   UNL     1       9.173  13.345  20.297  0.00  0.00    +0.000 A 
ATOM     18  C   UNL     1       9.008  13.273  18.916  0.00  0.00    +0.000 A 
ATOM     19 CL   UNL     1       8.787  14.716  18.006  0.00  0.00    +0.000 Cl
ATOM     20  C   UNL     1       9.028  12.041  18.263  0.00  0.00    +0.000 A 
ENDBRANCH  13  14
ENDBRANCH  12  13
ENDBRANCH   4  12
BRANCH   9  21
ATOM     21  O   UNL     1       3.961   2.874  18.274  0.00  0.00    +0.000 OA
BRANCH  21  22
ATOM     22  C   UNL     1       3.084   2.836  19.330  0.00  0.00    +0.000 A 
ATOM     23  C   UNL     1       1.709   3.049  19.212  0.00  0.00    +0.000 A 
ATOM     24  C   UNL     1       0.918   3.058  20.356  0.00  0.00    +0.000 A 
ATOM     25  C   UNL     1       1.521   2.794  21.574  0.00  0.00    +0.000 A 
ATOM     26  N   UNL     1       2.837   2.517  21.716  0.00  0.00    +0.000 NA
ATOM     27  C   UNL     1       3.588   2.542  20.588  0.00  0.00    +0.000 A 
ENDBRANCH  21  22
ENDBRANCH   9  21
TORSDOF 5
ENDMDL
MODEL 7
REMARK VINA RESULT:      -8.2      7.969     10.409
REMARK  Name = 
REMARK  5 active torsions:
REMARK  status: ('A' for Active; 'I' for Inactive)
REMARK    1  A    between atoms: C_4  and  O_5
REMARK    2  A    between atoms: O_5  and  C_6
REMARK    3  A    between atoms: C_6  and  C_7
REMARK    4  A    between atoms: C_18  and  O_19
REMARK    5  A    between atoms: O_19  and  C_20
REMARK                            x       y       z     vdW  Elec       q    Type
REMARK                         _______ _______ _______ _____ _____    ______ ____
ROOT
ATOM      1  O   UNL     1       0.994  12.181  18.576  0.00  0.00    +0.000 OA
ATOM      2  C   UNL     1       1.051  11.090  19.138  0.00  0.00    +0.000 A 
ATOM      3  C   UNL     1       1.629   9.949  18.419  0.00  0.00    +0.000 A 
ATOM      4  C   UNL     1       1.660   8.756  19.013  0.00  0.00    +0.000 A 
ATOM      5  N   UNL     1       1.153   8.521  20.262  0.00  0.00    +0.000 NA
ATOM      6  C   UNL     1       0.632   9.520  20.901  0.00  0.00    +0.000 A 
ATOM      7  C   UNL     1       0.040   9.283  22.250  0.00  0.00    +0.000 A 
ATOM      8  C   UNL     1      -0.549  10.290  22.907  0.00  0.00    +0.000 A 
ATOM      9  C   UNL     1      -0.610  11.610  22.327  0.00  0.00    +0.000 A 
ATOM     10  C   UNL     1      -0.000  11.839  21.150  0.00  0.00    +0.000 A 
ATOM     11  N   UNL     1       0.580  10.815  20.413  0.00  0.00    +0.000 N 
ENDROOT
BRANCH   4  12
ATOM     12  O   UNL     1       2.220   7.712  18.295  0.00  0.00    +0.000 OA
BRANCH  12  13
ATOM     13  C   UNL     1       2.957   6.802  19.116  0.00  0.00    +0.000 C 
BRANCH  13  14
ATOM     14  C   UNL     1       2.285   5.450  19.126  0.00  0.00    +0.000 A 
ATOM     15  C   UNL     1       1.921   4.842  17.913  0.00  0.00    +0.000 A 
ATOM     16  C   UNL     1       1.350   3.570  17.897  0.00  0.00    +0.000 A 
ATOM     17  C   UNL     1       1.142   2.883  19.092  0.00  0.00    +0.000 A 
ATOM     18  C   UNL     1       1.512   3.471  20.300  0.00  0.00    +0.000 A 
ATOM     19 CL   UNL     1       1.269   2.618  21.774  0.00  0.00    +0.000 Cl
ATOM     20  C   UNL     1       2.086   4.741  20.322  0.00  0.00    +0.000 A 
ENDBRANCH  13  14
ENDBRANCH  12  13
ENDBRANCH   4  12
BRANCH   9  21
ATOM     21  O   UNL     1      -1.298  12.541  23.087  0.00  0.00    +0.000 OA
BRANCH  21  22
ATOM     22  C   UNL     1      -2.645  12.712  22.890  0.00  0.00    +0.000 A 
ATOM     23  C   UNL     1      -3.201  13.294  21.749  0.00  0.00    +0.000 A 
ATOM     24  C   UNL     1      -4.578  13.484  21.679  0.00  0.00    +0.000 A 
ATOM     25  C   UNL     1      -5.357  13.032  22.730  0.00  0.00    +0.000 A 
ATOM     26  N   UNL     1      -4.859  12.403  23.819  0.00  0.00    +0.000 NA
ATOM     27  C   UNL     1      -3.513  12.256  23.871  0.00  0.00    +0.000 A 
ENDBRANCH  21  22
ENDBRANCH   9  21
TORSDOF 5
ENDMDL
MODEL 8
REMARK VINA RESULT:      -8.1      1.349      1.592
REMARK  Name = 
REMARK  5 active torsions:
REMARK  status: ('A' for Active; 'I' for Inactive)
REMARK    1  A    between atoms: C_4  and  O_5
REMARK    2  A    between atoms: O_5  and  C_6
REMARK    3  A    between atoms: C_6  and  C_7
REMARK    4  A    between atoms: C_18  and  O_19
REMARK    5  A    between atoms: O_19  and  C_20
REMARK                            x       y       z     vdW  Elec       q    Type
REMARK                         _______ _______ _______ _____ _____    ______ ____
ROOT
ATOM      1  O   UNL     1       8.039   4.998  19.686  0.00  0.00    +0.000 OA
ATOM      2  C   UNL     1       7.782   5.901  18.894  0.00  0.00    +0.000 A 
ATOM      3  C   UNL     1       8.464   7.192  19.041  0.00  0.00    +0.000 A 
ATOM      4  C   UNL     1       8.162   8.185  18.205  0.00  0.00    +0.000 A 
ATOM      5  N   UNL     1       7.221   8.080  17.217  0.00  0.00    +0.000 NA
ATOM      6  C   UNL     1       6.607   6.948  17.085  0.00  0.00    +0.000 A 
ATOM      7  C   UNL     1       5.551   6.818  16.039  0.00  0.00    +0.000 A 
ATOM      8  C   UNL     1       4.868   5.673  15.918  0.00  0.00    +0.000 A 
ATOM      9  C   UNL     1       5.150   4.554  16.784  0.00  0.00    +0.000 A 
ATOM     10  C   UNL     1       6.160   4.646  17.667  0.00  0.00    +0.000 A 
ATOM     11  N   UNL     1       6.862   5.828  17.859  0.00  0.00    +0.000 N 
ENDROOT
BRANCH   4  12
ATOM     12  O   UNL     1       8.837   9.382  18.384  0.00  0.00    +0.000 OA
BRANCH  12  13
ATOM     13  C   UNL     1       8.148  10.500  17.816  0.00  0.00    +0.000 C 
BRANCH  13  14
ATOM     14  C   UNL     1       9.029  11.726  17.852  0.00  0.00    +0.000 A 
ATOM     15  C   UNL     1      10.425  11.585  17.810  0.00  0.00    +0.000 A 
ATOM     16  C   UNL     1      11.254  12.705  17.786  0.00  0.00    +0.000 A 
ATOM     17  C   UNL     1      10.699  13.984  17.795  0.00  0.00    +0.000 A 
ATOM     18  C   UNL     1       9.315  14.136  17.823  0.00  0.00    +0.000 A 
ATOM     19 CL   UNL     1       8.628  15.714  17.820  0.00  0.00    +0.000 Cl
ATOM     20  C   UNL     1       8.480  13.019  17.844  0.00  0.00    +0.000 A 
ENDBRANCH  13  14
ENDBRANCH  12  13
ENDBRANCH   4  12
BRANCH   9  21
ATOM     21  O   UNL     1       4.331   3.455  16.588  0.00  0.00    +0.000 OA
BRANCH  21  22
ATOM     22  C   UNL     1       3.301   3.214  17.463  0.00  0.00    +0.000 A 
ATOM     23  C   UNL     1       3.112   2.004  18.134  0.00  0.00    +0.000 A 
ATOM     24  C   UNL     1       1.995   1.840  18.947  0.00  0.00    +0.000 A 
ATOM     25  C   UNL     1       1.136   2.913  19.106  0.00  0.00    +0.000 A 
ATOM     26  N   UNL     1       1.325   4.120  18.526  0.00  0.00    +0.000 NA
ATOM     27  C   UNL     1       2.407   4.242  17.719  0.00  0.00    +0.000 A 
ENDBRANCH  21  22
ENDBRANCH   9  21
TORSDOF 5
ENDMDL
MODEL 9
REMARK VINA RESULT:      -8.1      7.012      8.746
REMARK  Name = 
REMARK  5 active torsions:
REMARK  status: ('A' for Active; 'I' for Inactive)
REMARK    1  A    between atoms: C_4  and  O_5
REMARK    2  A    between atoms: O_5  and  C_6
REMARK    3  A    between atoms: C_6  and  C_7
REMARK    4  A    between atoms: C_18  and  O_19
REMARK    5  A    between atoms: O_19  and  C_20
REMARK                            x       y       z     vdW  Elec       q    Type
REMARK                         _______ _______ _______ _____ _____    ______ ____
ROOT
ATOM      1  O   UNL     1       0.483   8.531  22.097  0.00  0.00    +0.000 OA
ATOM      2  C   UNL     1       0.608   9.118  21.025  0.00  0.00    +0.000 A 
ATOM      3  C   UNL     1      -0.134  10.366  20.807  0.00  0.00    +0.000 A 
ATOM      4  C   UNL     1      -0.027  10.986  19.633  0.00  0.00    +0.000 A 
ATOM      5  N   UNL     1       0.723  10.510  18.592  0.00  0.00    +0.000 NA
ATOM      6  C   UNL     1       1.374   9.405  18.772  0.00  0.00    +0.000 A 
ATOM      7  C   UNL     1       2.171   8.846  17.641  0.00  0.00    +0.000 A 
ATOM      8  C   UNL     1       2.810   7.679  17.788  0.00  0.00    +0.000 A 
ATOM      9  C   UNL     1       2.746   6.957  19.036  0.00  0.00    +0.000 A 
ATOM     10  C   UNL     1       2.098   7.507  20.080  0.00  0.00    +0.000 A 
ATOM     11  N   UNL     1       1.382   8.690  19.958  0.00  0.00    +0.000 N 
ENDROOT
BRANCH   4  12
ATOM     12  O   UNL     1      -0.744  12.162  19.478  0.00  0.00    +0.000 OA
BRANCH  12  13
ATOM     13  C   UNL     1      -2.063  12.087  20.026  0.00  0.00    +0.000 C 
BRANCH  13  14
ATOM     14  C   UNL     1      -3.069  11.835  18.928  0.00  0.00    +0.000 A 
ATOM     15  C   UNL     1      -4.430  12.094  19.155  0.00  0.00    +0.000 A 
ATOM     16  C   UNL     1      -5.367  11.921  18.137  0.00  0.00    +0.000 A 
ATOM     17  C   UNL     1      -4.956  11.494  16.875  0.00  0.00    +0.000 A 
ATOM     18  C   UNL     1      -3.606  11.247  16.635  0.00  0.00    +0.000 A 
ATOM     19 CL   UNL     1      -3.096  10.734  15.074  0.00  0.00    +0.000 Cl
ATOM     20  C   UNL     1      -2.664  11.421  17.648  0.00  0.00    +0.000 A 
ENDBRANCH  13  14
ENDBRANCH  12  13
ENDBRANCH   4  12
BRANCH   9  21
ATOM     21  O   UNL     1       3.405   5.740  19.031  0.00  0.00    +0.000 OA
BRANCH  21  22
ATOM     22  C   UNL     1       2.682   4.579  19.154  0.00  0.00    +0.000 A 
ATOM     23  C   UNL     1       1.821   4.086  18.172  0.00  0.00    +0.000 A 
ATOM     24  C   UNL     1       1.081   2.936  18.425  0.00  0.00    +0.000 A 
ATOM     25  C   UNL     1       1.273   2.284  19.630  0.00  0.00    +0.000 A 
ATOM     26  N   UNL     1       2.148   2.695  20.576  0.00  0.00    +0.000 NA
ATOM     27  C   UNL     1       2.835   3.833  20.313  0.00  0.00    +0.000 A 
ENDBRANCH  21  22
ENDBRANCH   9  21
TORSDOF 5
ENDMDL
