MODEL 1
REMARK VINA RESULT:      -8.1      0.000      0.000
REMARK  Name = 
REMARK  10 active torsions:
REMARK  status: ('A' for Active; 'I' for Inactive)
REMARK    1  A    between atoms: C_1  and  C_2
REMARK    2  A    between atoms: C_2  and  C_3
REMARK    3  A    between atoms: C_6  and  N_7
REMARK    4  A    between atoms: C_9  and  C_10
REMARK    5  A    between atoms: C_10  and  O_11
REMARK    6  A    between atoms: C_12  and  C_13
REMARK    7  A    between atoms: N_15  and  C_16
REMARK    8  A    between atoms: C_16  and  C_17
REMARK    9  A    between atoms: C_22  and  O_23
REMARK   10  A    between atoms: O_23  and  C_24
REMARK                            x       y       z     vdW  Elec       q    Type
REMARK                         _______ _______ _______ _____ _____    ______ ____
ROOT
ATOM      1  N   UNL     1       2.370   6.101  19.887  0.00  0.00    +0.000 N 
ATOM      2  N   UNL     1       1.606   5.276  20.658  0.00  0.00    +0.000 NA
ATOM      3  C   UNL     1       2.269   4.109  20.561  0.00  0.00    +0.000 A 
ATOM      4  C   UNL     1       3.423   4.269  19.767  0.00  0.00    +0.000 A 
ATOM      5  N   UNL     1       3.492   5.549  19.376  0.00  0.00    +0.000 NA
ENDROOT
BRANCH   1   9
ATOM      6  C   UNL     1       1.262  10.102  19.005  0.00  0.00    +0.000 A 
ATOM      7  C   UNL     1       1.913   9.307  18.051  0.00  0.00    +0.000 A 
ATOM      8  C   UNL     1       2.293   7.987  18.334  0.00  0.00    +0.000 A 
ATOM      9  C   UNL     1       2.012   7.440  19.587  0.00  0.00    +0.000 A 
ATOM     10  C   UNL     1       1.384   8.231  20.554  0.00  0.00    +0.000 A 
ATOM     11  C   UNL     1       1.017   9.549  20.270  0.00  0.00    +0.000 A 
BRANCH   6  13
ATOM     12  C   UNL     1      -0.709  11.714  18.595  0.00  0.00    +0.000 C 
ATOM     13  C   UNL     1       0.793  11.514  18.743  0.00  0.00    +0.000 C 
ENDBRANCH   6  13
ENDBRANCH   1   9
BRANCH   4  14
ATOM     14  C   UNL     1       4.403   3.240  19.413  0.00  0.00    +0.000 C 
ATOM     15  O   UNL     1       4.966   2.569  20.276  0.00  0.00    +0.000 OA
ATOM     16  N   UNL     1       4.687   2.985  18.092  0.00  0.00    +0.000 N 
ATOM     17  H   UNL     1       5.424   2.308  17.959  0.00  0.00    +0.000 HD
BRANCH  16  18
ATOM     18  C   UNL     1       4.149   3.642  16.910  0.00  0.00    +0.000 C 
BRANCH  18  19
ATOM     19  C   UNL     1       5.197   4.189  15.966  0.00  0.00    +0.000 A 
ATOM     20  C   UNL     1       5.153   3.810  14.602  0.00  0.00    +0.000 A 
ATOM     21  C   UNL     1       6.174   4.133  13.710  0.00  0.00    +0.000 A 
ATOM     22  C   UNL     1       7.261   4.869  14.153  0.00  0.00    +0.000 A 
ATOM     23  C   UNL     1       7.297   5.306  15.474  0.00  0.00    +0.000 A 
ATOM     24  C   UNL     1       6.270   4.997  16.384  0.00  0.00    +0.000 A 
BRANCH  24  25
ATOM     25  O   UNL     1       6.556   5.469  17.636  0.00  0.00    +0.000 OA
ATOM     26  C   UNL     1       7.374   6.614  17.796  0.00  0.00    +0.000 C 
ENDBRANCH  24  25
ENDBRANCH  18  19
ENDBRANCH  16  18
ENDBRANCH   4  14
BRANCH   3  27
ATOM     27  C   UNL     1       1.753   2.857  21.184  0.00  0.00    +0.000 C 
BRANCH  27  28
ATOM     28  O   UNL     1       2.586   2.391  22.248  0.00  0.00    +0.000 OA
ATOM     29  H   UNL     1       2.055   2.522  23.059  0.00  0.00    +0.000 HD
ENDBRANCH  27  28
ENDBRANCH   3  27
TORSDOF 8
ENDMDL
MODEL 2
REMARK VINA RESULT:      -8.0      0.438      1.130
REMARK  Name = 
REMARK  10 active torsions:
REMARK  status: ('A' for Active; 'I' for Inactive)
REMARK    1  A    between atoms: C_1  and  C_2
REMARK    2  A    between atoms: C_2  and  C_3
REMARK    3  A    between atoms: C_6  and  N_7
REMARK    4  A    between atoms: C_9  and  C_10
REMARK    5  A    between atoms: C_10  and  O_11
REMARK    6  A    between atoms: C_12  and  C_13
REMARK    7  A    between atoms: N_15  and  C_16
REMARK    8  A    between atoms: C_16  and  C_17
REMARK    9  A    between atoms: C_22  and  O_23
REMARK   10  A    between atoms: O_23  and  C_24
REMARK                            x       y       z     vdW  Elec       q    Type
REMARK                         _______ _______ _______ _____ _____    ______ ____
ROOT
ATOM      1  N   UNL     1       2.338   5.983  19.894  0.00  0.00    +0.000 N 
ATOM      2  N   UNL     1       1.512   5.113  20.540  0.00  0.00    +0.000 NA
ATOM      3  C   UNL     1       2.193   3.955  20.442  0.00  0.00    +0.000 A 
ATOM      4  C   UNL     1       3.415   4.166  19.772  0.00  0.00    +0.000 A 
ATOM      5  N   UNL     1       3.508   5.465  19.461  0.00  0.00    +0.000 NA
ENDROOT
BRANCH   1   9
ATOM      6  C   UNL     1       1.360  10.038  19.108  0.00  0.00    +0.000 A 
ATOM      7  C   UNL     1       1.072   9.454  20.351  0.00  0.00    +0.000 A 
ATOM      8  C   UNL     1       1.382   8.113  20.619  0.00  0.00    +0.000 A 
ATOM      9  C   UNL     1       1.999   7.336  19.637  0.00  0.00    +0.000 A 
ATOM     10  C   UNL     1       2.268   7.900  18.386  0.00  0.00    +0.000 A 
ATOM     11  C   UNL     1       1.948   9.235  18.121  0.00  0.00    +0.000 A 
BRANCH   6  13
ATOM     12  C   UNL     1       2.287  12.324  18.357  0.00  0.00    +0.000 C 
ATOM     13  C   UNL     1       1.087  11.487  18.777  0.00  0.00    +0.000 C 
ENDBRANCH   6  13
ENDBRANCH   1   9
BRANCH   4  14
ATOM     14  C   UNL     1       4.434   3.162  19.455  0.00  0.00    +0.000 C 
ATOM     15  O   UNL     1       5.005   2.529  20.341  0.00  0.00    +0.000 OA
ATOM     16  N   UNL     1       4.746   2.888  18.145  0.00  0.00    +0.000 N 
ATOM     17  H   UNL     1       5.507   2.233  18.038  0.00  0.00    +0.000 HD
BRANCH  16  18
ATOM     18  C   UNL     1       4.206   3.500  16.941  0.00  0.00    +0.000 C 
BRANCH  18  19
ATOM     19  C   UNL     1       5.247   4.097  16.019  0.00  0.00    +0.000 A 
ATOM     20  C   UNL     1       5.156   3.842  14.629  0.00  0.00    +0.000 A 
ATOM     21  C   UNL     1       6.165   4.211  13.741  0.00  0.00    +0.000 A 
ATOM     22  C   UNL     1       7.286   4.872  14.216  0.00  0.00    +0.000 A 
ATOM     23  C   UNL     1       7.370   5.188  15.569  0.00  0.00    +0.000 A 
ATOM     24  C   UNL     1       6.356   4.832  16.477  0.00  0.00    +0.000 A 
BRANCH  24  25
ATOM     25  O   UNL     1       6.689   5.181  17.757  0.00  0.00    +0.000 OA
ATOM     26  C   UNL     1       7.380   6.392  18.008  0.00  0.00    +0.000 C 
ENDBRANCH  24  25
ENDBRANCH  18  19
ENDBRANCH  16  18
ENDBRANCH   4  14
BRANCH   3  27
ATOM     27  C   UNL     1       1.631   2.668  20.941  0.00  0.00    +0.000 C 
BRANCH  27  28
ATOM     28  O   UNL     1       1.574   2.613  22.367  0.00  0.00    +0.000 OA
ATOM     29  H   UNL     1       2.150   3.342  22.672  0.00  0.00    +0.000 HD
ENDBRANCH  27  28
ENDBRANCH   3  27
TORSDOF 8
ENDMDL
MODEL 3
REMARK VINA RESULT:      -7.9      3.848      6.722
REMARK  Name = 
REMARK  10 active torsions:
REMARK  status: ('A' for Active; 'I' for Inactive)
REMARK    1  A    between atoms: C_1  and  C_2
REMARK    2  A    between atoms: C_2  and  C_3
REMARK    3  A    between atoms: C_6  and  N_7
REMARK    4  A    between atoms: C_9  and  C_10
REMARK    5  A    between atoms: C_10  and  O_11
REMARK    6  A    between atoms: C_12  and  C_13
REMARK    7  A    between atoms: N_15  and  C_16
REMARK    8  A    between atoms: C_16  and  C_17
REMARK    9  A    between atoms: C_22  and  O_23
REMARK   10  A    between atoms: O_23  and  C_24
REMARK                            x       y       z     vdW  Elec       q    Type
REMARK                         _______ _______ _______ _____ _____    ______ ____
ROOT
ATOM      1  N   UNL     1       7.703   8.350  17.909  0.00  0.00    +0.000 N 
ATOM      2  N   UNL     1       6.650   8.323  17.044  0.00  0.00    +0.000 NA
ATOM      3  C   UNL     1       6.408   7.003  16.940  0.00  0.00    +0.000 A 
ATOM      4  C   UNL     1       7.294   6.279  17.764  0.00  0.00    +0.000 A 
ATOM      5  N   UNL     1       8.087   7.151  18.400  0.00  0.00    +0.000 NA
ENDROOT
BRANCH   1   9
ATOM      6  C   UNL     1       9.795  11.907  18.900  0.00  0.00    +0.000 A 
ATOM      7  C   UNL     1       9.946  10.744  19.669  0.00  0.00    +0.000 A 
ATOM      8  C   UNL     1       9.254   9.565  19.357  0.00  0.00    +0.000 A 
ATOM      9  C   UNL     1       8.399   9.537  18.254  0.00  0.00    +0.000 A 
ATOM     10  C   UNL     1       8.222  10.698  17.494  0.00  0.00    +0.000 A 
ATOM     11  C   UNL     1       8.907  11.872  17.816  0.00  0.00    +0.000 A 
BRANCH   6  13
ATOM     12  C   UNL     1      11.965  13.051  19.699  0.00  0.00    +0.000 C 
ATOM     13  C   UNL     1      10.547  13.191  19.164  0.00  0.00    +0.000 C 
ENDBRANCH   6  13
ENDBRANCH   1   9
BRANCH   4  14
ATOM     14  C   UNL     1       7.362   4.825  17.926  0.00  0.00    +0.000 C 
ATOM     15  O   UNL     1       8.263   4.165  17.412  0.00  0.00    +0.000 OA
ATOM     16  N   UNL     1       6.424   4.173  18.692  0.00  0.00    +0.000 N 
ATOM     17  H   UNL     1       6.521   3.168  18.681  0.00  0.00    +0.000 HD
BRANCH  16  18
ATOM     18  C   UNL     1       5.280   4.737  19.391  0.00  0.00    +0.000 C 
BRANCH  18  19
ATOM     19  C   UNL     1       3.964   4.051  19.097  0.00  0.00    +0.000 A 
ATOM     20  C   UNL     1       3.977   2.700  18.675  0.00  0.00    +0.000 A 
ATOM     21  C   UNL     1       2.827   2.054  18.224  0.00  0.00    +0.000 A 
ATOM     22  C   UNL     1       1.622   2.736  18.207  0.00  0.00    +0.000 A 
ATOM     23  C   UNL     1       1.572   4.046  18.676  0.00  0.00    +0.000 A 
ATOM     24  C   UNL     1       2.721   4.709  19.143  0.00  0.00    +0.000 A 
BRANCH  24  25
ATOM     25  O   UNL     1       2.445   6.005  19.483  0.00  0.00    +0.000 OA
ATOM     26  C   UNL     1       2.611   7.041  18.532  0.00  0.00    +0.000 C 
ENDBRANCH  24  25
ENDBRANCH  18  19
ENDBRANCH  16  18
ENDBRANCH   4  14
BRANCH   3  27
ATOM     27  C   UNL     1       5.373   6.464  16.012  0.00  0.00    +0.000 C 
BRANCH  27  28
ATOM     28  O   UNL     1       5.943   5.806  14.879  0.00  0.00    +0.000 OA
ATOM     29  H   UNL     1       6.825   6.214  14.767  0.00  0.00    +0.000 HD
ENDBRANCH  27  28
ENDBRANCH   3  27
TORSDOF 8
ENDMDL
MODEL 4
REMARK VINA RESULT:      -7.9      4.022      6.905
REMARK  Name = 
REMARK  10 active torsions:
REMARK  status: ('A' for Active; 'I' for Inactive)
REMARK    1  A    between atoms: C_1  and  C_2
REMARK    2  A    between atoms: C_2  and  C_3
REMARK    3  A    between atoms: C_6  and  N_7
REMARK    4  A    between atoms: C_9  and  C_10
REMARK    5  A    between atoms: C_10  and  O_11
REMARK    6  A    between atoms: C_12  and  C_13
REMARK    7  A    between atoms: N_15  and  C_16
REMARK    8  A    between atoms: C_16  and  C_17
REMARK    9  A    between atoms: C_22  and  O_23
REMARK   10  A    between atoms: O_23  and  C_24
REMARK                            x       y       z     vdW  Elec       q    Type
REMARK                         _______ _______ _______ _____ _____    ______ ____
ROOT
ATOM      1  N   UNL     1       8.186   8.615  18.155  0.00  0.00    +0.000 N 
ATOM      2  N   UNL     1       8.489   7.533  18.927  0.00  0.00    +0.000 NA
ATOM      3  C   UNL     1       7.729   6.571  18.370  0.00  0.00    +0.000 A 
ATOM      4  C   UNL     1       7.019   7.089  17.268  0.00  0.00    +0.000 A 
ATOM      5  N   UNL     1       7.347   8.380  17.123  0.00  0.00    +0.000 NA
ENDROOT
BRANCH   1   9
ATOM      6  C   UNL     1       9.638  12.531  18.913  0.00  0.00    +0.000 A 
ATOM      7  C   UNL     1       9.974  11.461  19.755  0.00  0.00    +0.000 A 
ATOM      8  C   UNL     1       9.493  10.165  19.521  0.00  0.00    +0.000 A 
ATOM      9  C   UNL     1       8.667   9.922  18.422  0.00  0.00    +0.000 A 
ATOM     10  C   UNL     1       8.307  10.985  17.588  0.00  0.00    +0.000 A 
ATOM     11  C   UNL     1       8.781  12.277  17.832  0.00  0.00    +0.000 A 
BRANCH   6  13
ATOM     12  C   UNL     1      10.887  14.231  20.396  0.00  0.00    +0.000 C 
ATOM     13  C   UNL     1      10.159  13.938  19.092  0.00  0.00    +0.000 C 
ENDBRANCH   6  13
ENDBRANCH   1   9
BRANCH   4  14
ATOM     14  C   UNL     1       6.080   6.370  16.404  0.00  0.00    +0.000 C 
ATOM     15  O   UNL     1       6.472   5.694  15.455  0.00  0.00    +0.000 OA
ATOM     16  N   UNL     1       4.731   6.416  16.665  0.00  0.00    +0.000 N 
ATOM     17  H   UNL     1       4.167   5.945  15.972  0.00  0.00    +0.000 HD
BRANCH  16  18
ATOM     18  C   UNL     1       4.040   7.140  17.722  0.00  0.00    +0.000 C 
BRANCH  18  19
ATOM     19  C   UNL     1       3.307   6.260  18.710  0.00  0.00    +0.000 A 
ATOM     20  C   UNL     1       2.339   6.846  19.560  0.00  0.00    +0.000 A 
ATOM     21  C   UNL     1       1.748   6.140  20.607  0.00  0.00    +0.000 A 
ATOM     22  C   UNL     1       2.091   4.815  20.817  0.00  0.00    +0.000 A 
ATOM     23  C   UNL     1       2.995   4.198  19.956  0.00  0.00    +0.000 A 
ATOM     24  C   UNL     1       3.593   4.894  18.890  0.00  0.00    +0.000 A 
BRANCH  24  25
ATOM     25  O   UNL     1       4.497   4.108  18.228  0.00  0.00    +0.000 OA
ATOM     26  C   UNL     1       4.058   2.974  17.503  0.00  0.00    +0.000 C 
ENDBRANCH  24  25
ENDBRANCH  18  19
ENDBRANCH  16  18
ENDBRANCH   4  14
BRANCH   3  27
ATOM     27  C   UNL     1       7.657   5.196  18.942  0.00  0.00    +0.000 C 
BRANCH  27  28
ATOM     28  O   UNL     1       7.538   4.191  17.934  0.00  0.00    +0.000 OA
ATOM     29  H   UNL     1       6.619   4.267  17.608  0.00  0.00    +0.000 HD
ENDBRANCH  27  28
ENDBRANCH   3  27
TORSDOF 8
ENDMDL
MODEL 5
REMARK VINA RESULT:      -7.9      1.678      4.741
REMARK  Name = 
REMARK  10 active torsions:
REMARK  status: ('A' for Active; 'I' for Inactive)
REMARK    1  A    between atoms: C_1  and  C_2
REMARK    2  A    between atoms: C_2  and  C_3
REMARK    3  A    between atoms: C_6  and  N_7
REMARK    4  A    between atoms: C_9  and  C_10
REMARK    5  A    between atoms: C_10  and  O_11
REMARK    6  A    between atoms: C_12  and  C_13
REMARK    7  A    between atoms: N_15  and  C_16
REMARK    8  A    between atoms: C_16  and  C_17
REMARK    9  A    between atoms: C_22  and  O_23
REMARK   10  A    between atoms: O_23  and  C_24
REMARK                            x       y       z     vdW  Elec       q    Type
REMARK                         _______ _______ _______ _____ _____    ______ ____
ROOT
ATOM      1  N   UNL     1       3.356   7.109  18.112  0.00  0.00    +0.000 N 
ATOM      2  N   UNL     1       3.767   7.189  16.815  0.00  0.00    +0.000 NA
ATOM      3  C   UNL     1       4.740   6.261  16.772  0.00  0.00    +0.000 A 
ATOM      4  C   UNL     1       4.866   5.629  18.027  0.00  0.00    +0.000 A 
ATOM      5  N   UNL     1       3.956   6.155  18.857  0.00  0.00    +0.000 NA
ENDROOT
BRANCH   1   9
ATOM      6  C   UNL     1       0.468   9.700  19.833  0.00  0.00    +0.000 A 
ATOM      7  C   UNL     1       0.912   9.888  18.516  0.00  0.00    +0.000 A 
ATOM      8  C   UNL     1       1.872   9.044  17.940  0.00  0.00    +0.000 A 
ATOM      9  C   UNL     1       2.398   7.986  18.682  0.00  0.00    +0.000 A 
ATOM     10  C   UNL     1       1.980   7.803  20.004  0.00  0.00    +0.000 A 
ATOM     11  C   UNL     1       1.030   8.653  20.577  0.00  0.00    +0.000 A 
BRANCH   6  13
ATOM     12  C   UNL     1      -1.381  11.481  19.579  0.00  0.00    +0.000 C 
ATOM     13  C   UNL     1      -0.594  10.550  20.492  0.00  0.00    +0.000 C 
ENDBRANCH   6  13
ENDBRANCH   1   9
BRANCH   4  14
ATOM     14  C   UNL     1       5.813   4.574  18.394  0.00  0.00    +0.000 C 
ATOM     15  O   UNL     1       6.967   4.838  18.725  0.00  0.00    +0.000 OA
ATOM     16  N   UNL     1       5.409   3.260  18.405  0.00  0.00    +0.000 N 
ATOM     17  H   UNL     1       6.154   2.609  18.604  0.00  0.00    +0.000 HD
BRANCH  16  18
ATOM     18  C   UNL     1       4.106   2.713  18.057  0.00  0.00    +0.000 C 
BRANCH  18  19
ATOM     19  C   UNL     1       3.123   2.657  19.205  0.00  0.00    +0.000 A 
ATOM     20  C   UNL     1       1.752   2.901  18.945  0.00  0.00    +0.000 A 
ATOM     21  C   UNL     1       0.816   3.035  19.968  0.00  0.00    +0.000 A 
ATOM     22  C   UNL     1       1.221   2.902  21.286  0.00  0.00    +0.000 A 
ATOM     23  C   UNL     1       2.551   2.600  21.565  0.00  0.00    +0.000 A 
ATOM     24  C   UNL     1       3.506   2.453  20.544  0.00  0.00    +0.000 A 
BRANCH  24  25
ATOM     25  O   UNL     1       4.755   2.231  21.058  0.00  0.00    +0.000 OA
ATOM     26  C   UNL     1       5.257   0.910  21.162  0.00  0.00    +0.000 C 
ENDBRANCH  24  25
ENDBRANCH  18  19
ENDBRANCH  16  18
ENDBRANCH   4  14
BRANCH   3  27
ATOM     27  C   UNL     1       5.563   6.040  15.549  0.00  0.00    +0.000 C 
BRANCH  27  28
ATOM     28  O   UNL     1       6.966   6.117  15.813  0.00  0.00    +0.000 OA
ATOM     29  H   UNL     1       7.377   6.296  14.943  0.00  0.00    +0.000 HD
ENDBRANCH  27  28
ENDBRANCH   3  27
TORSDOF 8
ENDMDL
MODEL 6
REMARK VINA RESULT:      -7.9      2.046      4.916
REMARK  Name = 
REMARK  10 active torsions:
REMARK  status: ('A' for Active; 'I' for Inactive)
REMARK    1  A    between atoms: C_1  and  C_2
REMARK    2  A    between atoms: C_2  and  C_3
REMARK    3  A    between atoms: C_6  and  N_7
REMARK    4  A    between atoms: C_9  and  C_10
REMARK    5  A    between atoms: C_10  and  O_11
REMARK    6  A    between atoms: C_12  and  C_13
REMARK    7  A    between atoms: N_15  and  C_16
REMARK    8  A    between atoms: C_16  and  C_17
REMARK    9  A    between atoms: C_22  and  O_23
REMARK   10  A    between atoms: O_23  and  C_24
REMARK                            x       y       z     vdW  Elec       q    Type
REMARK                         _______ _______ _______ _____ _____    ______ ____
ROOT
ATOM      1  N   UNL     1       3.183   7.082  18.633  0.00  0.00    +0.000 N 
ATOM      2  N   UNL     1       3.531   7.194  17.320  0.00  0.00    +0.000 NA
ATOM      3  C   UNL     1       4.530   6.298  17.218  0.00  0.00    +0.000 A 
ATOM      4  C   UNL     1       4.732   5.652  18.455  0.00  0.00    +0.000 A 
ATOM      5  N   UNL     1       3.845   6.137  19.334  0.00  0.00    +0.000 NA
ENDROOT
BRANCH   1   9
ATOM      6  C   UNL     1       0.296   9.555  20.521  0.00  0.00    +0.000 A 
ATOM      7  C   UNL     1       0.743   9.832  19.221  0.00  0.00    +0.000 A 
ATOM      8  C   UNL     1       1.703   9.028  18.590  0.00  0.00    +0.000 A 
ATOM      9  C   UNL     1       2.225   7.920  19.260  0.00  0.00    +0.000 A 
ATOM     10  C   UNL     1       1.804   7.648  20.565  0.00  0.00    +0.000 A 
ATOM     11  C   UNL     1       0.855   8.458  21.193  0.00  0.00    +0.000 A 
BRANCH   6  13
ATOM     12  C   UNL     1      -0.721  10.346  22.755  0.00  0.00    +0.000 C 
ATOM     13  C   UNL     1      -0.766  10.360  21.234  0.00  0.00    +0.000 C 
ENDBRANCH   6  13
ENDBRANCH   1   9
BRANCH   4  14
ATOM     14  C   UNL     1       5.727   4.622  18.763  0.00  0.00    +0.000 C 
ATOM     15  O   UNL     1       6.877   4.918  19.081  0.00  0.00    +0.000 OA
ATOM     16  N   UNL     1       5.375   3.294  18.730  0.00  0.00    +0.000 N 
ATOM     17  H   UNL     1       6.149   2.665  18.889  0.00  0.00    +0.000 HD
BRANCH  16  18
ATOM     18  C   UNL     1       4.087   2.709  18.387  0.00  0.00    +0.000 C 
BRANCH  18  19
ATOM     19  C   UNL     1       3.029   2.848  19.459  0.00  0.00    +0.000 A 
ATOM     20  C   UNL     1       3.398   2.653  20.813  0.00  0.00    +0.000 A 
ATOM     21  C   UNL     1       2.453   2.595  21.836  0.00  0.00    +0.000 A 
ATOM     22  C   UNL     1       1.111   2.759  21.538  0.00  0.00    +0.000 A 
ATOM     23  C   UNL     1       0.729   3.013  20.224  0.00  0.00    +0.000 A 
ATOM     24  C   UNL     1       1.670   3.084  19.180  0.00  0.00    +0.000 A 
BRANCH  24  25
ATOM     25  O   UNL     1       1.059   3.271  17.970  0.00  0.00    +0.000 OA
ATOM     26  C   UNL     1       1.218   4.495  17.274  0.00  0.00    +0.000 C 
ENDBRANCH  24  25
ENDBRANCH  18  19
ENDBRANCH  16  18
ENDBRANCH   4  14
BRANCH   3  27
ATOM     27  C   UNL     1       5.303   6.121  15.956  0.00  0.00    +0.000 C 
BRANCH  27  28
ATOM     28  O   UNL     1       6.653   6.574  16.074  0.00  0.00    +0.000 OA
ATOM     29  H   UNL     1       7.058   6.392  15.202  0.00  0.00    +0.000 HD
ENDBRANCH  27  28
ENDBRANCH   3  27
TORSDOF 8
ENDMDL
MODEL 7
REMARK VINA RESULT:      -7.8      1.448      2.527
REMARK  Name = 
REMARK  10 active torsions:
REMARK  status: ('A' for Active; 'I' for Inactive)
REMARK    1  A    between atoms: C_1  and  C_2
REMARK    2  A    between atoms: C_2  and  C_3
REMARK    3  A    between atoms: C_6  and  N_7
REMARK    4  A    between atoms: C_9  and  C_10
REMARK    5  A    between atoms: C_10  and  O_11
REMARK    6  A    between atoms: C_12  and  C_13
REMARK    7  A    between atoms: N_15  and  C_16
REMARK    8  A    between atoms: C_16  and  C_17
REMARK    9  A    between atoms: C_22  and  O_23
REMARK   10  A    between atoms: O_23  and  C_24
REMARK                            x       y       z     vdW  Elec       q    Type
REMARK                         _______ _______ _______ _____ _____    ______ ____
ROOT
ATOM      1  N   UNL     1       1.990   6.812  19.481  0.00  0.00    +0.000 N 
ATOM      2  N   UNL     1       1.799   6.144  20.654  0.00  0.00    +0.000 NA
ATOM      3  C   UNL     1       2.063   4.873  20.299  0.00  0.00    +0.000 A 
ATOM      4  C   UNL     1       2.434   4.815  18.939  0.00  0.00    +0.000 A 
ATOM      5  N   UNL     1       2.416   6.059  18.443  0.00  0.00    +0.000 NA
ENDROOT
BRANCH   1   9
ATOM      6  C   UNL     1       1.227  10.957  18.980  0.00  0.00    +0.000 A 
ATOM      7  C   UNL     1       0.847  10.290  20.154  0.00  0.00    +0.000 A 
ATOM      8  C   UNL     1       1.085   8.919  20.327  0.00  0.00    +0.000 A 
ATOM      9  C   UNL     1       1.722   8.195  19.318  0.00  0.00    +0.000 A 
ATOM     10  C   UNL     1       2.085   8.844  18.134  0.00  0.00    +0.000 A 
ATOM     11  C   UNL     1       1.835  10.209  17.963  0.00  0.00    +0.000 A 
BRANCH   6  13
ATOM     12  C   UNL     1      -0.385  12.900  18.454  0.00  0.00    +0.000 C 
ATOM     13  C   UNL     1       1.034  12.438  18.756  0.00  0.00    +0.000 C 
ENDBRANCH   6  13
ENDBRANCH   1   9
BRANCH   4  14
ATOM     14  C   UNL     1       2.788   3.620  18.170  0.00  0.00    +0.000 C 
ATOM     15  O   UNL     1       1.975   3.072  17.428  0.00  0.00    +0.000 OA
ATOM     16  N   UNL     1       4.061   3.106  18.244  0.00  0.00    +0.000 N 
ATOM     17  H   UNL     1       4.181   2.244  17.731  0.00  0.00    +0.000 HD
BRANCH  16  18
ATOM     18  C   UNL     1       5.181   3.580  19.043  0.00  0.00    +0.000 C 
BRANCH  18  19
ATOM     19  C   UNL     1       6.082   4.568  18.337  0.00  0.00    +0.000 A 
ATOM     20  C   UNL     1       6.835   5.483  19.113  0.00  0.00    +0.000 A 
ATOM     21  C   UNL     1       7.552   6.530  18.535  0.00  0.00    +0.000 A 
ATOM     22  C   UNL     1       7.558   6.676  17.158  0.00  0.00    +0.000 A 
ATOM     23  C   UNL     1       6.876   5.753  16.370  0.00  0.00    +0.000 A 
ATOM     24  C   UNL     1       6.155   4.685  16.936  0.00  0.00    +0.000 A 
BRANCH  24  25
ATOM     25  O   UNL     1       5.510   3.955  15.976  0.00  0.00    +0.000 OA
ATOM     26  C   UNL     1       5.696   4.259  14.605  0.00  0.00    +0.000 C 
ENDBRANCH  24  25
ENDBRANCH  18  19
ENDBRANCH  16  18
ENDBRANCH   4  14
BRANCH   3  27
ATOM     27  C   UNL     1       1.900   3.739  21.253  0.00  0.00    +0.000 C 
BRANCH  27  28
ATOM     28  O   UNL     1       0.737   2.957  20.978  0.00  0.00    +0.000 OA
ATOM     29  H   UNL     1       0.807   2.724  20.030  0.00  0.00    +0.000 HD
ENDBRANCH  27  28
ENDBRANCH   3  27
TORSDOF 8
ENDMDL
MODEL 8
REMARK VINA RESULT:      -7.8      3.900      6.866
REMARK  Name = 
REMARK  10 active torsions:
REMARK  status: ('A' for Active; 'I' for Inactive)
REMARK    1  A    between atoms: C_1  and  C_2
REMARK    2  A    between atoms: C_2  and  C_3
REMARK    3  A    between atoms: C_6  and  N_7
REMARK    4  A    between atoms: C_9  and  C_10
REMARK    5  A    between atoms: C_10  and  O_11
REMARK    6  A    between atoms: C_12  and  C_13
REMARK    7  A    between atoms: N_15  and  C_16
REMARK    8  A    between atoms: C_16  and  C_17
REMARK    9  A    between atoms: C_22  and  O_23
REMARK   10  A    between atoms: O_23  and  C_24
REMARK                            x       y       z     vdW  Elec       q    Type
REMARK                         _______ _______ _______ _____ _____    ______ ____
ROOT
ATOM      1  N   UNL     1       7.991   8.429  17.999  0.00  0.00    +0.000 N 
ATOM      2  N   UNL     1       8.356   7.277  18.630  0.00  0.00    +0.000 NA
ATOM      3  C   UNL     1       7.514   6.380  18.084  0.00  0.00    +0.000 A 
ATOM      4  C   UNL     1       6.693   7.005  17.123  0.00  0.00    +0.000 A 
ATOM      5  N   UNL     1       7.033   8.299  17.056  0.00  0.00    +0.000 NA
ENDROOT
BRANCH   1   9
ATOM      6  C   UNL     1       9.595  12.227  19.006  0.00  0.00    +0.000 A 
ATOM      7  C   UNL     1       8.804  12.059  17.859  0.00  0.00    +0.000 A 
ATOM      8  C   UNL     1       8.277  10.807  17.511  0.00  0.00    +0.000 A 
ATOM      9  C   UNL     1       8.531   9.699  18.322  0.00  0.00    +0.000 A 
ATOM     10  C   UNL     1       9.338   9.851  19.454  0.00  0.00    +0.000 A 
ATOM     11  C   UNL     1       9.869  11.099  19.791  0.00  0.00    +0.000 A 
BRANCH   6  13
ATOM     12  C   UNL     1      10.369  13.736  20.949  0.00  0.00    +0.000 C 
ATOM     13  C   UNL     1      10.155  13.558  19.452  0.00  0.00    +0.000 C 
ENDBRANCH   6  13
ENDBRANCH   1   9
BRANCH   4  14
ATOM     14  C   UNL     1       5.644   6.380  16.316  0.00  0.00    +0.000 C 
ATOM     15  O   UNL     1       5.899   5.842  15.240  0.00  0.00    +0.000 OA
ATOM     16  N   UNL     1       4.347   6.357  16.772  0.00  0.00    +0.000 N 
ATOM     17  H   UNL     1       3.692   5.966  16.110  0.00  0.00    +0.000 HD
BRANCH  16  18
ATOM     18  C   UNL     1       3.812   6.921  18.002  0.00  0.00    +0.000 C 
BRANCH  18  19
ATOM     19  C   UNL     1       2.975   5.962  18.820  0.00  0.00    +0.000 A 
ATOM     20  C   UNL     1       2.179   6.475  19.872  0.00  0.00    +0.000 A 
ATOM     21  C   UNL     1       1.518   5.643  20.774  0.00  0.00    +0.000 A 
ATOM     22  C   UNL     1       1.612   4.268  20.631  0.00  0.00    +0.000 A 
ATOM     23  C   UNL     1       2.338   3.740  19.568  0.00  0.00    +0.000 A 
ATOM     24  C   UNL     1       3.004   4.566  18.644  0.00  0.00    +0.000 A 
BRANCH  24  25
ATOM     25  O   UNL     1       3.708   3.827  17.732  0.00  0.00    +0.000 OA
ATOM     26  C   UNL     1       3.627   2.413  17.747  0.00  0.00    +0.000 C 
ENDBRANCH  24  25
ENDBRANCH  18  19
ENDBRANCH  16  18
ENDBRANCH   4  14
BRANCH   3  27
ATOM     27  C   UNL     1       7.477   4.960  18.536  0.00  0.00    +0.000 C 
BRANCH  27  28
ATOM     28  O   UNL     1       8.299   4.109  17.734  0.00  0.00    +0.000 OA
ATOM     29  H   UNL     1       7.675   3.499  17.291  0.00  0.00    +0.000 HD
ENDBRANCH  27  28
ENDBRANCH   3  27
TORSDOF 8
ENDMDL
MODEL 9
REMARK VINA RESULT:      -7.8      1.976      4.876
REMARK  Name = 
REMARK  10 active torsions:
REMARK  status: ('A' for Active; 'I' for Inactive)
REMARK    1  A    between atoms: C_1  and  C_2
REMARK    2  A    between atoms: C_2  and  C_3
REMARK    3  A    between atoms: C_6  and  N_7
REMARK    4  A    between atoms: C_9  and  C_10
REMARK    5  A    between atoms: C_10  and  O_11
REMARK    6  A    between atoms: C_12  and  C_13
REMARK    7  A    between atoms: N_15  and  C_16
REMARK    8  A    between atoms: C_16  and  C_17
REMARK    9  A    between atoms: C_22  and  O_23
REMARK   10  A    between atoms: O_23  and  C_24
REMARK                            x       y       z     vdW  Elec       q    Type
REMARK                         _______ _______ _______ _____ _____    ______ ____
ROOT
ATOM      1  N   UNL     1       3.296   7.080  18.332  0.00  0.00    +0.000 N 
ATOM      2  N   UNL     1       3.711   7.073  17.034  0.00  0.00    +0.000 NA
ATOM      3  C   UNL     1       4.714   6.176  17.065  0.00  0.00    +0.000 A 
ATOM      4  C   UNL     1       4.855   5.649  18.365  0.00  0.00    +0.000 A 
ATOM      5  N   UNL     1       3.924   6.207  19.150  0.00  0.00    +0.000 NA
ENDROOT
BRANCH   1   9
ATOM      6  C   UNL     1       0.358   9.764  19.806  0.00  0.00    +0.000 A 
ATOM      7  C   UNL     1       0.888   8.755  20.623  0.00  0.00    +0.000 A 
ATOM      8  C   UNL     1       1.852   7.857  20.145  0.00  0.00    +0.000 A 
ATOM      9  C   UNL     1       2.308   7.966  18.830  0.00  0.00    +0.000 A 
ATOM     10  C   UNL     1       1.769   8.953  17.999  0.00  0.00    +0.000 A 
ATOM     11  C   UNL     1       0.801   9.840  18.478  0.00  0.00    +0.000 A 
BRANCH   6  13
ATOM     12  C   UNL     1      -0.586  11.174  21.749  0.00  0.00    +0.000 C 
ATOM     13  C   UNL     1      -0.651  10.785  20.279  0.00  0.00    +0.000 C 
ENDBRANCH   6  13
ENDBRANCH   1   9
BRANCH   4  14
ATOM     14  C   UNL     1       5.834   4.657  18.816  0.00  0.00    +0.000 C 
ATOM     15  O   UNL     1       6.956   4.991  19.191  0.00  0.00    +0.000 OA
ATOM     16  N   UNL     1       5.496   3.325  18.856  0.00  0.00    +0.000 N 
ATOM     17  H   UNL     1       6.263   2.720  19.114  0.00  0.00    +0.000 HD
BRANCH  16  18
ATOM     18  C   UNL     1       4.241   2.700  18.467  0.00  0.00    +0.000 C 
BRANCH  18  19
ATOM     19  C   UNL     1       3.123   2.858  19.474  0.00  0.00    +0.000 A 
ATOM     20  C   UNL     1       3.414   2.692  20.850  0.00  0.00    +0.000 A 
ATOM     21  C   UNL     1       2.412   2.653  21.819  0.00  0.00    +0.000 A 
ATOM     22  C   UNL     1       1.089   2.807  21.441  0.00  0.00    +0.000 A 
ATOM     23  C   UNL     1       0.783   3.033  20.102  0.00  0.00    +0.000 A 
ATOM     24  C   UNL     1       1.782   3.084  19.113  0.00  0.00    +0.000 A 
BRANCH  24  25
ATOM     25  O   UNL     1       1.241   3.244  17.866  0.00  0.00    +0.000 OA
ATOM     26  C   UNL     1       1.188   4.530  17.273  0.00  0.00    +0.000 C 
ENDBRANCH  24  25
ENDBRANCH  18  19
ENDBRANCH  16  18
ENDBRANCH   4  14
BRANCH   3  27
ATOM     27  C   UNL     1       5.550   5.889  15.865  0.00  0.00    +0.000 C 
BRANCH  27  28
ATOM     28  O   UNL     1       5.252   4.618  15.282  0.00  0.00    +0.000 OA
ATOM     29  H   UNL     1       4.368   4.383  15.628  0.00  0.00    +0.000 HD
ENDBRANCH  27  28
ENDBRANCH   3  27
TORSDOF 8
ENDMDL
