MODEL 1
REMARK VINA RESULT:      -8.8      0.000      0.000
REMARK  Name = 
REMARK  7 active torsions:
REMARK  status: ('A' for Active; 'I' for Inactive)
REMARK    1  A    between atoms: C_1  and  O_2
REMARK    2  A    between atoms: O_2  and  C_3
REMARK    3  A    between atoms: C_7  and  C_8
REMARK    4  A    between atoms: C_11  and  C_12
REMARK    5  A    between atoms: C_12  and  N_13
REMARK    6  A    between atoms: C_14  and  C_16
REMARK    7  A    between atoms: C_18  and  C_19
REMARK                            x       y       z     vdW  Elec       q    Type
REMARK                         _______ _______ _______ _____ _____    ______ ____
ROOT
ATOM      1  C   UNL     1       4.027   5.842  17.804  0.00  0.00    +0.000 A 
ATOM      2  C   UNL     1       3.697   7.219  17.645  0.00  0.00    +0.000 A 
ATOM      3  C   UNL     1       2.925   7.862  18.608  0.00  0.00    +0.000 A 
ATOM      4  C   UNL     1       2.366   7.124  19.657  0.00  0.00    +0.000 A 
ATOM      5  C   UNL     1       2.745   5.756  19.811  0.00  0.00    +0.000 A 
ATOM      6  C   UNL     1       2.366   5.029  20.885  0.00  0.00    +0.000 A 
ATOM      7  N   UNL     1       2.022   3.790  20.659  0.00  0.00    +0.000 NA
ATOM      8  C   UNL     1       3.059   2.993  20.557  0.00  0.00    +0.000 A 
ATOM      9  C   UNL     1       3.602   3.524  19.448  0.00  0.00    +0.000 A 
ATOM     10  C   UNL     1       3.499   5.002  18.934  0.00  0.00    +0.000 A 
ENDROOT
BRANCH   1  15
ATOM     11  C   UNL     1       5.602   4.436  14.688  0.00  0.00    +0.000 A 
ATOM     12  C   UNL     1       6.888   4.138  15.135  0.00  0.00    +0.000 A 
ATOM     13  C   UNL     1       7.244   4.384  16.464  0.00  0.00    +0.000 A 
ATOM     14  C   UNL     1       6.356   5.038  17.317  0.00  0.00    +0.000 A 
ATOM     15  C   UNL     1       5.051   5.338  16.875  0.00  0.00    +0.000 A 
ATOM     16  C   UNL     1       4.709   5.067  15.549  0.00  0.00    +0.000 A 
BRANCH  11  18
ATOM     17  C   UNL     1       6.331   3.590  12.598  0.00  0.00    +0.000 C 
ATOM     18  O   UNL     1       5.256   3.932  13.464  0.00  0.00    +0.000 OA
ENDBRANCH  11  18
ENDBRANCH   1  15
BRANCH   4  19
ATOM     19  C   UNL     1       1.289   7.782  20.544  0.00  0.00    +0.000 C 
BRANCH  19  20
ATOM     20  N   UNL     1       0.600   8.961  19.944  0.00  0.00    +0.000 N 
ATOM     21  C   UNL     1       0.564  10.226  20.415  0.00  0.00    +0.000 C 
ATOM     22  O   UNL     1       1.126  10.559  21.448  0.00  0.00    +0.000 OA
ATOM     23  H   UNL     1       0.326   8.873  18.999  0.00  0.00    +0.000 HD
BRANCH  21  24
ATOM     24  C   UNL     1      -0.315  11.177  19.648  0.00  0.00    +0.000 C 
ATOM     25  C   UNL     1      -1.545  11.784  20.311  0.00  0.00    +0.000 C 
ATOM     26  C   UNL     1      -1.710  10.664  19.307  0.00  0.00    +0.000 C 
BRANCH  26  27
ATOM     27  C   UNL     1      -2.530  10.805  18.042  0.00  0.00    +0.000 A 
ATOM     28  C   UNL     1      -3.686  11.573  17.859  0.00  0.00    +0.000 A 
ATOM     29  C   UNL     1      -4.390  11.516  16.642  0.00  0.00    +0.000 A 
ATOM     30  C   UNL     1      -3.884  10.799  15.553  0.00  0.00    +0.000 A 
ATOM     31  C   UNL     1      -2.715  10.073  15.687  0.00  0.00    +0.000 A 
ATOM     32  C   UNL     1      -2.063  10.078  16.916  0.00  0.00    +0.000 A 
ENDBRANCH  26  27
ENDBRANCH  21  24
ENDBRANCH  19  20
ENDBRANCH   4  19
TORSDOF 6
ENDMDL
MODEL 2
REMARK VINA RESULT:      -8.8      1.414      1.919
REMARK  Name = 
REMARK  7 active torsions:
REMARK  status: ('A' for Active; 'I' for Inactive)
REMARK    1  A    between atoms: C_1  and  O_2
REMARK    2  A    between atoms: O_2  and  C_3
REMARK    3  A    between atoms: C_7  and  C_8
REMARK    4  A    between atoms: C_11  and  C_12
REMARK    5  A    between atoms: C_12  and  N_13
REMARK    6  A    between atoms: C_14  and  C_16
REMARK    7  A    between atoms: C_18  and  C_19
REMARK                            x       y       z     vdW  Elec       q    Type
REMARK                         _______ _______ _______ _____ _____    ______ ____
ROOT
ATOM      1  C   UNL     1       4.603   5.270  16.374  0.00  0.00    +0.000 A 
ATOM      2  C   UNL     1       4.569   6.685  16.533  0.00  0.00    +0.000 A 
ATOM      3  C   UNL     1       3.992   7.239  17.672  0.00  0.00    +0.000 A 
ATOM      4  C   UNL     1       3.332   6.414  18.589  0.00  0.00    +0.000 A 
ATOM      5  C   UNL     1       3.416   4.999  18.422  0.00  0.00    +0.000 A 
ATOM      6  C   UNL     1       2.935   4.142  19.349  0.00  0.00    +0.000 A 
ATOM      7  N   UNL     1       2.325   3.078  18.901  0.00  0.00    +0.000 NA
ATOM      8  C   UNL     1       3.163   2.133  18.546  0.00  0.00    +0.000 A 
ATOM      9  C   UNL     1       3.761   2.777  17.530  0.00  0.00    +0.000 A 
ATOM     10  C   UNL     1       3.955   4.322  17.345  0.00  0.00    +0.000 A 
ENDROOT
BRANCH   1  15
ATOM     11  C   UNL     1       7.477   5.058  13.952  0.00  0.00    +0.000 A 
ATOM     12  C   UNL     1       7.014   4.098  13.053  0.00  0.00    +0.000 A 
ATOM     13  C   UNL     1       5.752   3.524  13.226  0.00  0.00    +0.000 A 
ATOM     14  C   UNL     1       5.000   3.817  14.363  0.00  0.00    +0.000 A 
ATOM     15  C   UNL     1       5.457   4.790  15.275  0.00  0.00    +0.000 A 
ATOM     16  C   UNL     1       6.713   5.367  15.073  0.00  0.00    +0.000 A 
BRANCH  11  18
ATOM     17  C   UNL     1       8.614   6.225  12.231  0.00  0.00    +0.000 C 
ATOM     18  O   UNL     1       8.593   5.752  13.573  0.00  0.00    +0.000 OA
ENDBRANCH  11  18
ENDBRANCH   1  15
BRANCH   4  19
ATOM     19  C   UNL     1       2.457   7.061  19.683  0.00  0.00    +0.000 C 
BRANCH  19  20
ATOM     20  N   UNL     1       1.763   8.318  19.285  0.00  0.00    +0.000 N 
ATOM     21  C   UNL     1       1.058   9.159  20.073  0.00  0.00    +0.000 C 
ATOM     22  O   UNL     1       0.906   8.965  21.270  0.00  0.00    +0.000 OA
ATOM     23  H   UNL     1       2.018   8.701  18.411  0.00  0.00    +0.000 HD
BRANCH  21  24
ATOM     24  C   UNL     1       0.369  10.291  19.358  0.00  0.00    +0.000 C 
ATOM     25  C   UNL     1      -0.483  11.283  20.140  0.00  0.00    +0.000 C 
ATOM     26  C   UNL     1      -1.152  10.215  19.304  0.00  0.00    +0.000 C 
BRANCH  26  27
ATOM     27  C   UNL     1      -2.116  10.531  18.179  0.00  0.00    +0.000 A 
ATOM     28  C   UNL     1      -3.185  11.433  18.204  0.00  0.00    +0.000 A 
ATOM     29  C   UNL     1      -4.051  11.538  17.100  0.00  0.00    +0.000 A 
ATOM     30  C   UNL     1      -3.789  10.844  15.914  0.00  0.00    +0.000 A 
ATOM     31  C   UNL     1      -2.708   9.985  15.841  0.00  0.00    +0.000 A 
ATOM     32  C   UNL     1      -1.898   9.834  16.961  0.00  0.00    +0.000 A 
ENDBRANCH  26  27
ENDBRANCH  21  24
ENDBRANCH  19  20
ENDBRANCH   4  19
TORSDOF 6
ENDMDL
MODEL 3
REMARK VINA RESULT:      -8.4      2.060      3.009
REMARK  Name = 
REMARK  7 active torsions:
REMARK  status: ('A' for Active; 'I' for Inactive)
REMARK    1  A    between atoms: C_1  and  O_2
REMARK    2  A    between atoms: O_2  and  C_3
REMARK    3  A    between atoms: C_7  and  C_8
REMARK    4  A    between atoms: C_11  and  C_12
REMARK    5  A    between atoms: C_12  and  N_13
REMARK    6  A    between atoms: C_14  and  C_16
REMARK    7  A    between atoms: C_18  and  C_19
REMARK                            x       y       z     vdW  Elec       q    Type
REMARK                         _______ _______ _______ _____ _____    ______ ____
ROOT
ATOM      1  C   UNL     1       3.906   5.636  18.201  0.00  0.00    +0.000 A 
ATOM      2  C   UNL     1       3.427   6.973  18.096  0.00  0.00    +0.000 A 
ATOM      3  C   UNL     1       2.579   7.483  19.074  0.00  0.00    +0.000 A 
ATOM      4  C   UNL     1       2.094   6.641  20.082  0.00  0.00    +0.000 A 
ATOM      5  C   UNL     1       2.622   5.319  20.182  0.00  0.00    +0.000 A 
ATOM      6  C   UNL     1       2.316   4.506  21.218  0.00  0.00    +0.000 A 
ATOM      7  N   UNL     1       2.114   3.248  20.932  0.00  0.00    +0.000 NA
ATOM      8  C   UNL     1       3.234   2.576  20.812  0.00  0.00    +0.000 A 
ATOM      9  C   UNL     1       3.726   3.214  19.736  0.00  0.00    +0.000 A 
ATOM     10  C   UNL     1       3.465   4.692  19.285  0.00  0.00    +0.000 A 
ENDROOT
BRANCH   1  15
ATOM     11  C   UNL     1       5.660   4.548  15.052  0.00  0.00    +0.000 A 
ATOM     12  C   UNL     1       6.968   4.381  15.505  0.00  0.00    +0.000 A 
ATOM     13  C   UNL     1       7.282   4.611  16.847  0.00  0.00    +0.000 A 
ATOM     14  C   UNL     1       6.317   5.124  17.713  0.00  0.00    +0.000 A 
ATOM     15  C   UNL     1       4.990   5.291  17.266  0.00  0.00    +0.000 A 
ATOM     16  C   UNL     1       4.693   5.037  15.925  0.00  0.00    +0.000 A 
BRANCH  11  18
ATOM     17  C   UNL     1       6.507   3.808  12.966  0.00  0.00    +0.000 C 
ATOM     18  O   UNL     1       5.385   4.059  13.805  0.00  0.00    +0.000 OA
ENDBRANCH  11  18
ENDBRANCH   1  15
BRANCH   4  19
ATOM     19  C   UNL     1       0.942   7.136  20.980  0.00  0.00    +0.000 C 
BRANCH  19  20
ATOM     20  N   UNL     1       0.581   8.574  20.823  0.00  0.00    +0.000 N 
ATOM     21  C   UNL     1       0.968   9.613  21.594  0.00  0.00    +0.000 C 
ATOM     22  O   UNL     1       1.700   9.475  22.563  0.00  0.00    +0.000 OA
ATOM     23  H   UNL     1       0.204   8.837  19.949  0.00  0.00    +0.000 HD
BRANCH  21  24
ATOM     24  C   UNL     1       0.343  10.939  21.254  0.00  0.00    +0.000 C 
ATOM     25  C   UNL     1      -0.651  11.043  20.103  0.00  0.00    +0.000 C 
ATOM     26  C   UNL     1       0.763  11.550  19.921  0.00  0.00    +0.000 C 
BRANCH  26  27
ATOM     27  C   UNL     1       1.084  12.983  19.551  0.00  0.00    +0.000 A 
ATOM     28  C   UNL     1       2.342  13.595  19.537  0.00  0.00    +0.000 A 
ATOM     29  C   UNL     1       2.458  14.971  19.263  0.00  0.00    +0.000 A 
ATOM     30  C   UNL     1       1.343  15.722  18.877  0.00  0.00    +0.000 A 
ATOM     31  C   UNL     1       0.094  15.131  18.830  0.00  0.00    +0.000 A 
ATOM     32  C   UNL     1      -0.022  13.787  19.170  0.00  0.00    +0.000 A 
ENDBRANCH  26  27
ENDBRANCH  21  24
ENDBRANCH  19  20
ENDBRANCH   4  19
TORSDOF 6
ENDMDL
MODEL 4
REMARK VINA RESULT:      -8.4      2.102      2.781
REMARK  Name = 
REMARK  7 active torsions:
REMARK  status: ('A' for Active; 'I' for Inactive)
REMARK    1  A    between atoms: C_1  and  O_2
REMARK    2  A    between atoms: O_2  and  C_3
REMARK    3  A    between atoms: C_7  and  C_8
REMARK    4  A    between atoms: C_11  and  C_12
REMARK    5  A    between atoms: C_12  and  N_13
REMARK    6  A    between atoms: C_14  and  C_16
REMARK    7  A    between atoms: C_18  and  C_19
REMARK                            x       y       z     vdW  Elec       q    Type
REMARK                         _______ _______ _______ _____ _____    ______ ____
ROOT
ATOM      1  C   UNL     1       4.165   5.321  17.262  0.00  0.00    +0.000 A 
ATOM      2  C   UNL     1       3.913   6.674  17.634  0.00  0.00    +0.000 A 
ATOM      3  C   UNL     1       3.187   6.951  18.788  0.00  0.00    +0.000 A 
ATOM      4  C   UNL     1       2.595   5.904  19.505  0.00  0.00    +0.000 A 
ATOM      5  C   UNL     1       2.896   4.561  19.130  0.00  0.00    +0.000 A 
ATOM      6  C   UNL     1       2.485   3.506  19.868  0.00  0.00    +0.000 A 
ATOM      7  N   UNL     1       2.068   2.459  19.209  0.00  0.00    +0.000 NA
ATOM      8  C   UNL     1       3.058   1.706  18.789  0.00  0.00    +0.000 A 
ATOM      9  C   UNL     1       3.622   2.583  17.942  0.00  0.00    +0.000 A 
ATOM     10  C   UNL     1       3.600   4.149  18.015  0.00  0.00    +0.000 A 
ENDROOT
BRANCH   1  15
ATOM     11  C   UNL     1       5.660   4.342  13.949  0.00  0.00    +0.000 A 
ATOM     12  C   UNL     1       7.017   4.555  14.182  0.00  0.00    +0.000 A 
ATOM     13  C   UNL     1       7.454   5.008  15.429  0.00  0.00    +0.000 A 
ATOM     14  C   UNL     1       6.527   5.365  16.408  0.00  0.00    +0.000 A 
ATOM     15  C   UNL     1       5.152   5.148  16.184  0.00  0.00    +0.000 A 
ATOM     16  C   UNL     1       4.738   4.676  14.937  0.00  0.00    +0.000 A 
BRANCH  11  18
ATOM     17  C   UNL     1       6.427   3.053  12.115  0.00  0.00    +0.000 C 
ATOM     18  O   UNL     1       5.342   3.659  12.807  0.00  0.00    +0.000 OA
ENDBRANCH  11  18
ENDBRANCH   1  15
BRANCH   4  19
ATOM     19  C   UNL     1       1.564   6.240  20.603  0.00  0.00    +0.000 C 
BRANCH  19  20
ATOM     20  N   UNL     1       1.481   7.679  20.983  0.00  0.00    +0.000 N 
ATOM     21  C   UNL     1       0.403   8.355  21.436  0.00  0.00    +0.000 C 
ATOM     22  O   UNL     1      -0.687   7.824  21.591  0.00  0.00    +0.000 OA
ATOM     23  H   UNL     1       2.341   8.142  21.133  0.00  0.00    +0.000 HD
BRANCH  21  24
ATOM     24  C   UNL     1       0.600   9.835  21.626  0.00  0.00    +0.000 C 
ATOM     25  C   UNL     1      -0.362  10.627  22.503  0.00  0.00    +0.000 C 
ATOM     26  C   UNL     1      -0.461  10.732  20.997  0.00  0.00    +0.000 C 
BRANCH  26  27
ATOM     27  C   UNL     1      -0.327  12.043  20.251  0.00  0.00    +0.000 A 
ATOM     28  C   UNL     1      -0.555  12.273  18.889  0.00  0.00    +0.000 A 
ATOM     29  C   UNL     1      -0.287  13.536  18.329  0.00  0.00    +0.000 A 
ATOM     30  C   UNL     1       0.086  14.615  19.137  0.00  0.00    +0.000 A 
ATOM     31  C   UNL     1       0.267  14.431  20.496  0.00  0.00    +0.000 A 
ATOM     32  C   UNL     1       0.068  13.162  21.030  0.00  0.00    +0.000 A 
ENDBRANCH  26  27
ENDBRANCH  21  24
ENDBRANCH  19  20
ENDBRANCH   4  19
TORSDOF 6
ENDMDL
MODEL 5
REMARK VINA RESULT:      -8.3      1.169      1.741
REMARK  Name = 
REMARK  7 active torsions:
REMARK  status: ('A' for Active; 'I' for Inactive)
REMARK    1  A    between atoms: C_1  and  O_2
REMARK    2  A    between atoms: O_2  and  C_3
REMARK    3  A    between atoms: C_7  and  C_8
REMARK    4  A    between atoms: C_11  and  C_12
REMARK    5  A    between atoms: C_12  and  N_13
REMARK    6  A    between atoms: C_14  and  C_16
REMARK    7  A    between atoms: C_18  and  C_19
REMARK                            x       y       z     vdW  Elec       q    Type
REMARK                         _______ _______ _______ _____ _____    ______ ____
ROOT
ATOM      1  C   UNL     1       4.608   5.500  16.342  0.00  0.00    +0.000 A 
ATOM      2  C   UNL     1       4.489   6.907  16.530  0.00  0.00    +0.000 A 
ATOM      3  C   UNL     1       3.880   7.403  17.679  0.00  0.00    +0.000 A 
ATOM      4  C   UNL     1       3.270   6.521  18.578  0.00  0.00    +0.000 A 
ATOM      5  C   UNL     1       3.439   5.117  18.383  0.00  0.00    +0.000 A 
ATOM      6  C   UNL     1       3.010   4.214  19.292  0.00  0.00    +0.000 A 
ATOM      7  N   UNL     1       2.464   3.125  18.821  0.00  0.00    +0.000 NA
ATOM      8  C   UNL     1       3.357   2.239  18.448  0.00  0.00    +0.000 A 
ATOM      9  C   UNL     1       3.916   2.939  17.446  0.00  0.00    +0.000 A 
ATOM     10  C   UNL     1       4.018   4.496  17.293  0.00  0.00    +0.000 A 
ENDROOT
BRANCH   1  15
ATOM     11  C   UNL     1       5.835   3.732  13.254  0.00  0.00    +0.000 A 
ATOM     12  C   UNL     1       7.184   4.084  13.248  0.00  0.00    +0.000 A 
ATOM     13  C   UNL     1       7.703   4.893  14.262  0.00  0.00    +0.000 A 
ATOM     14  C   UNL     1       6.854   5.449  15.218  0.00  0.00    +0.000 A 
ATOM     15  C   UNL     1       5.489   5.094  15.235  0.00  0.00    +0.000 A 
ATOM     16  C   UNL     1       4.994   4.269  14.223  0.00  0.00    +0.000 A 
BRANCH  11  18
ATOM     17  C   UNL     1       6.434   2.363  11.414  0.00  0.00    +0.000 C 
ATOM     18  O   UNL     1       5.466   2.740  12.386  0.00  0.00    +0.000 OA
ENDBRANCH  11  18
ENDBRANCH   1  15
BRANCH   4  19
ATOM     19  C   UNL     1       2.359   7.092  19.685  0.00  0.00    +0.000 C 
BRANCH  19  20
ATOM     20  N   UNL     1       1.614   8.332  19.321  0.00  0.00    +0.000 N 
ATOM     21  C   UNL     1       1.104   9.265  20.154  0.00  0.00    +0.000 C 
ATOM     22  O   UNL     1       1.207   9.186  21.370  0.00  0.00    +0.000 OA
ATOM     23  H   UNL     1       1.684   8.624  18.380  0.00  0.00    +0.000 HD
BRANCH  21  24
ATOM     24  C   UNL     1       0.297  10.350  19.494  0.00  0.00    +0.000 C 
ATOM     25  C   UNL     1      -0.777  11.090  20.282  0.00  0.00    +0.000 C 
ATOM     26  C   UNL     1      -1.179  10.038  19.272  0.00  0.00    +0.000 C 
BRANCH  26  27
ATOM     27  C   UNL     1      -2.081  10.331  18.091  0.00  0.00    +0.000 A 
ATOM     28  C   UNL     1      -1.966   9.831  16.789  0.00  0.00    +0.000 A 
ATOM     29  C   UNL     1      -2.833  10.283  15.777  0.00  0.00    +0.000 A 
ATOM     30  C   UNL     1      -3.902  11.134  16.075  0.00  0.00    +0.000 A 
ATOM     31  C   UNL     1      -4.074  11.602  17.365  0.00  0.00    +0.000 A 
ATOM     32  C   UNL     1      -3.169  11.207  18.345  0.00  0.00    +0.000 A 
ENDBRANCH  26  27
ENDBRANCH  21  24
ENDBRANCH  19  20
ENDBRANCH   4  19
TORSDOF 6
ENDMDL
MODEL 6
REMARK VINA RESULT:      -8.3      2.287      2.851
REMARK  Name = 
REMARK  7 active torsions:
REMARK  status: ('A' for Active; 'I' for Inactive)
REMARK    1  A    between atoms: C_1  and  O_2
REMARK    2  A    between atoms: O_2  and  C_3
REMARK    3  A    between atoms: C_7  and  C_8
REMARK    4  A    between atoms: C_11  and  C_12
REMARK    5  A    between atoms: C_12  and  N_13
REMARK    6  A    between atoms: C_14  and  C_16
REMARK    7  A    between atoms: C_18  and  C_19
REMARK                            x       y       z     vdW  Elec       q    Type
REMARK                         _______ _______ _______ _____ _____    ______ ____
ROOT
ATOM      1  C   UNL     1       3.922   5.600  18.195  0.00  0.00    +0.000 A 
ATOM      2  C   UNL     1       3.443   6.939  18.112  0.00  0.00    +0.000 A 
ATOM      3  C   UNL     1       2.618   7.442  19.114  0.00  0.00    +0.000 A 
ATOM      4  C   UNL     1       2.154   6.592  20.125  0.00  0.00    +0.000 A 
ATOM      5  C   UNL     1       2.681   5.269  20.202  0.00  0.00    +0.000 A 
ATOM      6  C   UNL     1       2.397   4.448  21.238  0.00  0.00    +0.000 A 
ATOM      7  N   UNL     1       2.187   3.193  20.947  0.00  0.00    +0.000 NA
ATOM      8  C   UNL     1       3.303   2.520  20.796  0.00  0.00    +0.000 A 
ATOM      9  C   UNL     1       3.772   3.166  19.714  0.00  0.00    +0.000 A 
ATOM     10  C   UNL     1       3.503   4.648  19.281  0.00  0.00    +0.000 A 
ENDROOT
BRANCH   1  15
ATOM     11  C   UNL     1       5.606   4.590  14.984  0.00  0.00    +0.000 A 
ATOM     12  C   UNL     1       6.913   4.365  15.413  0.00  0.00    +0.000 A 
ATOM     13  C   UNL     1       7.249   4.530  16.759  0.00  0.00    +0.000 A 
ATOM     14  C   UNL     1       6.310   5.035  17.658  0.00  0.00    +0.000 A 
ATOM     15  C   UNL     1       4.984   5.261  17.234  0.00  0.00    +0.000 A 
ATOM     16  C   UNL     1       4.664   5.072  15.888  0.00  0.00    +0.000 A 
BRANCH  11  18
ATOM     17  C   UNL     1       6.377   3.616  12.966  0.00  0.00    +0.000 C 
ATOM     18  O   UNL     1       5.302   4.161  13.720  0.00  0.00    +0.000 OA
ENDBRANCH  11  18
ENDBRANCH   1  15
BRANCH   4  19
ATOM     19  C   UNL     1       1.023   7.082  21.053  0.00  0.00    +0.000 C 
BRANCH  19  20
ATOM     20  N   UNL     1       0.509   8.452  20.767  0.00  0.00    +0.000 N 
ATOM     21  C   UNL     1       0.721   9.580  21.478  0.00  0.00    +0.000 C 
ATOM     22  O   UNL     1       1.399   9.598  22.495  0.00  0.00    +0.000 OA
ATOM     23  H   UNL     1       0.162   8.608  19.855  0.00  0.00    +0.000 HD
BRANCH  21  24
ATOM     24  C   UNL     1      -0.030  10.795  21.003  0.00  0.00    +0.000 C 
ATOM     25  C   UNL     1       0.446  12.189  21.394  0.00  0.00    +0.000 C 
ATOM     26  C   UNL     1      -0.761  11.588  22.081  0.00  0.00    +0.000 C 
BRANCH  26  27
ATOM     27  C   UNL     1      -2.127  12.241  22.068  0.00  0.00    +0.000 A 
ATOM     28  C   UNL     1      -2.750  12.887  20.994  0.00  0.00    +0.000 A 
ATOM     29  C   UNL     1      -3.988  13.533  21.177  0.00  0.00    +0.000 A 
ATOM     30  C   UNL     1      -4.677  13.433  22.390  0.00  0.00    +0.000 A 
ATOM     31  C   UNL     1      -4.110  12.755  23.453  0.00  0.00    +0.000 A 
ATOM     32  C   UNL     1      -2.855  12.180  23.285  0.00  0.00    +0.000 A 
ENDBRANCH  26  27
ENDBRANCH  21  24
ENDBRANCH  19  20
ENDBRANCH   4  19
TORSDOF 6
ENDMDL
MODEL 7
REMARK VINA RESULT:      -8.3      2.763     10.557
REMARK  Name = 
REMARK  7 active torsions:
REMARK  status: ('A' for Active; 'I' for Inactive)
REMARK    1  A    between atoms: C_1  and  O_2
REMARK    2  A    between atoms: O_2  and  C_3
REMARK    3  A    between atoms: C_7  and  C_8
REMARK    4  A    between atoms: C_11  and  C_12
REMARK    5  A    between atoms: C_12  and  N_13
REMARK    6  A    between atoms: C_14  and  C_16
REMARK    7  A    between atoms: C_18  and  C_19
REMARK                            x       y       z     vdW  Elec       q    Type
REMARK                         _______ _______ _______ _____ _____    ______ ____
ROOT
ATOM      1  C   UNL     1      -3.122  11.794  19.177  0.00  0.00    +0.000 A 
ATOM      2  C   UNL     1      -2.474  10.876  18.301  0.00  0.00    +0.000 A 
ATOM      3  C   UNL     1      -1.227  10.359  18.639  0.00  0.00    +0.000 A 
ATOM      4  C   UNL     1      -0.557  10.843  19.768  0.00  0.00    +0.000 A 
ATOM      5  C   UNL     1      -1.247  11.732  20.645  0.00  0.00    +0.000 A 
ATOM      6  C   UNL     1      -0.720  12.117  21.829  0.00  0.00    +0.000 A 
ATOM      7  N   UNL     1      -0.894  13.366  22.167  0.00  0.00    +0.000 NA
ATOM      8  C   UNL     1      -2.078  13.582  22.690  0.00  0.00    +0.000 A 
ATOM      9  C   UNL     1      -2.822  13.295  21.608  0.00  0.00    +0.000 A 
ATOM     10  C   UNL     1      -2.479  12.318  20.431  0.00  0.00    +0.000 A 
ENDROOT
BRANCH   1  15
ATOM     11  C   UNL     1      -6.815  12.368  19.627  0.00  0.00    +0.000 A 
ATOM     12  C   UNL     1      -7.264  12.343  18.308  0.00  0.00    +0.000 A 
ATOM     13  C   UNL     1      -6.363  12.125  17.263  0.00  0.00    +0.000 A 
ATOM     14  C   UNL     1      -4.995  12.051  17.522  0.00  0.00    +0.000 A 
ATOM     15  C   UNL     1      -4.531  12.070  18.854  0.00  0.00    +0.000 A 
ATOM     16  C   UNL     1      -5.451  12.270  19.886  0.00  0.00    +0.000 A 
BRANCH  11  18
ATOM     17  C   UNL     1      -7.329  12.455  21.939  0.00  0.00    +0.000 C 
ATOM     18  O   UNL     1      -7.780  12.327  20.596  0.00  0.00    +0.000 OA
ENDBRANCH  11  18
ENDBRANCH   1  15
BRANCH   4  19
ATOM     19  C   UNL     1       0.929  10.479  19.969  0.00  0.00    +0.000 C 
BRANCH  19  20
ATOM     20  N   UNL     1       1.352   9.174  19.384  0.00  0.00    +0.000 N 
ATOM     21  C   UNL     1       1.945   8.956  18.190  0.00  0.00    +0.000 C 
ATOM     22  O   UNL     1       2.213   9.863  17.415  0.00  0.00    +0.000 OA
ATOM     23  H   UNL     1       1.411   8.412  20.009  0.00  0.00    +0.000 HD
BRANCH  21  24
ATOM     24  C   UNL     1       2.146   7.511  17.821  0.00  0.00    +0.000 C 
ATOM     25  C   UNL     1       2.503   6.491  18.895  0.00  0.00    +0.000 C 
ATOM     26  C   UNL     1       3.572   6.986  17.946  0.00  0.00    +0.000 C 
BRANCH  26  27
ATOM     27  C   UNL     1       4.365   6.063  17.045  0.00  0.00    +0.000 A 
ATOM     28  C   UNL     1       5.137   6.418  15.933  0.00  0.00    +0.000 A 
ATOM     29  C   UNL     1       5.735   5.423  15.137  0.00  0.00    +0.000 A 
ATOM     30  C   UNL     1       5.678   4.076  15.510  0.00  0.00    +0.000 A 
ATOM     31  C   UNL     1       4.966   3.700  16.634  0.00  0.00    +0.000 A 
ATOM     32  C   UNL     1       4.320   4.683  17.376  0.00  0.00    +0.000 A 
ENDBRANCH  26  27
ENDBRANCH  21  24
ENDBRANCH  19  20
ENDBRANCH   4  19
TORSDOF 6
ENDMDL
MODEL 8
REMARK VINA RESULT:      -8.2      2.208      3.303
REMARK  Name = 
REMARK  7 active torsions:
REMARK  status: ('A' for Active; 'I' for Inactive)
REMARK    1  A    between atoms: C_1  and  O_2
REMARK    2  A    between atoms: O_2  and  C_3
REMARK    3  A    between atoms: C_7  and  C_8
REMARK    4  A    between atoms: C_11  and  C_12
REMARK    5  A    between atoms: C_12  and  N_13
REMARK    6  A    between atoms: C_14  and  C_16
REMARK    7  A    between atoms: C_18  and  C_19
REMARK                            x       y       z     vdW  Elec       q    Type
REMARK                         _______ _______ _______ _____ _____    ______ ____
ROOT
ATOM      1  C   UNL     1       3.561   5.796  18.455  0.00  0.00    +0.000 A 
ATOM      2  C   UNL     1       3.105   7.142  18.359  0.00  0.00    +0.000 A 
ATOM      3  C   UNL     1       2.249   7.654  19.329  0.00  0.00    +0.000 A 
ATOM      4  C   UNL     1       1.734   6.808  20.318  0.00  0.00    +0.000 A 
ATOM      5  C   UNL     1       2.239   5.476  20.411  0.00  0.00    +0.000 A 
ATOM      6  C   UNL     1       1.902   4.656  21.431  0.00  0.00    +0.000 A 
ATOM      7  N   UNL     1       1.685   3.405  21.127  0.00  0.00    +0.000 NA
ATOM      8  C   UNL     1       2.797   2.716  21.016  0.00  0.00    +0.000 A 
ATOM      9  C   UNL     1       3.317   3.359  19.957  0.00  0.00    +0.000 A 
ATOM     10  C   UNL     1       3.086   4.847  19.520  0.00  0.00    +0.000 A 
ENDROOT
BRANCH   1  15
ATOM     11  C   UNL     1       6.831   5.985  16.599  0.00  0.00    +0.000 A 
ATOM     12  C   UNL     1       6.665   4.989  15.639  0.00  0.00    +0.000 A 
ATOM     13  C   UNL     1       5.476   4.257  15.584  0.00  0.00    +0.000 A 
ATOM     14  C   UNL     1       4.498   4.436  16.562  0.00  0.00    +0.000 A 
ATOM     15  C   UNL     1       4.655   5.444  17.534  0.00  0.00    +0.000 A 
ATOM     16  C   UNL     1       5.843   6.178  17.560  0.00  0.00    +0.000 A 
BRANCH  11  18
ATOM     17  C   UNL     1       8.001   7.910  17.334  0.00  0.00    +0.000 C 
ATOM     18  O   UNL     1       7.901   6.820  16.425  0.00  0.00    +0.000 OA
ENDBRANCH  11  18
ENDBRANCH   1  15
BRANCH   4  19
ATOM     19  C   UNL     1       0.575   7.310  21.203  0.00  0.00    +0.000 C 
BRANCH  19  20
ATOM     20  N   UNL     1       0.120   8.703  20.930  0.00  0.00    +0.000 N 
ATOM     21  C   UNL     1       0.469   9.832  21.586  0.00  0.00    +0.000 C 
ATOM     22  O   UNL     1       1.242   9.828  22.533  0.00  0.00    +0.000 OA
ATOM     23  H   UNL     1      -0.304   8.861  20.052  0.00  0.00    +0.000 HD
BRANCH  21  24
ATOM     24  C   UNL     1      -0.250  11.081  21.152  0.00  0.00    +0.000 C 
ATOM     25  C   UNL     1      -1.105  11.072  19.891  0.00  0.00    +0.000 C 
ATOM     26  C   UNL     1       0.258  11.727  19.868  0.00  0.00    +0.000 C 
BRANCH  26  27
ATOM     27  C   UNL     1       0.466  13.185  19.514  0.00  0.00    +0.000 A 
ATOM     28  C   UNL     1      -0.502  14.194  19.464  0.00  0.00    +0.000 A 
ATOM     29  C   UNL     1      -0.160  15.484  19.017  0.00  0.00    +0.000 A 
ATOM     30  C   UNL     1       1.170  15.818  18.739  0.00  0.00    +0.000 A 
ATOM     31  C   UNL     1       2.158  14.855  18.831  0.00  0.00    +0.000 A 
ATOM     32  C   UNL     1       1.799  13.564  19.206  0.00  0.00    +0.000 A 
ENDBRANCH  26  27
ENDBRANCH  21  24
ENDBRANCH  19  20
ENDBRANCH   4  19
TORSDOF 6
ENDMDL
MODEL 9
REMARK VINA RESULT:      -8.2      2.332      3.301
REMARK  Name = 
REMARK  7 active torsions:
REMARK  status: ('A' for Active; 'I' for Inactive)
REMARK    1  A    between atoms: C_1  and  O_2
REMARK    2  A    between atoms: O_2  and  C_3
REMARK    3  A    between atoms: C_7  and  C_8
REMARK    4  A    between atoms: C_11  and  C_12
REMARK    5  A    between atoms: C_12  and  N_13
REMARK    6  A    between atoms: C_14  and  C_16
REMARK    7  A    between atoms: C_18  and  C_19
REMARK                            x       y       z     vdW  Elec       q    Type
REMARK                         _______ _______ _______ _____ _____    ______ ____
ROOT
ATOM      1  C   UNL     1       3.963   5.852  17.961  0.00  0.00    +0.000 A 
ATOM      2  C   UNL     1       3.576   7.212  17.783  0.00  0.00    +0.000 A 
ATOM      3  C   UNL     1       2.744   7.822  18.717  0.00  0.00    +0.000 A 
ATOM      4  C   UNL     1       2.183   7.062  19.750  0.00  0.00    +0.000 A 
ATOM      5  C   UNL     1       2.619   5.715  19.924  0.00  0.00    +0.000 A 
ATOM      6  C   UNL     1       2.238   4.974  20.988  0.00  0.00    +0.000 A 
ATOM      7  N   UNL     1       1.959   3.720  20.756  0.00  0.00    +0.000 NA
ATOM      8  C   UNL     1       3.035   2.971  20.694  0.00  0.00    +0.000 A 
ATOM      9  C   UNL     1       3.590   3.523  19.602  0.00  0.00    +0.000 A 
ATOM     10  C   UNL     1       3.437   4.993  19.077  0.00  0.00    +0.000 A 
ENDROOT
BRANCH   1  15
ATOM     11  C   UNL     1       5.704   4.487  14.916  0.00  0.00    +0.000 A 
ATOM     12  C   UNL     1       6.992   4.272  15.403  0.00  0.00    +0.000 A 
ATOM     13  C   UNL     1       7.296   4.560  16.736  0.00  0.00    +0.000 A 
ATOM     14  C   UNL     1       6.348   5.176  17.553  0.00  0.00    +0.000 A 
ATOM     15  C   UNL     1       5.041   5.393  17.070  0.00  0.00    +0.000 A 
ATOM     16  C   UNL     1       4.752   5.080  15.740  0.00  0.00    +0.000 A 
BRANCH  11  18
ATOM     17  C   UNL     1       6.522   3.796  12.802  0.00  0.00    +0.000 C 
ATOM     18  O   UNL     1       5.422   3.943  13.692  0.00  0.00    +0.000 OA
ENDBRANCH  11  18
ENDBRANCH   1  15
BRANCH   4  19
ATOM     19  C   UNL     1       1.048   7.674  20.597  0.00  0.00    +0.000 C 
BRANCH  19  20
ATOM     20  N   UNL     1       1.119   9.150  20.791  0.00  0.00    +0.000 N 
ATOM     21  C   UNL     1       0.189  10.074  20.466  0.00  0.00    +0.000 C 
ATOM     22  O   UNL     1      -0.877   9.777  19.946  0.00  0.00    +0.000 OA
ATOM     23  H   UNL     1       1.812   9.477  21.415  0.00  0.00    +0.000 HD
BRANCH  21  24
ATOM     24  C   UNL     1       0.598  11.507  20.677  0.00  0.00    +0.000 C 
ATOM     25  C   UNL     1      -0.446  12.615  20.626  0.00  0.00    +0.000 C 
ATOM     26  C   UNL     1       0.492  12.415  19.456  0.00  0.00    +0.000 C 
BRANCH  26  27
ATOM     27  C   UNL     1       1.421  13.498  18.949  0.00  0.00    +0.000 A 
ATOM     28  C   UNL     1       2.698  13.334  18.400  0.00  0.00    +0.000 A 
ATOM     29  C   UNL     1       3.477  14.458  18.067  0.00  0.00    +0.000 A 
ATOM     30  C   UNL     1       2.947  15.749  18.157  0.00  0.00    +0.000 A 
ATOM     31  C   UNL     1       1.668  15.940  18.646  0.00  0.00    +0.000 A 
ATOM     32  C   UNL     1       0.931  14.827  19.039  0.00  0.00    +0.000 A 
ENDBRANCH  26  27
ENDBRANCH  21  24
ENDBRANCH  19  20
ENDBRANCH   4  19
TORSDOF 6
ENDMDL
