MODEL 1
REMARK VINA RESULT:      -8.6      0.000      0.000
REMARK  Name = 
REMARK  11 active torsions:
REMARK  status: ('A' for Active; 'I' for Inactive)
REMARK    1  A    between atoms: C_1  and  C_2
REMARK    2  A    between atoms: C_2  and  N_3
REMARK    3  A    between atoms: C_2  and  C_26
REMARK    4  A    between atoms: C_4  and  C_6
REMARK    5  A    between atoms: C_6  and  C_7
REMARK    6  A    between atoms: C_6  and  N_13
REMARK    7  A    between atoms: C_7  and  C_8
REMARK    8  A    between atoms: C_14  and  C_16
REMARK    9  A    between atoms: C_17  and  C_18
REMARK   10  A    between atoms: C_21  and  O_22
REMARK   11  A    between atoms: C_23  and  O_24
REMARK                            x       y       z     vdW  Elec       q    Type
REMARK                         _______ _______ _______ _____ _____    ______ ____
ROOT
ATOM      1  C   UNL     1       6.129   6.300  17.057  0.00  0.00    +0.000 C 
ENDROOT
BRANCH   1   3
ATOM      2  N   UNL     1       6.240   5.257  14.842  0.00  0.00    +0.000 N 
ATOM      3  C   UNL     1       6.844   5.348  16.081  0.00  0.00    +0.000 C 
ATOM      4  O   UNL     1       7.835   4.695  16.394  0.00  0.00    +0.000 OA
ATOM      5  H   UNL     1       5.254   5.516  14.791  0.00  0.00    +0.000 HD
BRANCH   2   7
ATOM      6  C   UNL     1       5.614   3.634  13.104  0.00  0.00    +0.000 C 
ATOM      7  C   UNL     1       6.757   4.345  13.815  0.00  0.00    +0.000 C 
BRANCH   7   8
ATOM      8  C   UNL     1       7.648   5.061  12.781  0.00  0.00    +0.000 C 
ATOM      9  N   UNL     1       8.638   5.856  13.285  0.00  0.00    +0.000 N 
ATOM     10  O   UNL     1       7.535   4.916  11.567  0.00  0.00    +0.000 OA
ATOM     11  H   UNL     1       8.891   5.805  14.261  0.00  0.00    +0.000 HD
ATOM     12  H   UNL     1       9.288   6.262  12.625  0.00  0.00    +0.000 HD
ENDBRANCH   7   8
ENDBRANCH   2   7
ENDBRANCH   1   3
BRANCH   1  13
ATOM     13  N   UNL     1       6.851   7.570  17.094  0.00  0.00    +0.000 N 
ATOM     14  C   UNL     1       7.824   7.809  18.025  0.00  0.00    +0.000 C 
ATOM     15  O   UNL     1       8.188   6.965  18.837  0.00  0.00    +0.000 OA
ATOM     16  H   UNL     1       6.666   8.244  16.363  0.00  0.00    +0.000 HD
BRANCH  14  17
ATOM     17  C   UNL     1       8.402   9.173  17.944  0.00  0.00    +0.000 C 
ATOM     18  C   UNL     1       9.138   9.658  18.958  0.00  0.00    +0.000 C 
BRANCH  18  19
ATOM     19  C   UNL     1       9.750  10.998  18.976  0.00  0.00    +0.000 A 
ATOM     20  C   UNL     1      10.220  11.515  20.197  0.00  0.00    +0.000 A 
ATOM     21  C   UNL     1      10.847  12.766  20.260  0.00  0.00    +0.000 A 
ATOM     22  C   UNL     1      11.013  13.499  19.094  0.00  0.00    +0.000 A 
ATOM     23  C   UNL     1      10.561  12.992  17.880  0.00  0.00    +0.000 A 
ATOM     24  C   UNL     1       9.939  11.751  17.809  0.00  0.00    +0.000 A 
BRANCH  22  25
ATOM     25  O   UNL     1      11.623  14.723  19.084  0.00  0.00    +0.000 OA
ATOM     26  H   UNL     1      11.947  14.910  19.982  0.00  0.00    +0.000 HD
ENDBRANCH  22  25
BRANCH  23  27
ATOM     27  O   UNL     1      10.736  13.713  16.733  0.00  0.00    +0.000 OA
ATOM     28  H   UNL     1      11.091  13.068  16.089  0.00  0.00    +0.000 HD
ENDBRANCH  23  27
ENDBRANCH  18  19
ENDBRANCH  14  17
ENDBRANCH   1  13
BRANCH   1  29
ATOM     29  C   UNL     1       4.663   6.475  16.628  0.00  0.00    +0.000 C 
BRANCH  29  30
ATOM     30  C   UNL     1       3.732   6.683  17.779  0.00  0.00    +0.000 A 
ATOM     31  C   UNL     1       2.843   7.699  18.060  0.00  0.00    +0.000 A 
ATOM     32  N   UNL     1       2.199   7.472  19.247  0.00  0.00    +0.000 NA
ATOM     33  C   UNL     1       2.669   6.329  19.686  0.00  0.00    +0.000 A 
ATOM     34  N   UNL     1       3.593   5.804  18.827  0.00  0.00    +0.000 N 
ATOM     35  H   UNL     1       4.085   4.931  18.959  0.00  0.00    +0.000 HD
ENDBRANCH  29  30
ENDBRANCH   1  29
TORSDOF 10
ENDMDL
MODEL 2
REMARK VINA RESULT:      -8.4      1.193      1.440
REMARK  Name = 
REMARK  11 active torsions:
REMARK  status: ('A' for Active; 'I' for Inactive)
REMARK    1  A    between atoms: C_1  and  C_2
REMARK    2  A    between atoms: C_2  and  N_3
REMARK    3  A    between atoms: C_2  and  C_26
REMARK    4  A    between atoms: C_4  and  C_6
REMARK    5  A    between atoms: C_6  and  C_7
REMARK    6  A    between atoms: C_6  and  N_13
REMARK    7  A    between atoms: C_7  and  C_8
REMARK    8  A    between atoms: C_14  and  C_16
REMARK    9  A    between atoms: C_17  and  C_18
REMARK   10  A    between atoms: C_21  and  O_22
REMARK   11  A    between atoms: C_23  and  O_24
REMARK                            x       y       z     vdW  Elec       q    Type
REMARK                         _______ _______ _______ _____ _____    ______ ____
ROOT
ATOM      1  C   UNL     1       6.228   6.256  17.308  0.00  0.00    +0.000 C 
ENDROOT
BRANCH   1   3
ATOM      2  N   UNL     1       6.245   5.285  15.058  0.00  0.00    +0.000 N 
ATOM      3  C   UNL     1       6.844   5.267  16.303  0.00  0.00    +0.000 C 
ATOM      4  O   UNL     1       7.756   4.499  16.597  0.00  0.00    +0.000 OA
ATOM      5  H   UNL     1       5.293   5.651  15.011  0.00  0.00    +0.000 HD
BRANCH   2   7
ATOM      6  C   UNL     1       5.463   3.792  13.268  0.00  0.00    +0.000 C 
ATOM      7  C   UNL     1       6.670   4.359  14.002  0.00  0.00    +0.000 C 
BRANCH   7   8
ATOM      8  C   UNL     1       7.633   5.013  12.992  0.00  0.00    +0.000 C 
ATOM      9  N   UNL     1       7.460   4.668  11.682  0.00  0.00    +0.000 N 
ATOM     10  O   UNL     1       8.490   5.836  13.302  0.00  0.00    +0.000 OA
ATOM     11  H   UNL     1       6.626   4.182  11.384  0.00  0.00    +0.000 HD
ATOM     12  H   UNL     1       8.021   5.154  10.996  0.00  0.00    +0.000 HD
ENDBRANCH   7   8
ENDBRANCH   2   7
ENDBRANCH   1   3
BRANCH   1  13
ATOM     13  N   UNL     1       6.893   7.550  17.168  0.00  0.00    +0.000 N 
ATOM     14  C   UNL     1       7.904   7.926  18.009  0.00  0.00    +0.000 C 
ATOM     15  O   UNL     1       8.350   7.188  18.882  0.00  0.00    +0.000 OA
ATOM     16  H   UNL     1       6.637   8.134  16.382  0.00  0.00    +0.000 HD
BRANCH  14  17
ATOM     17  C   UNL     1       8.414   9.294  17.750  0.00  0.00    +0.000 C 
ATOM     18  C   UNL     1       9.168   9.920  18.669  0.00  0.00    +0.000 C 
BRANCH  18  19
ATOM     19  C   UNL     1       9.718  11.278  18.510  0.00  0.00    +0.000 A 
ATOM     20  C   UNL     1       9.197  12.319  19.299  0.00  0.00    +0.000 A 
ATOM     21  C   UNL     1       9.713  13.620  19.216  0.00  0.00    +0.000 A 
ATOM     22  C   UNL     1      10.763  13.875  18.345  0.00  0.00    +0.000 A 
ATOM     23  C   UNL     1      11.292  12.850  17.569  0.00  0.00    +0.000 A 
ATOM     24  C   UNL     1      10.786  11.558  17.647  0.00  0.00    +0.000 A 
BRANCH  22  25
ATOM     25  O   UNL     1      11.318  15.119  18.221  0.00  0.00    +0.000 OA
ATOM     26  H   UNL     1      10.962  15.684  18.927  0.00  0.00    +0.000 HD
ENDBRANCH  22  25
BRANCH  23  27
ATOM     27  O   UNL     1      12.333  13.105  16.721  0.00  0.00    +0.000 OA
ATOM     28  H   UNL     1      13.133  12.891  17.243  0.00  0.00    +0.000 HD
ENDBRANCH  23  27
ENDBRANCH  18  19
ENDBRANCH  14  17
ENDBRANCH   1  13
BRANCH   1  29
ATOM     29  C   UNL     1       4.710   6.352  17.076  0.00  0.00    +0.000 C 
BRANCH  29  30
ATOM     30  C   UNL     1       3.927   5.368  17.883  0.00  0.00    +0.000 A 
ATOM     31  C   UNL     1       3.470   4.102  17.582  0.00  0.00    +0.000 A 
ATOM     32  N   UNL     1       2.780   3.568  18.637  0.00  0.00    +0.000 NA
ATOM     33  C   UNL     1       2.823   4.479  19.580  0.00  0.00    +0.000 A 
ATOM     34  N   UNL     1       3.517   5.584  19.177  0.00  0.00    +0.000 N 
ATOM     35  H   UNL     1       3.679   6.410  19.737  0.00  0.00    +0.000 HD
ENDBRANCH  29  30
ENDBRANCH   1  29
TORSDOF 10
ENDMDL
MODEL 3
REMARK VINA RESULT:      -8.3      1.040      1.563
REMARK  Name = 
REMARK  11 active torsions:
REMARK  status: ('A' for Active; 'I' for Inactive)
REMARK    1  A    between atoms: C_1  and  C_2
REMARK    2  A    between atoms: C_2  and  N_3
REMARK    3  A    between atoms: C_2  and  C_26
REMARK    4  A    between atoms: C_4  and  C_6
REMARK    5  A    between atoms: C_6  and  C_7
REMARK    6  A    between atoms: C_6  and  N_13
REMARK    7  A    between atoms: C_7  and  C_8
REMARK    8  A    between atoms: C_14  and  C_16
REMARK    9  A    between atoms: C_17  and  C_18
REMARK   10  A    between atoms: C_21  and  O_22
REMARK   11  A    between atoms: C_23  and  O_24
REMARK                            x       y       z     vdW  Elec       q    Type
REMARK                         _______ _______ _______ _____ _____    ______ ____
ROOT
ATOM      1  C   UNL     1       6.250   6.169  17.216  0.00  0.00    +0.000 C 
ENDROOT
BRANCH   1   3
ATOM      2  N   UNL     1       6.292   5.202  14.963  0.00  0.00    +0.000 N 
ATOM      3  C   UNL     1       6.927   5.242  16.189  0.00  0.00    +0.000 C 
ATOM      4  O   UNL     1       7.918   4.566  16.454  0.00  0.00    +0.000 OA
ATOM      5  H   UNL     1       5.308   5.475  14.946  0.00  0.00    +0.000 HD
BRANCH   2   7
ATOM      6  C   UNL     1       5.602   3.646  13.189  0.00  0.00    +0.000 C 
ATOM      7  C   UNL     1       6.771   4.321  13.893  0.00  0.00    +0.000 C 
BRANCH   7   8
ATOM      8  C   UNL     1       7.642   5.063  12.860  0.00  0.00    +0.000 C 
ATOM      9  N   UNL     1       8.642   5.845  13.364  0.00  0.00    +0.000 N 
ATOM     10  O   UNL     1       7.505   4.949  11.645  0.00  0.00    +0.000 OA
ATOM     11  H   UNL     1       8.914   5.770  14.333  0.00  0.00    +0.000 HD
ATOM     12  H   UNL     1       9.278   6.267  12.702  0.00  0.00    +0.000 HD
ENDBRANCH   7   8
ENDBRANCH   2   7
ENDBRANCH   1   3
BRANCH   1  13
ATOM     13  N   UNL     1       6.885   7.483  17.160  0.00  0.00    +0.000 N 
ATOM     14  C   UNL     1       7.877   7.833  18.034  0.00  0.00    +0.000 C 
ATOM     15  O   UNL     1       8.329   7.057  18.870  0.00  0.00    +0.000 OA
ATOM     16  H   UNL     1       6.626   8.106  16.405  0.00  0.00    +0.000 HD
BRANCH  14  17
ATOM     17  C   UNL     1       8.357   9.226  17.862  0.00  0.00    +0.000 C 
ATOM     18  C   UNL     1       9.122   9.800  18.806  0.00  0.00    +0.000 C 
BRANCH  18  19
ATOM     19  C   UNL     1       9.644  11.175  18.731  0.00  0.00    +0.000 A 
ATOM     20  C   UNL     1      10.537  11.508  17.697  0.00  0.00    +0.000 A 
ATOM     21  C   UNL     1      11.030  12.812  17.557  0.00  0.00    +0.000 A 
ATOM     22  C   UNL     1      10.618  13.790  18.451  0.00  0.00    +0.000 A 
ATOM     23  C   UNL     1       9.726  13.473  19.470  0.00  0.00    +0.000 A 
ATOM     24  C   UNL     1       9.232  12.182  19.615  0.00  0.00    +0.000 A 
BRANCH  22  25
ATOM     25  O   UNL     1      11.054  15.083  18.367  0.00  0.00    +0.000 OA
ATOM     26  H   UNL     1      11.933  15.083  17.951  0.00  0.00    +0.000 HD
ENDBRANCH  22  25
BRANCH  23  27
ATOM     27  O   UNL     1       9.315  14.442  20.342  0.00  0.00    +0.000 OA
ATOM     28  H   UNL     1       9.683  14.167  21.206  0.00  0.00    +0.000 HD
ENDBRANCH  23  27
ENDBRANCH  18  19
ENDBRANCH  14  17
ENDBRANCH   1  13
BRANCH   1  29
ATOM     29  C   UNL     1       4.740   6.238  16.932  0.00  0.00    +0.000 C 
BRANCH  29  30
ATOM     30  C   UNL     1       3.926   5.399  17.864  0.00  0.00    +0.000 A 
ATOM     31  C   UNL     1       3.041   4.369  17.625  0.00  0.00    +0.000 A 
ATOM     32  N   UNL     1       2.515   3.894  18.796  0.00  0.00    +0.000 NA
ATOM     33  C   UNL     1       3.074   4.607  19.744  0.00  0.00    +0.000 A 
ATOM     34  N   UNL     1       3.947   5.525  19.233  0.00  0.00    +0.000 N 
ATOM     35  H   UNL     1       4.492   6.180  19.775  0.00  0.00    +0.000 HD
ENDBRANCH  29  30
ENDBRANCH   1  29
TORSDOF 10
ENDMDL
MODEL 4
REMARK VINA RESULT:      -8.3      2.190      4.762
REMARK  Name = 
REMARK  11 active torsions:
REMARK  status: ('A' for Active; 'I' for Inactive)
REMARK    1  A    between atoms: C_1  and  C_2
REMARK    2  A    between atoms: C_2  and  N_3
REMARK    3  A    between atoms: C_2  and  C_26
REMARK    4  A    between atoms: C_4  and  C_6
REMARK    5  A    between atoms: C_6  and  C_7
REMARK    6  A    between atoms: C_6  and  N_13
REMARK    7  A    between atoms: C_7  and  C_8
REMARK    8  A    between atoms: C_14  and  C_16
REMARK    9  A    between atoms: C_17  and  C_18
REMARK   10  A    between atoms: C_21  and  O_22
REMARK   11  A    between atoms: C_23  and  O_24
REMARK                            x       y       z     vdW  Elec       q    Type
REMARK                         _______ _______ _______ _____ _____    ______ ____
ROOT
ATOM      1  C   UNL     1       5.548   5.907  16.371  0.00  0.00    +0.000 C 
ENDROOT
BRANCH   1   3
ATOM      2  N   UNL     1       4.586   4.189  17.831  0.00  0.00    +0.000 N 
ATOM      3  C   UNL     1       4.743   5.547  17.633  0.00  0.00    +0.000 C 
ATOM      4  O   UNL     1       4.249   6.394  18.372  0.00  0.00    +0.000 OA
ATOM      5  H   UNL     1       4.686   3.590  17.010  0.00  0.00    +0.000 HD
BRANCH   2   7
ATOM      6  C   UNL     1       2.314   3.632  18.588  0.00  0.00    +0.000 C 
ATOM      7  C   UNL     1       3.792   3.676  18.953  0.00  0.00    +0.000 C 
BRANCH   7   8
ATOM      8  C   UNL     1       4.255   2.281  19.418  0.00  0.00    +0.000 C 
ATOM      9  N   UNL     1       4.028   1.250  18.551  0.00  0.00    +0.000 N 
ATOM     10  O   UNL     1       4.838   2.075  20.478  0.00  0.00    +0.000 OA
ATOM     11  H   UNL     1       3.765   1.431  17.593  0.00  0.00    +0.000 HD
ATOM     12  H   UNL     1       4.404   0.345  18.799  0.00  0.00    +0.000 HD
ENDBRANCH   7   8
ENDBRANCH   2   7
ENDBRANCH   1   3
BRANCH   1  13
ATOM     13  N   UNL     1       6.244   7.173  16.597  0.00  0.00    +0.000 N 
ATOM     14  C   UNL     1       7.299   7.260  17.462  0.00  0.00    +0.000 C 
ATOM     15  O   UNL     1       7.760   6.286  18.049  0.00  0.00    +0.000 OA
ATOM     16  H   UNL     1       5.972   7.971  16.038  0.00  0.00    +0.000 HD
BRANCH  14  17
ATOM     17  C   UNL     1       7.837   8.635  17.606  0.00  0.00    +0.000 C 
ATOM     18  C   UNL     1       8.569   8.967  18.682  0.00  0.00    +0.000 C 
BRANCH  18  19
ATOM     19  C   UNL     1       9.142  10.303  18.919  0.00  0.00    +0.000 A 
ATOM     20  C   UNL     1       9.725  10.581  20.169  0.00  0.00    +0.000 A 
ATOM     21  C   UNL     1      10.321  11.822  20.431  0.00  0.00    +0.000 A 
ATOM     22  C   UNL     1      10.343  12.785  19.432  0.00  0.00    +0.000 A 
ATOM     23  C   UNL     1       9.780  12.515  18.189  0.00  0.00    +0.000 A 
ATOM     24  C   UNL     1       9.187  11.287  17.922  0.00  0.00    +0.000 A 
BRANCH  22  25
ATOM     25  O   UNL     1      10.915  14.013  19.618  0.00  0.00    +0.000 OA
ATOM     26  H   UNL     1      11.408  14.246  18.813  0.00  0.00    +0.000 HD
ENDBRANCH  22  25
BRANCH  23  27
ATOM     27  O   UNL     1       9.814  13.463  17.206  0.00  0.00    +0.000 OA
ATOM     28  H   UNL     1       9.315  14.219  17.576  0.00  0.00    +0.000 HD
ENDBRANCH  23  27
ENDBRANCH  18  19
ENDBRANCH  14  17
ENDBRANCH   1  13
BRANCH   1  29
ATOM     29  C   UNL     1       6.515   4.762  16.031  0.00  0.00    +0.000 C 
BRANCH  29  30
ATOM     30  C   UNL     1       6.819   4.660  14.571  0.00  0.00    +0.000 A 
ATOM     31  C   UNL     1       6.289   3.855  13.584  0.00  0.00    +0.000 A 
ATOM     32  N   UNL     1       6.886   4.104  12.377  0.00  0.00    +0.000 NA
ATOM     33  C   UNL     1       7.757   5.057  12.608  0.00  0.00    +0.000 A 
ATOM     34  N   UNL     1       7.747   5.437  13.920  0.00  0.00    +0.000 N 
ATOM     35  H   UNL     1       8.333   6.154  14.326  0.00  0.00    +0.000 HD
ENDBRANCH  29  30
ENDBRANCH   1  29
TORSDOF 10
ENDMDL
MODEL 5
REMARK VINA RESULT:      -8.2      2.337      4.867
REMARK  Name = 
REMARK  11 active torsions:
REMARK  status: ('A' for Active; 'I' for Inactive)
REMARK    1  A    between atoms: C_1  and  C_2
REMARK    2  A    between atoms: C_2  and  N_3
REMARK    3  A    between atoms: C_2  and  C_26
REMARK    4  A    between atoms: C_4  and  C_6
REMARK    5  A    between atoms: C_6  and  C_7
REMARK    6  A    between atoms: C_6  and  N_13
REMARK    7  A    between atoms: C_7  and  C_8
REMARK    8  A    between atoms: C_14  and  C_16
REMARK    9  A    between atoms: C_17  and  C_18
REMARK   10  A    between atoms: C_21  and  O_22
REMARK   11  A    between atoms: C_23  and  O_24
REMARK                            x       y       z     vdW  Elec       q    Type
REMARK                         _______ _______ _______ _____ _____    ______ ____
ROOT
ATOM      1  C   UNL     1       5.560   6.036  16.193  0.00  0.00    +0.000 C 
ENDROOT
BRANCH   1   3
ATOM      2  N   UNL     1       4.315   4.280  17.365  0.00  0.00    +0.000 N 
ATOM      3  C   UNL     1       4.623   5.627  17.344  0.00  0.00    +0.000 C 
ATOM      4  O   UNL     1       4.158   6.434  18.144  0.00  0.00    +0.000 OA
ATOM      5  H   UNL     1       4.421   3.770  16.487  0.00  0.00    +0.000 HD
BRANCH   2   7
ATOM      6  C   UNL     1       1.981   3.625  17.778  0.00  0.00    +0.000 C 
ATOM      7  C   UNL     1       3.383   3.735  18.359  0.00  0.00    +0.000 C 
BRANCH   7   8
ATOM      8  C   UNL     1       3.831   2.362  18.900  0.00  0.00    +0.000 C 
ATOM      9  N   UNL     1       4.914   2.366  19.733  0.00  0.00    +0.000 N 
ATOM     10  O   UNL     1       3.249   1.310  18.655  0.00  0.00    +0.000 OA
ATOM     11  H   UNL     1       5.258   3.230  20.126  0.00  0.00    +0.000 HD
ATOM     12  H   UNL     1       5.167   1.489  20.168  0.00  0.00    +0.000 HD
ENDBRANCH   7   8
ENDBRANCH   2   7
ENDBRANCH   1   3
BRANCH   1  13
ATOM     13  N   UNL     1       6.226   7.289  16.546  0.00  0.00    +0.000 N 
ATOM     14  C   UNL     1       7.274   7.315  17.424  0.00  0.00    +0.000 C 
ATOM     15  O   UNL     1       7.753   6.299  17.918  0.00  0.00    +0.000 OA
ATOM     16  H   UNL     1       5.940   8.131  16.065  0.00  0.00    +0.000 HD
BRANCH  14  17
ATOM     17  C   UNL     1       7.780   8.681  17.705  0.00  0.00    +0.000 C 
ATOM     18  C   UNL     1       8.695   8.879  18.668  0.00  0.00    +0.000 C 
BRANCH  18  19
ATOM     19  C   UNL     1       9.256  10.194  19.025  0.00  0.00    +0.000 A 
ATOM     20  C   UNL     1       9.657  11.064  17.996  0.00  0.00    +0.000 A 
ATOM     21  C   UNL     1      10.158  12.342  18.281  0.00  0.00    +0.000 A 
ATOM     22  C   UNL     1      10.247  12.753  19.603  0.00  0.00    +0.000 A 
ATOM     23  C   UNL     1       9.842  11.904  20.628  0.00  0.00    +0.000 A 
ATOM     24  C   UNL     1       9.344  10.635  20.353  0.00  0.00    +0.000 A 
BRANCH  22  25
ATOM     25  O   UNL     1      10.719  13.989  19.951  0.00  0.00    +0.000 OA
ATOM     26  H   UNL     1      10.544  14.127  20.897  0.00  0.00    +0.000 HD
ENDBRANCH  22  25
BRANCH  23  27
ATOM     27  O   UNL     1       9.922  12.317  21.928  0.00  0.00    +0.000 OA
ATOM     28  H   UNL     1       9.222  12.995  22.014  0.00  0.00    +0.000 HD
ENDBRANCH  23  27
ENDBRANCH  18  19
ENDBRANCH  14  17
ENDBRANCH   1  13
BRANCH   1  29
ATOM     29  C   UNL     1       6.560   4.902  15.912  0.00  0.00    +0.000 C 
BRANCH  29  30
ATOM     30  C   UNL     1       6.812   4.685  14.456  0.00  0.00    +0.000 A 
ATOM     31  C   UNL     1       6.255   3.801  13.556  0.00  0.00    +0.000 A 
ATOM     32  N   UNL     1       6.806   3.956  12.312  0.00  0.00    +0.000 NA
ATOM     33  C   UNL     1       7.677   4.929  12.435  0.00  0.00    +0.000 A 
ATOM     34  N   UNL     1       7.711   5.413  13.712  0.00  0.00    +0.000 N 
ATOM     35  H   UNL     1       8.304   6.164  14.037  0.00  0.00    +0.000 HD
ENDBRANCH  29  30
ENDBRANCH   1  29
TORSDOF 10
ENDMDL
MODEL 6
REMARK VINA RESULT:      -8.2      2.256      4.627
REMARK  Name = 
REMARK  11 active torsions:
REMARK  status: ('A' for Active; 'I' for Inactive)
REMARK    1  A    between atoms: C_1  and  C_2
REMARK    2  A    between atoms: C_2  and  N_3
REMARK    3  A    between atoms: C_2  and  C_26
REMARK    4  A    between atoms: C_4  and  C_6
REMARK    5  A    between atoms: C_6  and  C_7
REMARK    6  A    between atoms: C_6  and  N_13
REMARK    7  A    between atoms: C_7  and  C_8
REMARK    8  A    between atoms: C_14  and  C_16
REMARK    9  A    between atoms: C_17  and  C_18
REMARK   10  A    between atoms: C_21  and  O_22
REMARK   11  A    between atoms: C_23  and  O_24
REMARK                            x       y       z     vdW  Elec       q    Type
REMARK                         _______ _______ _______ _____ _____    ______ ____
ROOT
ATOM      1  C   UNL     1       5.967   6.013  16.230  0.00  0.00    +0.000 C 
ENDROOT
BRANCH   1   3
ATOM      2  N   UNL     1       4.667   4.284  17.381  0.00  0.00    +0.000 N 
ATOM      3  C   UNL     1       4.790   5.640  17.150  0.00  0.00    +0.000 C 
ATOM      4  O   UNL     1       4.007   6.471  17.600  0.00  0.00    +0.000 OA
ATOM      5  H   UNL     1       5.096   3.659  16.696  0.00  0.00    +0.000 HD
BRANCH   2   7
ATOM      6  C   UNL     1       2.307   3.594  17.335  0.00  0.00    +0.000 C 
ATOM      7  C   UNL     1       3.560   3.752  18.185  0.00  0.00    +0.000 C 
BRANCH   7   8
ATOM      8  C   UNL     1       3.907   2.409  18.855  0.00  0.00    +0.000 C 
ATOM      9  N   UNL     1       5.077   2.370  19.560  0.00  0.00    +0.000 N 
ATOM     10  O   UNL     1       3.179   1.421  18.820  0.00  0.00    +0.000 OA
ATOM     11  H   UNL     1       5.566   3.223  19.792  0.00  0.00    +0.000 HD
ATOM     12  H   UNL     1       5.277   1.527  20.080  0.00  0.00    +0.000 HD
ENDBRANCH   7   8
ENDBRANCH   2   7
ENDBRANCH   1   3
BRANCH   1  13
ATOM     13  N   UNL     1       6.783   7.029  16.893  0.00  0.00    +0.000 N 
ATOM     14  C   UNL     1       7.555   6.724  17.980  0.00  0.00    +0.000 C 
ATOM     15  O   UNL     1       7.655   5.585  18.425  0.00  0.00    +0.000 OA
ATOM     16  H   UNL     1       6.823   7.952  16.479  0.00  0.00    +0.000 HD
BRANCH  14  17
ATOM     17  C   UNL     1       8.264   7.895  18.552  0.00  0.00    +0.000 C 
ATOM     18  C   UNL     1       8.214   9.086  17.931  0.00  0.00    +0.000 C 
BRANCH  18  19
ATOM     19  C   UNL     1       8.885  10.305  18.415  0.00  0.00    +0.000 A 
ATOM     20  C   UNL     1       9.524  10.277  19.667  0.00  0.00    +0.000 A 
ATOM     21  C   UNL     1      10.212  11.397  20.154  0.00  0.00    +0.000 A 
ATOM     22  C   UNL     1      10.269  12.546  19.378  0.00  0.00    +0.000 A 
ATOM     23  C   UNL     1       9.650  12.578  18.133  0.00  0.00    +0.000 A 
ATOM     24  C   UNL     1       8.966  11.472  17.643  0.00  0.00    +0.000 A 
BRANCH  22  25
ATOM     25  O   UNL     1      10.930  13.670  19.790  0.00  0.00    +0.000 OA
ATOM     26  H   UNL     1      10.404  14.446  19.528  0.00  0.00    +0.000 HD
ENDBRANCH  22  25
BRANCH  23  27
ATOM     27  O   UNL     1       9.718  13.708  17.368  0.00  0.00    +0.000 OA
ATOM     28  H   UNL     1       9.788  14.439  18.014  0.00  0.00    +0.000 HD
ENDBRANCH  23  27
ENDBRANCH  18  19
ENDBRANCH  14  17
ENDBRANCH   1  13
BRANCH   1  29
ATOM     29  C   UNL     1       6.774   4.751  15.884  0.00  0.00    +0.000 C 
BRANCH  29  30
ATOM     30  C   UNL     1       6.796   4.447  14.421  0.00  0.00    +0.000 A 
ATOM     31  C   UNL     1       7.444   5.065  13.372  0.00  0.00    +0.000 A 
ATOM     32  N   UNL     1       7.163   4.440  12.187  0.00  0.00    +0.000 NA
ATOM     33  C   UNL     1       6.368   3.444  12.497  0.00  0.00    +0.000 A 
ATOM     34  N   UNL     1       6.124   3.398  13.840  0.00  0.00    +0.000 N 
ATOM     35  H   UNL     1       5.541   2.716  14.306  0.00  0.00    +0.000 HD
ENDBRANCH  29  30
ENDBRANCH   1  29
TORSDOF 10
ENDMDL
MODEL 7
REMARK VINA RESULT:      -8.1      2.288      5.191
REMARK  Name = 
REMARK  11 active torsions:
REMARK  status: ('A' for Active; 'I' for Inactive)
REMARK    1  A    between atoms: C_1  and  C_2
REMARK    2  A    between atoms: C_2  and  N_3
REMARK    3  A    between atoms: C_2  and  C_26
REMARK    4  A    between atoms: C_4  and  C_6
REMARK    5  A    between atoms: C_6  and  C_7
REMARK    6  A    between atoms: C_6  and  N_13
REMARK    7  A    between atoms: C_7  and  C_8
REMARK    8  A    between atoms: C_14  and  C_16
REMARK    9  A    between atoms: C_17  and  C_18
REMARK   10  A    between atoms: C_21  and  O_22
REMARK   11  A    between atoms: C_23  and  O_24
REMARK                            x       y       z     vdW  Elec       q    Type
REMARK                         _______ _______ _______ _____ _____    ______ ____
ROOT
ATOM      1  C   UNL     1       5.995   5.237  17.839  0.00  0.00    +0.000 C 
ENDROOT
BRANCH   1   3
ATOM      2  N   UNL     1       3.830   5.037  18.973  0.00  0.00    +0.000 N 
ATOM      3  C   UNL     1       5.144   4.608  18.958  0.00  0.00    +0.000 C 
ATOM      4  O   UNL     1       5.604   3.830  19.788  0.00  0.00    +0.000 OA
ATOM      5  H   UNL     1       3.633   5.930  18.519  0.00  0.00    +0.000 HD
BRANCH   2   7
ATOM      6  C   UNL     1       2.060   5.746  20.525  0.00  0.00    +0.000 C 
ATOM      7  C   UNL     1       2.900   4.584  20.013  0.00  0.00    +0.000 C 
BRANCH   7   8
ATOM      8  C   UNL     1       1.976   3.449  19.528  0.00  0.00    +0.000 C 
ATOM      9  N   UNL     1       0.872   3.201  20.292  0.00  0.00    +0.000 N 
ATOM     10  O   UNL     1       2.164   2.812  18.495  0.00  0.00    +0.000 OA
ATOM     11  H   UNL     1       0.581   3.856  21.004  0.00  0.00    +0.000 HD
ATOM     12  H   UNL     1       0.209   2.523  19.943  0.00  0.00    +0.000 HD
ENDBRANCH   7   8
ENDBRANCH   2   7
ENDBRANCH   1   3
BRANCH   1  13
ATOM     13  N   UNL     1       6.847   6.274  18.418  0.00  0.00    +0.000 N 
ATOM     14  C   UNL     1       7.262   7.349  17.681  0.00  0.00    +0.000 C 
ATOM     15  O   UNL     1       6.903   7.538  16.524  0.00  0.00    +0.000 OA
ATOM     16  H   UNL     1       7.062   6.217  19.406  0.00  0.00    +0.000 HD
BRANCH  14  17
ATOM     17  C   UNL     1       8.168   8.261  18.420  0.00  0.00    +0.000 C 
ATOM     18  C   UNL     1       8.407   9.499  17.956  0.00  0.00    +0.000 C 
BRANCH  18  19
ATOM     19  C   UNL     1       9.292  10.478  18.613  0.00  0.00    +0.000 A 
ATOM     20  C   UNL     1      10.171  11.238  17.821  0.00  0.00    +0.000 A 
ATOM     21  C   UNL     1      11.003  12.211  18.391  0.00  0.00    +0.000 A 
ATOM     22  C   UNL     1      10.946  12.430  19.761  0.00  0.00    +0.000 A 
ATOM     23  C   UNL     1      10.072  11.691  20.550  0.00  0.00    +0.000 A 
ATOM     24  C   UNL     1       9.244  10.724  19.992  0.00  0.00    +0.000 A 
BRANCH  22  25
ATOM     25  O   UNL     1      11.725  13.368  20.380  0.00  0.00    +0.000 OA
ATOM     26  H   UNL     1      12.192  12.938  21.118  0.00  0.00    +0.000 HD
ENDBRANCH  22  25
BRANCH  23  27
ATOM     27  O   UNL     1      10.013  11.917  21.897  0.00  0.00    +0.000 OA
ATOM     28  H   UNL     1      10.902  12.252  22.129  0.00  0.00    +0.000 HD
ENDBRANCH  23  27
ENDBRANCH  18  19
ENDBRANCH  14  17
ENDBRANCH   1  13
BRANCH   1  29
ATOM     29  C   UNL     1       6.808   4.142  17.130  0.00  0.00    +0.000 C 
BRANCH  29  30
ATOM     30  C   UNL     1       6.760   4.243  15.640  0.00  0.00    +0.000 A 
ATOM     31  C   UNL     1       5.980   3.593  14.707  0.00  0.00    +0.000 A 
ATOM     32  N   UNL     1       6.292   4.002  13.438  0.00  0.00    +0.000 NA
ATOM     33  C   UNL     1       7.237   4.900  13.583  0.00  0.00    +0.000 A 
ATOM     34  N   UNL     1       7.549   5.091  14.899  0.00  0.00    +0.000 N 
ATOM     35  H   UNL     1       8.245   5.735  15.248  0.00  0.00    +0.000 HD
ENDBRANCH  29  30
ENDBRANCH   1  29
TORSDOF 10
ENDMDL
MODEL 8
REMARK VINA RESULT:      -8.1      2.259      4.520
REMARK  Name = 
REMARK  11 active torsions:
REMARK  status: ('A' for Active; 'I' for Inactive)
REMARK    1  A    between atoms: C_1  and  C_2
REMARK    2  A    between atoms: C_2  and  N_3
REMARK    3  A    between atoms: C_2  and  C_26
REMARK    4  A    between atoms: C_4  and  C_6
REMARK    5  A    between atoms: C_6  and  C_7
REMARK    6  A    between atoms: C_6  and  N_13
REMARK    7  A    between atoms: C_7  and  C_8
REMARK    8  A    between atoms: C_14  and  C_16
REMARK    9  A    between atoms: C_17  and  C_18
REMARK   10  A    between atoms: C_21  and  O_22
REMARK   11  A    between atoms: C_23  and  O_24
REMARK                            x       y       z     vdW  Elec       q    Type
REMARK                         _______ _______ _______ _____ _____    ______ ____
ROOT
ATOM      1  C   UNL     1       6.563   5.434  16.164  0.00  0.00    +0.000 C 
ENDROOT
BRANCH   1   3
ATOM      2  N   UNL     1       4.390   4.894  17.162  0.00  0.00    +0.000 N 
ATOM      3  C   UNL     1       5.758   4.734  17.274  0.00  0.00    +0.000 C 
ATOM      4  O   UNL     1       6.288   4.126  18.199  0.00  0.00    +0.000 OA
ATOM      5  H   UNL     1       4.064   5.694  16.617  0.00  0.00    +0.000 HD
BRANCH   2   7
ATOM      6  C   UNL     1       2.181   5.137  18.212  0.00  0.00    +0.000 C 
ATOM      7  C   UNL     1       3.480   4.345  18.173  0.00  0.00    +0.000 C 
BRANCH   7   8
ATOM      8  C   UNL     1       3.172   2.852  17.943  0.00  0.00    +0.000 C 
ATOM      9  N   UNL     1       4.018   1.962  18.543  0.00  0.00    +0.000 N 
ATOM     10  O   UNL     1       2.207   2.445  17.303  0.00  0.00    +0.000 OA
ATOM     11  H   UNL     1       4.668   2.268  19.252  0.00  0.00    +0.000 HD
ATOM     12  H   UNL     1       3.781   0.982  18.479  0.00  0.00    +0.000 HD
ENDBRANCH   7   8
ENDBRANCH   2   7
ENDBRANCH   1   3
BRANCH   1  13
ATOM     13  N   UNL     1       7.541   6.329  16.780  0.00  0.00    +0.000 N 
ATOM     14  C   UNL     1       7.151   7.450  17.459  0.00  0.00    +0.000 C 
ATOM     15  O   UNL     1       5.973   7.740  17.642  0.00  0.00    +0.000 OA
ATOM     16  H   UNL     1       8.515   6.058  16.756  0.00  0.00    +0.000 HD
BRANCH  14  17
ATOM     17  C   UNL     1       8.284   8.265  17.961  0.00  0.00    +0.000 C 
ATOM     18  C   UNL     1       8.186   9.604  18.010  0.00  0.00    +0.000 C 
BRANCH  18  19
ATOM     19  C   UNL     1       9.254  10.500  18.487  0.00  0.00    +0.000 A 
ATOM     20  C   UNL     1       9.329  10.797  19.860  0.00  0.00    +0.000 A 
ATOM     21  C   UNL     1      10.350  11.610  20.370  0.00  0.00    +0.000 A 
ATOM     22  C   UNL     1      11.306  12.118  19.503  0.00  0.00    +0.000 A 
ATOM     23  C   UNL     1      11.247  11.820  18.146  0.00  0.00    +0.000 A 
ATOM     24  C   UNL     1      10.238  11.014  17.632  0.00  0.00    +0.000 A 
BRANCH  22  25
ATOM     25  O   UNL     1      12.333  12.911  19.936  0.00  0.00    +0.000 OA
ATOM     26  H   UNL     1      12.173  13.136  20.869  0.00  0.00    +0.000 HD
ENDBRANCH  22  25
BRANCH  23  27
ATOM     27  O   UNL     1      12.198  12.315  17.297  0.00  0.00    +0.000 OA
ATOM     28  H   UNL     1      12.098  11.785  16.481  0.00  0.00    +0.000 HD
ENDBRANCH  23  27
ENDBRANCH  18  19
ENDBRANCH  14  17
ENDBRANCH   1  13
BRANCH   1  29
ATOM     29  C   UNL     1       7.225   4.379  15.261  0.00  0.00    +0.000 C 
BRANCH  29  30
ATOM     30  C   UNL     1       6.398   4.020  14.070  0.00  0.00    +0.000 A 
ATOM     31  C   UNL     1       5.086   4.303  13.752  0.00  0.00    +0.000 A 
ATOM     32  N   UNL     1       4.746   3.755  12.544  0.00  0.00    +0.000 NA
ATOM     33  C   UNL     1       5.831   3.158  12.114  0.00  0.00    +0.000 A 
ATOM     34  N   UNL     1       6.864   3.299  12.996  0.00  0.00    +0.000 N 
ATOM     35  H   UNL     1       7.794   2.923  12.873  0.00  0.00    +0.000 HD
ENDBRANCH  29  30
ENDBRANCH   1  29
TORSDOF 10
ENDMDL
MODEL 9
REMARK VINA RESULT:      -8.0      1.936      4.859
REMARK  Name = 
REMARK  11 active torsions:
REMARK  status: ('A' for Active; 'I' for Inactive)
REMARK    1  A    between atoms: C_1  and  C_2
REMARK    2  A    between atoms: C_2  and  N_3
REMARK    3  A    between atoms: C_2  and  C_26
REMARK    4  A    between atoms: C_4  and  C_6
REMARK    5  A    between atoms: C_6  and  C_7
REMARK    6  A    between atoms: C_6  and  N_13
REMARK    7  A    between atoms: C_7  and  C_8
REMARK    8  A    between atoms: C_14  and  C_16
REMARK    9  A    between atoms: C_17  and  C_18
REMARK   10  A    between atoms: C_21  and  O_22
REMARK   11  A    between atoms: C_23  and  O_24
REMARK                            x       y       z     vdW  Elec       q    Type
REMARK                         _______ _______ _______ _____ _____    ______ ____
ROOT
ATOM      1  C   UNL     1       5.655   6.361  16.202  0.00  0.00    +0.000 C 
ENDROOT
BRANCH   1   3
ATOM      2  N   UNL     1       4.131   5.103  17.653  0.00  0.00    +0.000 N 
ATOM      3  C   UNL     1       4.473   6.358  17.189  0.00  0.00    +0.000 C 
ATOM      4  O   UNL     1       3.863   7.377  17.500  0.00  0.00    +0.000 OA
ATOM      5  H   UNL     1       4.417   4.307  17.080  0.00  0.00    +0.000 HD
BRANCH   2   7
ATOM      6  C   UNL     1       1.775   4.413  17.780  0.00  0.00    +0.000 C 
ATOM      7  C   UNL     1       2.987   4.915  18.552  0.00  0.00    +0.000 C 
BRANCH   7   8
ATOM      8  C   UNL     1       3.299   3.953  19.715  0.00  0.00    +0.000 C 
ATOM      9  N   UNL     1       2.400   3.938  20.744  0.00  0.00    +0.000 N 
ATOM     10  O   UNL     1       4.264   3.194  19.732  0.00  0.00    +0.000 OA
ATOM     11  H   UNL     1       1.496   4.375  20.643  0.00  0.00    +0.000 HD
ATOM     12  H   UNL     1       2.540   3.251  21.471  0.00  0.00    +0.000 HD
ENDBRANCH   7   8
ENDBRANCH   2   7
ENDBRANCH   1   3
BRANCH   1  13
ATOM     13  N   UNL     1       6.733   7.179  16.755  0.00  0.00    +0.000 N 
ATOM     14  C   UNL     1       7.321   6.868  17.950  0.00  0.00    +0.000 C 
ATOM     15  O   UNL     1       7.028   5.867  18.594  0.00  0.00    +0.000 OA
ATOM     16  H   UNL     1       7.087   7.942  16.193  0.00  0.00    +0.000 HD
BRANCH  14  17
ATOM     17  C   UNL     1       8.352   7.846  18.376  0.00  0.00    +0.000 C 
ATOM     18  C   UNL     1       8.168   9.160  18.162  0.00  0.00    +0.000 C 
BRANCH  18  19
ATOM     19  C   UNL     1       9.131  10.208  18.543  0.00  0.00    +0.000 A 
ATOM     20  C   UNL     1       9.310  10.502  19.907  0.00  0.00    +0.000 A 
ATOM     21  C   UNL     1      10.244  11.461  20.324  0.00  0.00    +0.000 A 
ATOM     22  C   UNL     1      11.008  12.119  19.371  0.00  0.00    +0.000 A 
ATOM     23  C   UNL     1      10.846  11.826  18.021  0.00  0.00    +0.000 A 
ATOM     24  C   UNL     1       9.923  10.877  17.600  0.00  0.00    +0.000 A 
BRANCH  22  25
ATOM     25  O   UNL     1      11.941  13.060  19.710  0.00  0.00    +0.000 OA
ATOM     26  H   UNL     1      12.778  12.833  19.268  0.00  0.00    +0.000 HD
ENDBRANCH  22  25
BRANCH  23  27
ATOM     27  O   UNL     1      11.608  12.470  17.088  0.00  0.00    +0.000 OA
ATOM     28  H   UNL     1      12.112  13.135  17.598  0.00  0.00    +0.000 HD
ENDBRANCH  23  27
ENDBRANCH  18  19
ENDBRANCH  14  17
ENDBRANCH   1  13
BRANCH   1  29
ATOM     29  C   UNL     1       6.101   4.916  15.926  0.00  0.00    +0.000 C 
BRANCH  29  30
ATOM     30  C   UNL     1       6.565   4.699  14.523  0.00  0.00    +0.000 A 
ATOM     31  C   UNL     1       6.138   3.824  13.546  0.00  0.00    +0.000 A 
ATOM     32  N   UNL     1       6.871   3.975  12.399  0.00  0.00    +0.000 NA
ATOM     33  C   UNL     1       7.725   4.936  12.655  0.00  0.00    +0.000 A 
ATOM     34  N   UNL     1       7.574   5.417  13.924  0.00  0.00    +0.000 N 
ATOM     35  H   UNL     1       8.121   6.159  14.338  0.00  0.00    +0.000 HD
ENDBRANCH  29  30
ENDBRANCH   1  29
TORSDOF 10
ENDMDL
