MODEL 1
REMARK VINA RESULT:      -7.2      0.000      0.000
REMARK  Name = 
REMARK  3 active torsions:
REMARK  status: ('A' for Active; 'I' for Inactive)
REMARK    1  A    between atoms: C_6  and  C_7
REMARK    2  A    between atoms: C_7  and  C_8
REMARK    3  A    between atoms: C_8  and  C_9
REMARK                            x       y       z     vdW  Elec       q    Type
REMARK                         _______ _______ _______ _____ _____    ______ ____
ROOT
ATOM      1  N   UNL     1       8.377   5.325  20.309  0.00  0.00    +0.000 N 
ATOM      2  C   UNL     1       7.659   5.733  19.204  0.00  0.00    +0.000 A 
ATOM      3  N   UNL     1       8.067   6.838  18.580  0.00  0.00    +0.000 NA
ATOM      4  C   UNL     1       7.342   7.219  17.512  0.00  0.00    +0.000 A 
ATOM      5  C   UNL     1       6.229   6.543  17.071  0.00  0.00    +0.000 A 
ATOM      6  C   UNL     1       5.871   5.423  17.794  0.00  0.00    +0.000 A 
ATOM      7  N   UNL     1       6.579   5.016  18.870  0.00  0.00    +0.000 NA
ATOM      8  H   UNL     1       8.864   6.119  20.703  0.00  0.00    +0.000 HD
ATOM      9  H   UNL     1       7.778   4.795  20.925  0.00  0.00    +0.000 HD
ENDROOT
BRANCH   6  10
ATOM     10  C   UNL     1       4.652   4.628  17.377  0.00  0.00    +0.000 C 
BRANCH  10  11
ATOM     11  C   UNL     1       3.315   5.308  17.694  0.00  0.00    +0.000 C 
BRANCH  11  12
ATOM     12  C   UNL     1       2.548   4.582  18.775  0.00  0.00    +0.000 A 
ATOM     13  C   UNL     1       1.601   3.602  18.449  0.00  0.00    +0.000 A 
ATOM     14  C   UNL     1       0.899   2.934  19.455  0.00  0.00    +0.000 A 
ATOM     15  C   UNL     1       1.131   3.241  20.794  0.00  0.00    +0.000 A 
ATOM     16  C   UNL     1       2.068   4.218  21.129  0.00  0.00    +0.000 A 
ATOM     17  C   UNL     1       2.771   4.886  20.125  0.00  0.00    +0.000 A 
ENDBRANCH  11  12
ENDBRANCH  10  11
ENDBRANCH   6  10
TORSDOF 3
ENDMDL
MODEL 2
REMARK VINA RESULT:      -7.2      0.107      1.249
REMARK  Name = 
REMARK  3 active torsions:
REMARK  status: ('A' for Active; 'I' for Inactive)
REMARK    1  A    between atoms: C_6  and  C_7
REMARK    2  A    between atoms: C_7  and  C_8
REMARK    3  A    between atoms: C_8  and  C_9
REMARK                            x       y       z     vdW  Elec       q    Type
REMARK                         _______ _______ _______ _____ _____    ______ ____
ROOT
ATOM      1  N   UNL     1       8.397   5.272  20.231  0.00  0.00    +0.000 N 
ATOM      2  C   UNL     1       7.660   5.719  19.155  0.00  0.00    +0.000 A 
ATOM      3  N   UNL     1       8.067   6.837  18.553  0.00  0.00    +0.000 NA
ATOM      4  C   UNL     1       7.324   7.257  17.514  0.00  0.00    +0.000 A 
ATOM      5  C   UNL     1       6.193   6.607  17.078  0.00  0.00    +0.000 A 
ATOM      6  C   UNL     1       5.838   5.471  17.777  0.00  0.00    +0.000 A 
ATOM      7  N   UNL     1       6.565   5.025  18.825  0.00  0.00    +0.000 NA
ATOM      8  H   UNL     1       8.902   6.049  20.636  0.00  0.00    +0.000 HD
ATOM      9  H   UNL     1       7.806   4.731  20.845  0.00  0.00    +0.000 HD
ENDROOT
BRANCH   6  10
ATOM     10  C   UNL     1       4.601   4.702  17.365  0.00  0.00    +0.000 C 
BRANCH  10  11
ATOM     11  C   UNL     1       3.279   5.379  17.745  0.00  0.00    +0.000 C 
BRANCH  11  12
ATOM     12  C   UNL     1       2.505   4.584  18.771  0.00  0.00    +0.000 A 
ATOM     13  C   UNL     1       2.662   4.835  20.141  0.00  0.00    +0.000 A 
ATOM     14  C   UNL     1       1.941   4.097  21.083  0.00  0.00    +0.000 A 
ATOM     15  C   UNL     1       1.060   3.101  20.667  0.00  0.00    +0.000 A 
ATOM     16  C   UNL     1       0.900   2.840  19.307  0.00  0.00    +0.000 A 
ATOM     17  C   UNL     1       1.620   3.577  18.364  0.00  0.00    +0.000 A 
ENDBRANCH  11  12
ENDBRANCH  10  11
ENDBRANCH   6  10
TORSDOF 3
ENDMDL
MODEL 3
REMARK VINA RESULT:      -7.1      1.677      2.261
REMARK  Name = 
REMARK  3 active torsions:
REMARK  status: ('A' for Active; 'I' for Inactive)
REMARK    1  A    between atoms: C_6  and  C_7
REMARK    2  A    between atoms: C_7  and  C_8
REMARK    3  A    between atoms: C_8  and  C_9
REMARK                            x       y       z     vdW  Elec       q    Type
REMARK                         _______ _______ _______ _____ _____    ______ ____
ROOT
ATOM      1  N   UNL     1       7.247   5.234  14.596  0.00  0.00    +0.000 N 
ATOM      2  C   UNL     1       6.961   5.194  15.945  0.00  0.00    +0.000 A 
ATOM      3  N   UNL     1       7.862   4.628  16.748  0.00  0.00    +0.000 NA
ATOM      4  C   UNL     1       7.554   4.592  18.056  0.00  0.00    +0.000 A 
ATOM      5  C   UNL     1       6.379   5.086  18.572  0.00  0.00    +0.000 A 
ATOM      6  C   UNL     1       5.498   5.634  17.661  0.00  0.00    +0.000 A 
ATOM      7  N   UNL     1       5.780   5.684  16.341  0.00  0.00    +0.000 NA
ATOM      8  H   UNL     1       7.906   4.502  14.372  0.00  0.00    +0.000 HD
ATOM      9  H   UNL     1       6.386   5.263  14.069  0.00  0.00    +0.000 HD
ENDROOT
BRANCH   6  10
ATOM     10  C   UNL     1       4.178   6.193  18.148  0.00  0.00    +0.000 C 
BRANCH  10  11
ATOM     11  C   UNL     1       2.950   5.379  17.721  0.00  0.00    +0.000 C 
BRANCH  11  12
ATOM     12  C   UNL     1       2.352   4.603  18.871  0.00  0.00    +0.000 A 
ATOM     13  C   UNL     1       1.377   3.621  18.645  0.00  0.00    +0.000 A 
ATOM     14  C   UNL     1       0.832   2.906  19.713  0.00  0.00    +0.000 A 
ATOM     15  C   UNL     1       1.249   3.167  21.017  0.00  0.00    +0.000 A 
ATOM     16  C   UNL     1       2.215   4.144  21.253  0.00  0.00    +0.000 A 
ATOM     17  C   UNL     1       2.761   4.860  20.187  0.00  0.00    +0.000 A 
ENDBRANCH  11  12
ENDBRANCH  10  11
ENDBRANCH   6  10
TORSDOF 3
ENDMDL
MODEL 4
REMARK VINA RESULT:      -7.0      1.346      1.647
REMARK  Name = 
REMARK  3 active torsions:
REMARK  status: ('A' for Active; 'I' for Inactive)
REMARK    1  A    between atoms: C_6  and  C_7
REMARK    2  A    between atoms: C_7  and  C_8
REMARK    3  A    between atoms: C_8  and  C_9
REMARK                            x       y       z     vdW  Elec       q    Type
REMARK                         _______ _______ _______ _____ _____    ______ ____
ROOT
ATOM      1  N   UNL     1       8.003   4.879  18.969  0.00  0.00    +0.000 N 
ATOM      2  C   UNL     1       7.149   5.060  17.901  0.00  0.00    +0.000 A 
ATOM      3  N   UNL     1       7.587   4.697  16.695  0.00  0.00    +0.000 NA
ATOM      4  C   UNL     1       6.739   4.895  15.670  0.00  0.00    +0.000 A 
ATOM      5  C   UNL     1       5.490   5.452  15.815  0.00  0.00    +0.000 A 
ATOM      6  C   UNL     1       5.133   5.817  17.098  0.00  0.00    +0.000 A 
ATOM      7  N   UNL     1       5.964   5.631  18.147  0.00  0.00    +0.000 NA
ATOM      8  H   UNL     1       8.957   4.856  18.634  0.00  0.00    +0.000 HD
ATOM      9  H   UNL     1       7.781   5.544  19.696  0.00  0.00    +0.000 HD
ENDROOT
BRANCH   6  10
ATOM     10  C   UNL     1       3.777   6.446  17.342  0.00  0.00    +0.000 C 
BRANCH  10  11
ATOM     11  C   UNL     1       3.311   6.398  18.801  0.00  0.00    +0.000 C 
BRANCH  11  12
ATOM     12  C   UNL     1       2.433   5.200  19.081  0.00  0.00    +0.000 A 
ATOM     13  C   UNL     1       2.068   4.322  18.051  0.00  0.00    +0.000 A 
ATOM     14  C   UNL     1       1.258   3.216  18.319  0.00  0.00    +0.000 A 
ATOM     15  C   UNL     1       0.802   2.978  19.613  0.00  0.00    +0.000 A 
ATOM     16  C   UNL     1       1.156   3.847  20.644  0.00  0.00    +0.000 A 
ATOM     17  C   UNL     1       1.965   4.953  20.379  0.00  0.00    +0.000 A 
ENDBRANCH  11  12
ENDBRANCH  10  11
ENDBRANCH   6  10
TORSDOF 3
ENDMDL
MODEL 5
REMARK VINA RESULT:      -6.9      1.600      2.239
REMARK  Name = 
REMARK  3 active torsions:
REMARK  status: ('A' for Active; 'I' for Inactive)
REMARK    1  A    between atoms: C_6  and  C_7
REMARK    2  A    between atoms: C_7  and  C_8
REMARK    3  A    between atoms: C_8  and  C_9
REMARK                            x       y       z     vdW  Elec       q    Type
REMARK                         _______ _______ _______ _____ _____    ______ ____
ROOT
ATOM      1  N   UNL     1       7.632   5.477  15.083  0.00  0.00    +0.000 N 
ATOM      2  C   UNL     1       6.997   5.497  16.308  0.00  0.00    +0.000 A 
ATOM      3  N   UNL     1       7.664   5.007  17.353  0.00  0.00    +0.000 NA
ATOM      4  C   UNL     1       7.018   5.028  18.533  0.00  0.00    +0.000 A 
ATOM      5  C   UNL     1       5.738   5.504  18.688  0.00  0.00    +0.000 A 
ATOM      6  C   UNL     1       5.120   5.971  17.545  0.00  0.00    +0.000 A 
ATOM      7  N   UNL     1       5.743   5.962  16.347  0.00  0.00    +0.000 NA
ATOM      8  H   UNL     1       8.343   4.759  15.087  0.00  0.00    +0.000 HD
ATOM      9  H   UNL     1       6.943   5.447  14.346  0.00  0.00    +0.000 HD
ENDROOT
BRANCH   6  10
ATOM     10  C   UNL     1       3.706   6.505  17.630  0.00  0.00    +0.000 C 
BRANCH  10  11
ATOM     11  C   UNL     1       3.081   6.421  19.027  0.00  0.00    +0.000 C 
BRANCH  11  12
ATOM     12  C   UNL     1       2.284   5.152  19.220  0.00  0.00    +0.000 A 
ATOM     13  C   UNL     1       1.973   4.327  18.131  0.00  0.00    +0.000 A 
ATOM     14  C   UNL     1       1.238   3.154  18.319  0.00  0.00    +0.000 A 
ATOM     15  C   UNL     1       0.804   2.795  19.593  0.00  0.00    +0.000 A 
ATOM     16  C   UNL     1       1.104   3.611  20.683  0.00  0.00    +0.000 A 
ATOM     17  C   UNL     1       1.838   4.784  20.497  0.00  0.00    +0.000 A 
ENDBRANCH  11  12
ENDBRANCH  10  11
ENDBRANCH   6  10
TORSDOF 3
ENDMDL
MODEL 6
REMARK VINA RESULT:      -6.8      1.710      2.213
REMARK  Name = 
REMARK  3 active torsions:
REMARK  status: ('A' for Active; 'I' for Inactive)
REMARK    1  A    between atoms: C_6  and  C_7
REMARK    2  A    between atoms: C_7  and  C_8
REMARK    3  A    between atoms: C_8  and  C_9
REMARK                            x       y       z     vdW  Elec       q    Type
REMARK                         _______ _______ _______ _____ _____    ______ ____
ROOT
ATOM      1  N   UNL     1       7.660   7.473  17.230  0.00  0.00    +0.000 N 
ATOM      2  C   UNL     1       6.961   6.381  16.758  0.00  0.00    +0.000 A 
ATOM      3  N   UNL     1       7.542   5.640  15.814  0.00  0.00    +0.000 NA
ATOM      4  C   UNL     1       6.834   4.590  15.364  0.00  0.00    +0.000 A 
ATOM      5  C   UNL     1       5.574   4.275  15.814  0.00  0.00    +0.000 A 
ATOM      6  C   UNL     1       5.045   5.113  16.776  0.00  0.00    +0.000 A 
ATOM      7  N   UNL     1       5.733   6.176  17.247  0.00  0.00    +0.000 NA
ATOM      8  H   UNL     1       8.332   7.766  16.533  0.00  0.00    +0.000 HD
ATOM      9  H   UNL     1       7.012   8.166  17.574  0.00  0.00    +0.000 HD
ENDROOT
BRANCH   6  10
ATOM     10  C   UNL     1       3.658   4.840  17.318  0.00  0.00    +0.000 C 
BRANCH  10  11
ATOM     11  C   UNL     1       3.380   3.365  17.630  0.00  0.00    +0.000 C 
BRANCH  11  12
ATOM     12  C   UNL     1       2.692   3.184  18.964  0.00  0.00    +0.000 A 
ATOM     13  C   UNL     1       1.322   3.444  19.106  0.00  0.00    +0.000 A 
ATOM     14  C   UNL     1       0.694   3.271  20.342  0.00  0.00    +0.000 A 
ATOM     15  C   UNL     1       1.427   2.843  21.447  0.00  0.00    +0.000 A 
ATOM     16  C   UNL     1       2.792   2.587  21.317  0.00  0.00    +0.000 A 
ATOM     17  C   UNL     1       3.421   2.759  20.083  0.00  0.00    +0.000 A 
ENDBRANCH  11  12
ENDBRANCH  10  11
ENDBRANCH   6  10
TORSDOF 3
ENDMDL
MODEL 7
REMARK VINA RESULT:      -6.8      1.305      1.719
REMARK  Name = 
REMARK  3 active torsions:
REMARK  status: ('A' for Active; 'I' for Inactive)
REMARK    1  A    between atoms: C_6  and  C_7
REMARK    2  A    between atoms: C_7  and  C_8
REMARK    3  A    between atoms: C_8  and  C_9
REMARK                            x       y       z     vdW  Elec       q    Type
REMARK                         _______ _______ _______ _____ _____    ______ ____
ROOT
ATOM      1  N   UNL     1       8.051   5.524  19.661  0.00  0.00    +0.000 N 
ATOM      2  C   UNL     1       7.262   5.240  18.566  0.00  0.00    +0.000 A 
ATOM      3  N   UNL     1       7.863   4.736  17.489  0.00  0.00    +0.000 NA
ATOM      4  C   UNL     1       7.072   4.479  16.432  0.00  0.00    +0.000 A 
ATOM      5  C   UNL     1       5.720   4.724  16.419  0.00  0.00    +0.000 A 
ATOM      6  C   UNL     1       5.190   5.267  17.573  0.00  0.00    +0.000 A 
ATOM      7  N   UNL     1       5.960   5.536  18.650  0.00  0.00    +0.000 NA
ATOM      8  H   UNL     1       9.005   5.665  19.358  0.00  0.00    +0.000 HD
ATOM      9  H   UNL     1       7.623   6.258  20.206  0.00  0.00    +0.000 HD
ENDROOT
BRANCH   6  10
ATOM     10  C   UNL     1       3.709   5.575  17.637  0.00  0.00    +0.000 C 
BRANCH  10  11
ATOM     11  C   UNL     1       2.803   4.340  17.575  0.00  0.00    +0.000 C 
BRANCH  11  12
ATOM     12  C   UNL     1       2.510   3.777  18.946  0.00  0.00    +0.000 A 
ATOM     13  C   UNL     1       3.480   3.041  19.642  0.00  0.00    +0.000 A 
ATOM     14  C   UNL     1       3.202   2.527  20.911  0.00  0.00    +0.000 A 
ATOM     15  C   UNL     1       1.954   2.737  21.494  0.00  0.00    +0.000 A 
ATOM     16  C   UNL     1       0.981   3.463  20.809  0.00  0.00    +0.000 A 
ATOM     17  C   UNL     1       1.257   3.978  19.541  0.00  0.00    +0.000 A 
ENDBRANCH  11  12
ENDBRANCH  10  11
ENDBRANCH   6  10
TORSDOF 3
ENDMDL
MODEL 8
REMARK VINA RESULT:      -6.7      2.220      2.930
REMARK  Name = 
REMARK  3 active torsions:
REMARK  status: ('A' for Active; 'I' for Inactive)
REMARK    1  A    between atoms: C_6  and  C_7
REMARK    2  A    between atoms: C_7  and  C_8
REMARK    3  A    between atoms: C_8  and  C_9
REMARK                            x       y       z     vdW  Elec       q    Type
REMARK                         _______ _______ _______ _____ _____    ______ ____
ROOT
ATOM      1  N   UNL     1       7.210   5.173  13.817  0.00  0.00    +0.000 N 
ATOM      2  C   UNL     1       6.723   5.171  15.108  0.00  0.00    +0.000 A 
ATOM      3  N   UNL     1       7.467   5.759  16.045  0.00  0.00    +0.000 NA
ATOM      4  C   UNL     1       6.976   5.734  17.297  0.00  0.00    +0.000 A 
ATOM      5  C   UNL     1       5.787   5.131  17.632  0.00  0.00    +0.000 A 
ATOM      6  C   UNL     1       5.097   4.529  16.598  0.00  0.00    +0.000 A 
ATOM      7  N   UNL     1       5.566   4.539  15.332  0.00  0.00    +0.000 NA
ATOM      8  H   UNL     1       8.215   5.279  13.838  0.00  0.00    +0.000 HD
ATOM      9  H   UNL     1       6.835   4.381  13.314  0.00  0.00    +0.000 HD
ENDROOT
BRANCH   6  10
ATOM     10  C   UNL     1       3.782   3.836  16.886  0.00  0.00    +0.000 C 
BRANCH  10  11
ATOM     11  C   UNL     1       3.892   2.644  17.845  0.00  0.00    +0.000 C 
BRANCH  11  12
ATOM     12  C   UNL     1       2.970   2.782  19.034  0.00  0.00    +0.000 A 
ATOM     13  C   UNL     1       3.445   2.586  20.338  0.00  0.00    +0.000 A 
ATOM     14  C   UNL     1       2.587   2.718  21.432  0.00  0.00    +0.000 A 
ATOM     15  C   UNL     1       1.246   3.042  21.235  0.00  0.00    +0.000 A 
ATOM     16  C   UNL     1       0.761   3.234  19.941  0.00  0.00    +0.000 A 
ATOM     17  C   UNL     1       1.618   3.103  18.847  0.00  0.00    +0.000 A 
ENDBRANCH  11  12
ENDBRANCH  10  11
ENDBRANCH   6  10
TORSDOF 3
ENDMDL
MODEL 9
REMARK VINA RESULT:      -6.7      1.349      1.658
REMARK  Name = 
REMARK  3 active torsions:
REMARK  status: ('A' for Active; 'I' for Inactive)
REMARK    1  A    between atoms: C_6  and  C_7
REMARK    2  A    between atoms: C_7  and  C_8
REMARK    3  A    between atoms: C_8  and  C_9
REMARK                            x       y       z     vdW  Elec       q    Type
REMARK                         _______ _______ _______ _____ _____    ______ ____
ROOT
ATOM      1  N   UNL     1       8.191   5.284  20.159  0.00  0.00    +0.000 N 
ATOM      2  C   UNL     1       7.640   5.963  19.092  0.00  0.00    +0.000 A 
ATOM      3  N   UNL     1       8.262   7.068  18.681  0.00  0.00    +0.000 NA
ATOM      4  C   UNL     1       7.699   7.717  17.647  0.00  0.00    +0.000 A 
ATOM      5  C   UNL     1       6.540   7.305  17.033  0.00  0.00    +0.000 A 
ATOM      6  C   UNL     1       5.956   6.162  17.542  0.00  0.00    +0.000 A 
ATOM      7  N   UNL     1       6.499   5.490  18.580  0.00  0.00    +0.000 NA
ATOM      8  H   UNL     1       8.755   5.920  20.705  0.00  0.00    +0.000 HD
ATOM      9  H   UNL     1       7.467   4.771  20.643  0.00  0.00    +0.000 HD
ENDROOT
BRANCH   6  10
ATOM     10  C   UNL     1       4.672   5.646  16.928  0.00  0.00    +0.000 C 
BRANCH  10  11
ATOM     11  C   UNL     1       4.614   4.123  16.768  0.00  0.00    +0.000 C 
BRANCH  11  12
ATOM     12  C   UNL     1       3.443   3.516  17.505  0.00  0.00    +0.000 A 
ATOM     13  C   UNL     1       3.522   2.222  18.039  0.00  0.00    +0.000 A 
ATOM     14  C   UNL     1       2.436   1.670  18.721  0.00  0.00    +0.000 A 
ATOM     15  C   UNL     1       1.259   2.401  18.873  0.00  0.00    +0.000 A 
ATOM     16  C   UNL     1       1.168   3.687  18.343  0.00  0.00    +0.000 A 
ATOM     17  C   UNL     1       2.253   4.241  17.661  0.00  0.00    +0.000 A 
ENDBRANCH  11  12
ENDBRANCH  10  11
ENDBRANCH   6  10
TORSDOF 3
ENDMDL
