MODEL 1
REMARK VINA RESULT:      -8.4      0.000      0.000
REMARK  Name = 
REMARK  7 active torsions:
REMARK  status: ('A' for Active; 'I' for Inactive)
REMARK    1  A    between atoms: C_2  and  C_11
REMARK    2  A    between atoms: N_3  and  C_4
REMARK    3  A    between atoms: C_4  and  C_5
REMARK    4  A    between atoms: C_5  and  C_6
REMARK    5  A    between atoms: C_14  and  C_15
REMARK    6  A    between atoms: C_15  and  N_16
REMARK    7  A    between atoms: C_23  and  C_24
REMARK                            x       y       z     vdW  Elec       q    Type
REMARK                         _______ _______ _______ _____ _____    ______ ____
ROOT
ATOM      1  C   UNL     1       2.490   7.288  18.850  0.00  0.00    +0.000 A 
ATOM      2  C   UNL     1       2.390   7.975  17.636  0.00  0.00    +0.000 A 
ATOM      3  C   UNL     1       1.676   9.173  17.566  0.00  0.00    +0.000 A 
ATOM      4  C   UNL     1       1.055   9.707  18.707  0.00  0.00    +0.000 A 
ATOM      5  C   UNL     1       1.160   9.011  19.920  0.00  0.00    +0.000 A 
ATOM      6  C   UNL     1       1.883   7.815  19.996  0.00  0.00    +0.000 A 
ENDROOT
BRANCH   1   8
ATOM      7  O   UNL     1       3.978   5.762  19.861  0.00  0.00    +0.000 OA
ATOM      8  C   UNL     1       3.271   6.023  18.896  0.00  0.00    +0.000 C 
ATOM      9  N   UNL     1       3.160   5.216  17.784  0.00  0.00    +0.000 N 
ATOM     10  H   UNL     1       2.644   5.531  16.972  0.00  0.00    +0.000 HD
BRANCH   9  11
ATOM     11  C   UNL     1       3.823   3.932  17.708  0.00  0.00    +0.000 C 
BRANCH  11  12
ATOM     12  C   UNL     1       2.878   2.759  17.974  0.00  0.00    +0.000 C 
BRANCH  12  13
ATOM     13  C   UNL     1       2.333   2.752  19.358  0.00  0.00    +0.000 A 
ATOM     14  C   UNL     1       1.072   2.959  19.877  0.00  0.00    +0.000 A 
ATOM     15  C   UNL     1       1.202   2.883  21.285  0.00  0.00    +0.000 A 
ATOM     16  C   UNL     1       2.530   2.627  21.534  0.00  0.00    +0.000 A 
ATOM     17  O   UNL     1       3.224   2.534  20.369  0.00  0.00    +0.000 OA
ENDBRANCH  12  13
ENDBRANCH  11  12
ENDBRANCH   9  11
ENDBRANCH   1   8
BRANCH   4  18
ATOM     18  C   UNL     1       0.307  11.020  18.640  0.00  0.00    +0.000 C 
BRANCH  18  19
ATOM     19  N   UNL     1       0.971  12.041  19.470  0.00  0.00    +0.000 N 
ATOM     20  C   UNL     1       2.215  12.600  19.009  0.00  0.00    +0.000 C 
ATOM     21  O   UNL     1       2.645  12.241  17.921  0.00  0.00    +0.000 OA
ATOM     22  C   UNL     1       2.975  13.573  19.881  0.00  0.00    +0.000 C 
ATOM     23  C   UNL     1       2.254  14.147  21.089  0.00  0.00    +0.000 C 
ATOM     24  N   UNL     1       0.978  13.548  21.367  0.00  0.00    +0.000 N 
ATOM     25  N   UNL     1       0.221  13.976  22.383  0.00  0.00    +0.000 NA
ATOM     26  C   UNL     1      -0.864  13.181  22.338  0.00  0.00    +0.000 A 
ATOM     27  C   UNL     1      -0.775  12.275  21.239  0.00  0.00    +0.000 A 
ATOM     28  C   UNL     1       0.414  12.566  20.622  0.00  0.00    +0.000 A 
BRANCH  26  29
ATOM     29  C   UNL     1      -1.952  13.304  23.306  0.00  0.00    +0.000 A 
ATOM     30  C   UNL     1      -2.029  14.418  24.152  0.00  0.00    +0.000 A 
ATOM     31  C   UNL     1      -3.067  14.536  25.081  0.00  0.00    +0.000 A 
ATOM     32  C   UNL     1      -4.036  13.539  25.173  0.00  0.00    +0.000 A 
ATOM     33  C   UNL     1      -3.973  12.428  24.334  0.00  0.00    +0.000 A 
ATOM     34  C   UNL     1      -2.938  12.310  23.404  0.00  0.00    +0.000 A 
ENDBRANCH  26  29
ENDBRANCH  18  19
ENDBRANCH   4  18
TORSDOF 7
ENDMDL
MODEL 2
REMARK VINA RESULT:      -8.3      1.654      2.822
REMARK  Name = 
REMARK  7 active torsions:
REMARK  status: ('A' for Active; 'I' for Inactive)
REMARK    1  A    between atoms: C_2  and  C_11
REMARK    2  A    between atoms: N_3  and  C_4
REMARK    3  A    between atoms: C_4  and  C_5
REMARK    4  A    between atoms: C_5  and  C_6
REMARK    5  A    between atoms: C_14  and  C_15
REMARK    6  A    between atoms: C_15  and  N_16
REMARK    7  A    between atoms: C_23  and  C_24
REMARK                            x       y       z     vdW  Elec       q    Type
REMARK                         _______ _______ _______ _____ _____    ______ ____
ROOT
ATOM      1  C   UNL     1       2.521   7.334  18.890  0.00  0.00    +0.000 A 
ATOM      2  C   UNL     1       2.449   8.042  17.686  0.00  0.00    +0.000 A 
ATOM      3  C   UNL     1       1.722   9.233  17.617  0.00  0.00    +0.000 A 
ATOM      4  C   UNL     1       1.059   9.737  18.748  0.00  0.00    +0.000 A 
ATOM      5  C   UNL     1       1.137   9.019  19.951  0.00  0.00    +0.000 A 
ATOM      6  C   UNL     1       1.872   7.831  20.027  0.00  0.00    +0.000 A 
ENDROOT
BRANCH   1   8
ATOM      7  O   UNL     1       3.711   5.630  20.005  0.00  0.00    +0.000 OA
ATOM      8  C   UNL     1       3.316   6.077  18.936  0.00  0.00    +0.000 C 
ATOM      9  N   UNL     1       3.587   5.502  17.714  0.00  0.00    +0.000 N 
ATOM     10  H   UNL     1       3.325   5.972  16.856  0.00  0.00    +0.000 HD
BRANCH   9  11
ATOM     11  C   UNL     1       4.309   4.251  17.607  0.00  0.00    +0.000 C 
BRANCH  11  12
ATOM     12  C   UNL     1       5.615   4.385  16.822  0.00  0.00    +0.000 C 
BRANCH  12  13
ATOM     13  C   UNL     1       6.503   5.456  17.347  0.00  0.00    +0.000 A 
ATOM     14  C   UNL     1       7.364   5.526  18.422  0.00  0.00    +0.000 A 
ATOM     15  C   UNL     1       7.881   6.844  18.435  0.00  0.00    +0.000 A 
ATOM     16  C   UNL     1       7.310   7.490  17.364  0.00  0.00    +0.000 A 
ATOM     17  O   UNL     1       6.479   6.653  16.690  0.00  0.00    +0.000 OA
ENDBRANCH  12  13
ENDBRANCH  11  12
ENDBRANCH   9  11
ENDBRANCH   1   8
BRANCH   4  18
ATOM     18  C   UNL     1       0.298  11.042  18.683  0.00  0.00    +0.000 C 
BRANCH  18  19
ATOM     19  N   UNL     1       0.954  12.071  19.510  0.00  0.00    +0.000 N 
ATOM     20  C   UNL     1       2.193  12.638  19.047  0.00  0.00    +0.000 C 
ATOM     21  O   UNL     1       2.626  12.279  17.960  0.00  0.00    +0.000 OA
ATOM     22  C   UNL     1       2.946  13.619  19.916  0.00  0.00    +0.000 C 
ATOM     23  C   UNL     1       2.220  14.192  21.122  0.00  0.00    +0.000 C 
ATOM     24  N   UNL     1       0.949  13.584  21.402  0.00  0.00    +0.000 N 
ATOM     25  N   UNL     1       0.188  14.009  22.416  0.00  0.00    +0.000 NA
ATOM     26  C   UNL     1      -0.890  13.206  22.374  0.00  0.00    +0.000 A 
ATOM     27  C   UNL     1      -0.795  12.297  21.278  0.00  0.00    +0.000 A 
ATOM     28  C   UNL     1       0.392  12.595  20.660  0.00  0.00    +0.000 A 
BRANCH  26  29
ATOM     29  C   UNL     1      -1.980  13.324  23.342  0.00  0.00    +0.000 A 
ATOM     30  C   UNL     1      -2.061  14.437  24.190  0.00  0.00    +0.000 A 
ATOM     31  C   UNL     1      -3.099  14.549  25.118  0.00  0.00    +0.000 A 
ATOM     32  C   UNL     1      -4.065  13.548  25.207  0.00  0.00    +0.000 A 
ATOM     33  C   UNL     1      -3.998  12.439  24.367  0.00  0.00    +0.000 A 
ATOM     34  C   UNL     1      -2.962  12.326  23.437  0.00  0.00    +0.000 A 
ENDBRANCH  26  29
ENDBRANCH  18  19
ENDBRANCH   4  18
TORSDOF 7
ENDMDL
MODEL 3
REMARK VINA RESULT:      -8.3      1.812      3.153
REMARK  Name = 
REMARK  7 active torsions:
REMARK  status: ('A' for Active; 'I' for Inactive)
REMARK    1  A    between atoms: C_2  and  C_11
REMARK    2  A    between atoms: N_3  and  C_4
REMARK    3  A    between atoms: C_4  and  C_5
REMARK    4  A    between atoms: C_5  and  C_6
REMARK    5  A    between atoms: C_14  and  C_15
REMARK    6  A    between atoms: C_15  and  N_16
REMARK    7  A    between atoms: C_23  and  C_24
REMARK                            x       y       z     vdW  Elec       q    Type
REMARK                         _______ _______ _______ _____ _____    ______ ____
ROOT
ATOM      1  C   UNL     1       2.061   7.593  19.456  0.00  0.00    +0.000 A 
ATOM      2  C   UNL     1       1.344   8.238  20.469  0.00  0.00    +0.000 A 
ATOM      3  C   UNL     1       0.751   9.480  20.226  0.00  0.00    +0.000 A 
ATOM      4  C   UNL     1       0.859  10.093  18.967  0.00  0.00    +0.000 A 
ATOM      5  C   UNL     1       1.580   9.439  17.958  0.00  0.00    +0.000 A 
ATOM      6  C   UNL     1       2.168   8.191  18.195  0.00  0.00    +0.000 A 
ENDROOT
BRANCH   1   8
ATOM      7  O   UNL     1       2.246   5.572  20.657  0.00  0.00    +0.000 OA
ATOM      8  C   UNL     1       2.668   6.266  19.741  0.00  0.00    +0.000 C 
ATOM      9  N   UNL     1       3.729   5.914  18.936  0.00  0.00    +0.000 N 
ATOM     10  H   UNL     1       4.103   6.571  18.263  0.00  0.00    +0.000 HD
BRANCH   9  11
ATOM     11  C   UNL     1       4.388   4.631  19.065  0.00  0.00    +0.000 C 
BRANCH  11  12
ATOM     12  C   UNL     1       5.885   4.698  18.757  0.00  0.00    +0.000 C 
BRANCH  12  13
ATOM     13  C   UNL     1       6.179   4.743  17.300  0.00  0.00    +0.000 A 
ATOM     14  C   UNL     1       7.317   4.506  16.558  0.00  0.00    +0.000 A 
ATOM     15  C   UNL     1       6.979   4.776  15.210  0.00  0.00    +0.000 A 
ATOM     16  C   UNL     1       5.657   5.153  15.214  0.00  0.00    +0.000 A 
ATOM     17  O   UNL     1       5.158   5.126  16.478  0.00  0.00    +0.000 OA
ENDBRANCH  12  13
ENDBRANCH  11  12
ENDBRANCH   9  11
ENDBRANCH   1   8
BRANCH   4  18
ATOM     18  C   UNL     1       0.191  11.422  18.693  0.00  0.00    +0.000 C 
BRANCH  18  19
ATOM     19  N   UNL     1       0.490  12.388  19.766  0.00  0.00    +0.000 N 
ATOM     20  C   UNL     1       1.732  13.114  19.711  0.00  0.00    +0.000 C 
ATOM     21  O   UNL     1       2.467  12.937  18.749  0.00  0.00    +0.000 OA
ATOM     22  C   UNL     1       2.118  14.036  20.845  0.00  0.00    +0.000 C 
ATOM     23  C   UNL     1       1.047  14.383  21.866  0.00  0.00    +0.000 C 
ATOM     24  N   UNL     1      -0.174  13.638  21.732  0.00  0.00    +0.000 N 
ATOM     25  N   UNL     1      -1.212  13.861  22.544  0.00  0.00    +0.000 NA
ATOM     26  C   UNL     1      -2.143  12.981  22.133  0.00  0.00    +0.000 A 
ATOM     27  C   UNL     1      -1.666  12.233  21.015  0.00  0.00    +0.000 A 
ATOM     28  C   UNL     1      -0.403  12.709  20.771  0.00  0.00    +0.000 A 
BRANCH  26  29
ATOM     29  C   UNL     1      -3.450  12.878  22.781  0.00  0.00    +0.000 A 
ATOM     30  C   UNL     1      -3.552  12.442  24.109  0.00  0.00    +0.000 A 
ATOM     31  C   UNL     1      -4.800  12.339  24.729  0.00  0.00    +0.000 A 
ATOM     32  C   UNL     1      -5.957  12.671  24.026  0.00  0.00    +0.000 A 
ATOM     33  C   UNL     1      -5.868  13.110  22.707  0.00  0.00    +0.000 A 
ATOM     34  C   UNL     1      -4.621  13.215  22.087  0.00  0.00    +0.000 A 
ENDBRANCH  26  29
ENDBRANCH  18  19
ENDBRANCH   4  18
TORSDOF 7
ENDMDL
MODEL 4
REMARK VINA RESULT:      -8.2      3.202     10.711
REMARK  Name = 
REMARK  7 active torsions:
REMARK  status: ('A' for Active; 'I' for Inactive)
REMARK    1  A    between atoms: C_2  and  C_11
REMARK    2  A    between atoms: N_3  and  C_4
REMARK    3  A    between atoms: C_4  and  C_5
REMARK    4  A    between atoms: C_5  and  C_6
REMARK    5  A    between atoms: C_14  and  C_15
REMARK    6  A    between atoms: C_15  and  N_16
REMARK    7  A    between atoms: C_23  and  C_24
REMARK                            x       y       z     vdW  Elec       q    Type
REMARK                         _______ _______ _______ _____ _____    ______ ____
ROOT
ATOM      1  C   UNL     1       0.719   9.583  18.764  0.00  0.00    +0.000 A 
ATOM      2  C   UNL     1       1.503   8.916  17.816  0.00  0.00    +0.000 A 
ATOM      3  C   UNL     1       2.326   7.857  18.208  0.00  0.00    +0.000 A 
ATOM      4  C   UNL     1       2.375   7.444  19.549  0.00  0.00    +0.000 A 
ATOM      5  C   UNL     1       1.585   8.119  20.493  0.00  0.00    +0.000 A 
ATOM      6  C   UNL     1       0.753   9.174  20.102  0.00  0.00    +0.000 A 
ENDROOT
BRANCH   1   8
ATOM      7  O   UNL     1       0.092  11.853  18.629  0.00  0.00    +0.000 OA
ATOM      8  C   UNL     1      -0.158  10.697  18.313  0.00  0.00    +0.000 C 
ATOM      9  N   UNL     1      -1.254  10.323  17.566  0.00  0.00    +0.000 N 
ATOM     10  H   UNL     1      -1.469   9.344  17.424  0.00  0.00    +0.000 HD
BRANCH   9  11
ATOM     11  C   UNL     1      -2.169  11.303  17.018  0.00  0.00    +0.000 C 
BRANCH  11  12
ATOM     12  C   UNL     1      -3.637  10.913  17.204  0.00  0.00    +0.000 C 
BRANCH  12  13
ATOM     13  C   UNL     1      -4.256  11.530  18.407  0.00  0.00    +0.000 A 
ATOM     14  C   UNL     1      -5.559  11.647  18.843  0.00  0.00    +0.000 A 
ATOM     15  C   UNL     1      -5.512  12.402  20.041  0.00  0.00    +0.000 A 
ATOM     16  C   UNL     1      -4.186  12.689  20.262  0.00  0.00    +0.000 A 
ATOM     17  O   UNL     1      -3.412  12.154  19.281  0.00  0.00    +0.000 OA
ENDBRANCH  12  13
ENDBRANCH  11  12
ENDBRANCH   9  11
ENDBRANCH   1   8
BRANCH   4  18
ATOM     18  C   UNL     1       3.240   6.278  19.970  0.00  0.00    +0.000 C 
BRANCH  18  19
ATOM     19  N   UNL     1       2.816   5.041  19.290  0.00  0.00    +0.000 N 
ATOM     20  C   UNL     1       1.666   4.338  19.796  0.00  0.00    +0.000 C 
ATOM     21  O   UNL     1       1.057   4.824  20.739  0.00  0.00    +0.000 OA
ATOM     22  C   UNL     1       1.263   3.013  19.189  0.00  0.00    +0.000 C 
ATOM     23  C   UNL     1       1.917   2.613  17.877  0.00  0.00    +0.000 C 
ATOM     24  N   UNL     1       2.991   3.468  17.456  0.00  0.00    +0.000 N 
ATOM     25  N   UNL     1       3.636   3.252  16.305  0.00  0.00    +0.000 NA
ATOM     26  C   UNL     1       4.565   4.224  16.263  0.00  0.00    +0.000 A 
ATOM     27  C   UNL     1       4.450   5.075  17.403  0.00  0.00    +0.000 A 
ATOM     28  C   UNL     1       3.404   4.570  18.131  0.00  0.00    +0.000 A 
BRANCH  26  29
ATOM     29  C   UNL     1       5.515   4.339  15.157  0.00  0.00    +0.000 A 
ATOM     30  C   UNL     1       5.278   3.676  13.945  0.00  0.00    +0.000 A 
ATOM     31  C   UNL     1       6.186   3.782  12.888  0.00  0.00    +0.000 A 
ATOM     32  C   UNL     1       7.340   4.551  13.035  0.00  0.00    +0.000 A 
ATOM     33  C   UNL     1       7.583   5.218  14.234  0.00  0.00    +0.000 A 
ATOM     34  C   UNL     1       6.676   5.115  15.290  0.00  0.00    +0.000 A 
ENDBRANCH  26  29
ENDBRANCH  18  19
ENDBRANCH   4  18
TORSDOF 7
ENDMDL
MODEL 5
REMARK VINA RESULT:      -8.2      4.280      9.101
REMARK  Name = 
REMARK  7 active torsions:
REMARK  status: ('A' for Active; 'I' for Inactive)
REMARK    1  A    between atoms: C_2  and  C_11
REMARK    2  A    between atoms: N_3  and  C_4
REMARK    3  A    between atoms: C_4  and  C_5
REMARK    4  A    between atoms: C_5  and  C_6
REMARK    5  A    between atoms: C_14  and  C_15
REMARK    6  A    between atoms: C_15  and  N_16
REMARK    7  A    between atoms: C_23  and  C_24
REMARK                            x       y       z     vdW  Elec       q    Type
REMARK                         _______ _______ _______ _____ _____    ______ ____
ROOT
ATOM      1  C   UNL     1       7.454   7.297  18.026  0.00  0.00    +0.000 A 
ATOM      2  C   UNL     1       6.433   7.111  17.088  0.00  0.00    +0.000 A 
ATOM      3  C   UNL     1       5.674   5.938  17.102  0.00  0.00    +0.000 A 
ATOM      4  C   UNL     1       5.918   4.936  18.056  0.00  0.00    +0.000 A 
ATOM      5  C   UNL     1       6.944   5.132  18.993  0.00  0.00    +0.000 A 
ATOM      6  C   UNL     1       7.700   6.310  18.988  0.00  0.00    +0.000 A 
ENDROOT
BRANCH   1   8
ATOM      7  O   UNL     1       8.388   9.174  16.945  0.00  0.00    +0.000 OA
ATOM      8  C   UNL     1       8.234   8.563  17.995  0.00  0.00    +0.000 C 
ATOM      9  N   UNL     1       8.778   8.955  19.199  0.00  0.00    +0.000 N 
ATOM     10  H   UNL     1       8.707   8.356  20.013  0.00  0.00    +0.000 HD
BRANCH   9  11
ATOM     11  C   UNL     1       9.521  10.190  19.331  0.00  0.00    +0.000 C 
BRANCH  11  12
ATOM     12  C   UNL     1       9.405  10.807  20.726  0.00  0.00    +0.000 C 
BRANCH  12  13
ATOM     13  C   UNL     1       9.716  12.261  20.749  0.00  0.00    +0.000 A 
ATOM     14  C   UNL     1      10.852  12.988  20.463  0.00  0.00    +0.000 A 
ATOM     15  C   UNL     1      10.538  14.342  20.735  0.00  0.00    +0.000 A 
ATOM     16  C   UNL     1       9.231  14.355  21.161  0.00  0.00    +0.000 A 
ATOM     17  O   UNL     1       8.718  13.097  21.163  0.00  0.00    +0.000 OA
ENDBRANCH  12  13
ENDBRANCH  11  12
ENDBRANCH   9  11
ENDBRANCH   1   8
BRANCH   4  18
ATOM     18  C   UNL     1       5.077   3.680  18.093  0.00  0.00    +0.000 C 
BRANCH  18  19
ATOM     19  N   UNL     1       4.123   3.724  19.217  0.00  0.00    +0.000 N 
ATOM     20  C   UNL     1       4.099   2.621  20.142  0.00  0.00    +0.000 C 
ATOM     21  O   UNL     1       4.908   1.715  19.986  0.00  0.00    +0.000 OA
ATOM     22  C   UNL     1       3.066   2.582  21.244  0.00  0.00    +0.000 C 
ATOM     23  C   UNL     1       2.275   3.852  21.512  0.00  0.00    +0.000 C 
ATOM     24  N   UNL     1       2.477   4.899  20.550  0.00  0.00    +0.000 N 
ATOM     25  N   UNL     1       1.867   6.082  20.678  0.00  0.00    +0.000 NA
ATOM     26  C   UNL     1       2.278   6.779  19.604  0.00  0.00    +0.000 A 
ATOM     27  C   UNL     1       3.194   6.008  18.827  0.00  0.00    +0.000 A 
ATOM     28  C   UNL     1       3.317   4.813  19.489  0.00  0.00    +0.000 A 
BRANCH  26  29
ATOM     29  C   UNL     1       1.821   8.144  19.346  0.00  0.00    +0.000 A 
ATOM     30  C   UNL     1       2.102   8.768  18.123  0.00  0.00    +0.000 A 
ATOM     31  C   UNL     1       1.669  10.074  17.876  0.00  0.00    +0.000 A 
ATOM     32  C   UNL     1       0.953  10.767  18.850  0.00  0.00    +0.000 A 
ATOM     33  C   UNL     1       0.664  10.155  20.068  0.00  0.00    +0.000 A 
ATOM     34  C   UNL     1       1.094   8.851  20.316  0.00  0.00    +0.000 A 
ENDBRANCH  26  29
ENDBRANCH  18  19
ENDBRANCH   4  18
TORSDOF 7
ENDMDL
MODEL 6
REMARK VINA RESULT:      -8.2      4.430      8.800
REMARK  Name = 
REMARK  7 active torsions:
REMARK  status: ('A' for Active; 'I' for Inactive)
REMARK    1  A    between atoms: C_2  and  C_11
REMARK    2  A    between atoms: N_3  and  C_4
REMARK    3  A    between atoms: C_4  and  C_5
REMARK    4  A    between atoms: C_5  and  C_6
REMARK    5  A    between atoms: C_14  and  C_15
REMARK    6  A    between atoms: C_15  and  N_16
REMARK    7  A    between atoms: C_23  and  C_24
REMARK                            x       y       z     vdW  Elec       q    Type
REMARK                         _______ _______ _______ _____ _____    ______ ____
ROOT
ATOM      1  C   UNL     1       6.808   6.757  17.898  0.00  0.00    +0.000 A 
ATOM      2  C   UNL     1       6.706   5.624  18.712  0.00  0.00    +0.000 A 
ATOM      3  C   UNL     1       5.694   4.688  18.485  0.00  0.00    +0.000 A 
ATOM      4  C   UNL     1       4.772   4.866  17.440  0.00  0.00    +0.000 A 
ATOM      5  C   UNL     1       4.883   6.005  16.630  0.00  0.00    +0.000 A 
ATOM      6  C   UNL     1       5.901   6.940  16.848  0.00  0.00    +0.000 A 
ENDROOT
BRANCH   1   8
ATOM      7  O   UNL     1       8.814   7.450  18.928  0.00  0.00    +0.000 OA
ATOM      8  C   UNL     1       7.906   7.727  18.155  0.00  0.00    +0.000 C 
ATOM      9  N   UNL     1       7.797   8.934  17.498  0.00  0.00    +0.000 N 
ATOM     10  H   UNL     1       6.972   9.148  16.954  0.00  0.00    +0.000 HD
BRANCH   9  11
ATOM     11  C   UNL     1       8.816   9.956  17.614  0.00  0.00    +0.000 C 
BRANCH  11  12
ATOM     12  C   UNL     1       9.027  10.423  19.056  0.00  0.00    +0.000 C 
BRANCH  12  13
ATOM     13  C   UNL     1      10.275  11.211  19.237  0.00  0.00    +0.000 A 
ATOM     14  C   UNL     1      10.918  11.720  20.345  0.00  0.00    +0.000 A 
ATOM     15  C   UNL     1      12.038  12.439  19.862  0.00  0.00    +0.000 A 
ATOM     16  C   UNL     1      12.011  12.317  18.493  0.00  0.00    +0.000 A 
ATOM     17  O   UNL     1      10.949  11.564  18.103  0.00  0.00    +0.000 OA
ENDBRANCH  12  13
ENDBRANCH  11  12
ENDBRANCH   9  11
ENDBRANCH   1   8
BRANCH   4  18
ATOM     18  C   UNL     1       3.696   3.838  17.173  0.00  0.00    +0.000 C 
BRANCH  18  19
ATOM     19  N   UNL     1       2.885   3.605  18.383  0.00  0.00    +0.000 N 
ATOM     20  C   UNL     1       2.772   2.262  18.887  0.00  0.00    +0.000 C 
ATOM     21  O   UNL     1       3.395   1.374  18.319  0.00  0.00    +0.000 OA
ATOM     22  C   UNL     1       1.868   1.969  20.062  0.00  0.00    +0.000 C 
ATOM     23  C   UNL     1       1.334   3.154  20.851  0.00  0.00    +0.000 C 
ATOM     24  N   UNL     1       1.608   4.437  20.266  0.00  0.00    +0.000 N 
ATOM     25  N   UNL     1       1.224   5.567  20.868  0.00  0.00    +0.000 NA
ATOM     26  C   UNL     1       1.633   6.538  20.032  0.00  0.00    +0.000 A 
ATOM     27  C   UNL     1       2.319   5.978  18.913  0.00  0.00    +0.000 A 
ATOM     28  C   UNL     1       2.307   4.623  19.119  0.00  0.00    +0.000 A 
BRANCH  26  29
ATOM     29  C   UNL     1       1.388   7.952  20.311  0.00  0.00    +0.000 A 
ATOM     30  C   UNL     1       1.343   8.885  19.265  0.00  0.00    +0.000 A 
ATOM     31  C   UNL     1       1.113  10.238  19.529  0.00  0.00    +0.000 A 
ATOM     32  C   UNL     1       0.927  10.670  20.841  0.00  0.00    +0.000 A 
ATOM     33  C   UNL     1       0.965   9.752  21.888  0.00  0.00    +0.000 A 
ATOM     34  C   UNL     1       1.193   8.399  21.626  0.00  0.00    +0.000 A 
ENDBRANCH  26  29
ENDBRANCH  18  19
ENDBRANCH   4  18
TORSDOF 7
ENDMDL
MODEL 7
REMARK VINA RESULT:      -8.2      3.664     10.912
REMARK  Name = 
REMARK  7 active torsions:
REMARK  status: ('A' for Active; 'I' for Inactive)
REMARK    1  A    between atoms: C_2  and  C_11
REMARK    2  A    between atoms: N_3  and  C_4
REMARK    3  A    between atoms: C_4  and  C_5
REMARK    4  A    between atoms: C_5  and  C_6
REMARK    5  A    between atoms: C_14  and  C_15
REMARK    6  A    between atoms: C_15  and  N_16
REMARK    7  A    between atoms: C_23  and  C_24
REMARK                            x       y       z     vdW  Elec       q    Type
REMARK                         _______ _______ _______ _____ _____    ______ ____
ROOT
ATOM      1  C   UNL     1       0.731   9.618  18.965  0.00  0.00    +0.000 A 
ATOM      2  C   UNL     1       0.765   9.150  20.283  0.00  0.00    +0.000 A 
ATOM      3  C   UNL     1       1.562   8.052  20.617  0.00  0.00    +0.000 A 
ATOM      4  C   UNL     1       2.341   7.408  19.642  0.00  0.00    +0.000 A 
ATOM      5  C   UNL     1       2.300   7.884  18.323  0.00  0.00    +0.000 A 
ATOM      6  C   UNL     1       1.511   8.989  17.987  0.00  0.00    +0.000 A 
ENDROOT
BRANCH   1   8
ATOM      7  O   UNL     1       0.392  11.898  18.464  0.00  0.00    +0.000 OA
ATOM      8  C   UNL     1      -0.115  10.798  18.644  0.00  0.00    +0.000 C 
ATOM      9  N   UNL     1      -1.472  10.562  18.603  0.00  0.00    +0.000 N 
ATOM     10  H   UNL     1      -1.843   9.656  18.864  0.00  0.00    +0.000 HD
BRANCH   9  11
ATOM     11  C   UNL     1      -2.415  11.604  18.256  0.00  0.00    +0.000 C 
BRANCH  11  12
ATOM     12  C   UNL     1      -3.414  11.167  17.183  0.00  0.00    +0.000 C 
BRANCH  12  13
ATOM     13  C   UNL     1      -4.828  11.438  17.559  0.00  0.00    +0.000 A 
ATOM     14  C   UNL     1      -5.704  10.834  18.435  0.00  0.00    +0.000 A 
ATOM     15  C   UNL     1      -6.938  11.517  18.300  0.00  0.00    +0.000 A 
ATOM     16  C   UNL     1      -6.732  12.498  17.359  0.00  0.00    +0.000 A 
ATOM     17  O   UNL     1      -5.450  12.466  16.909  0.00  0.00    +0.000 OA
ENDBRANCH  12  13
ENDBRANCH  11  12
ENDBRANCH   9  11
ENDBRANCH   1   8
BRANCH   4  18
ATOM     18  C   UNL     1       3.228   6.239  20.007  0.00  0.00    +0.000 C 
BRANCH  18  19
ATOM     19  N   UNL     1       2.798   5.017  19.303  0.00  0.00    +0.000 N 
ATOM     20  C   UNL     1       1.639   4.316  19.790  0.00  0.00    +0.000 C 
ATOM     21  O   UNL     1       1.027   4.791  20.737  0.00  0.00    +0.000 OA
ATOM     22  C   UNL     1       1.229   3.005  19.158  0.00  0.00    +0.000 C 
ATOM     23  C   UNL     1       1.887   2.621  17.843  0.00  0.00    +0.000 C 
ATOM     24  N   UNL     1       2.972   3.475  17.443  0.00  0.00    +0.000 N 
ATOM     25  N   UNL     1       3.622   3.272  16.293  0.00  0.00    +0.000 NA
ATOM     26  C   UNL     1       4.559   4.237  16.274  0.00  0.00    +0.000 A 
ATOM     27  C   UNL     1       4.444   5.070  17.427  0.00  0.00    +0.000 A 
ATOM     28  C   UNL     1       3.389   4.561  18.140  0.00  0.00    +0.000 A 
BRANCH  26  29
ATOM     29  C   UNL     1       5.517   4.364  15.176  0.00  0.00    +0.000 A 
ATOM     30  C   UNL     1       5.299   3.698  13.962  0.00  0.00    +0.000 A 
ATOM     31  C   UNL     1       6.215   3.814  12.913  0.00  0.00    +0.000 A 
ATOM     32  C   UNL     1       7.357   4.596  13.070  0.00  0.00    +0.000 A 
ATOM     33  C   UNL     1       7.583   5.266  14.270  0.00  0.00    +0.000 A 
ATOM     34  C   UNL     1       6.668   5.153  15.318  0.00  0.00    +0.000 A 
ENDBRANCH  26  29
ENDBRANCH  18  19
ENDBRANCH   4  18
TORSDOF 7
ENDMDL
MODEL 8
REMARK VINA RESULT:      -8.2      1.886      3.057
REMARK  Name = 
REMARK  7 active torsions:
REMARK  status: ('A' for Active; 'I' for Inactive)
REMARK    1  A    between atoms: C_2  and  C_11
REMARK    2  A    between atoms: N_3  and  C_4
REMARK    3  A    between atoms: C_4  and  C_5
REMARK    4  A    between atoms: C_5  and  C_6
REMARK    5  A    between atoms: C_14  and  C_15
REMARK    6  A    between atoms: C_15  and  N_16
REMARK    7  A    between atoms: C_23  and  C_24
REMARK                            x       y       z     vdW  Elec       q    Type
REMARK                         _______ _______ _______ _____ _____    ______ ____
ROOT
ATOM      1  C   UNL     1       2.224   7.476  19.349  0.00  0.00    +0.000 A 
ATOM      2  C   UNL     1       2.238   8.065  18.081  0.00  0.00    +0.000 A 
ATOM      3  C   UNL     1       1.549   9.259  17.855  0.00  0.00    +0.000 A 
ATOM      4  C   UNL     1       0.840   9.886  18.893  0.00  0.00    +0.000 A 
ATOM      5  C   UNL     1       0.831   9.287  20.162  0.00  0.00    +0.000 A 
ATOM      6  C   UNL     1       1.528   8.096  20.393  0.00  0.00    +0.000 A 
ENDROOT
BRANCH   1   8
ATOM      7  O   UNL     1       2.653   5.432  20.447  0.00  0.00    +0.000 OA
ATOM      8  C   UNL     1       2.980   6.212  19.562  0.00  0.00    +0.000 C 
ATOM      9  N   UNL     1       4.061   6.020  18.729  0.00  0.00    +0.000 N 
ATOM     10  H   UNL     1       4.347   6.747  18.085  0.00  0.00    +0.000 HD
BRANCH   9  11
ATOM     11  C   UNL     1       4.860   4.814  18.787  0.00  0.00    +0.000 C 
BRANCH  11  12
ATOM     12  C   UNL     1       4.657   3.909  17.571  0.00  0.00    +0.000 C 
BRANCH  12  13
ATOM     13  C   UNL     1       5.620   4.184  16.472  0.00  0.00    +0.000 A 
ATOM     14  C   UNL     1       6.883   4.737  16.440  0.00  0.00    +0.000 A 
ATOM     15  C   UNL     1       7.261   4.791  15.076  0.00  0.00    +0.000 A 
ATOM     16  C   UNL     1       6.210   4.260  14.365  0.00  0.00    +0.000 A 
ATOM     17  O   UNL     1       5.212   3.879  15.205  0.00  0.00    +0.000 OA
ENDBRANCH  12  13
ENDBRANCH  11  12
ENDBRANCH   9  11
ENDBRANCH   1   8
BRANCH   4  18
ATOM     18  C   UNL     1       0.119  11.194  18.659  0.00  0.00    +0.000 C 
BRANCH  18  19
ATOM     19  N   UNL     1       0.456  12.171  19.711  0.00  0.00    +0.000 N 
ATOM     20  C   UNL     1       1.714  12.866  19.627  0.00  0.00    +0.000 C 
ATOM     21  O   UNL     1       2.431  12.654  18.657  0.00  0.00    +0.000 OA
ATOM     22  C   UNL     1       2.139  13.797  20.739  0.00  0.00    +0.000 C 
ATOM     23  C   UNL     1       1.091  14.188  21.768  0.00  0.00    +0.000 C 
ATOM     24  N   UNL     1      -0.149  13.470  21.665  0.00  0.00    +0.000 N 
ATOM     25  N   UNL     1      -1.170  13.732  22.487  0.00  0.00    +0.000 NA
ATOM     26  C   UNL     1      -2.128  12.868  22.104  0.00  0.00    +0.000 A 
ATOM     27  C   UNL     1      -1.684  12.089  20.993  0.00  0.00    +0.000 A 
ATOM     28  C   UNL     1      -0.414  12.530  20.723  0.00  0.00    +0.000 A 
BRANCH  26  29
ATOM     29  C   UNL     1      -3.427  12.808  22.772  0.00  0.00    +0.000 A 
ATOM     30  C   UNL     1      -3.514  12.460  24.127  0.00  0.00    +0.000 A 
ATOM     31  C   UNL     1      -4.755  12.398  24.766  0.00  0.00    +0.000 A 
ATOM     32  C   UNL     1      -5.920  12.683  24.055  0.00  0.00    +0.000 A 
ATOM     33  C   UNL     1      -5.846  13.034  22.709  0.00  0.00    +0.000 A 
ATOM     34  C   UNL     1      -4.607  13.098  22.070  0.00  0.00    +0.000 A 
ENDBRANCH  26  29
ENDBRANCH  18  19
ENDBRANCH   4  18
TORSDOF 7
ENDMDL
MODEL 9
REMARK VINA RESULT:      -8.2      1.820      3.029
REMARK  Name = 
REMARK  7 active torsions:
REMARK  status: ('A' for Active; 'I' for Inactive)
REMARK    1  A    between atoms: C_2  and  C_11
REMARK    2  A    between atoms: N_3  and  C_4
REMARK    3  A    between atoms: C_4  and  C_5
REMARK    4  A    between atoms: C_5  and  C_6
REMARK    5  A    between atoms: C_14  and  C_15
REMARK    6  A    between atoms: C_15  and  N_16
REMARK    7  A    between atoms: C_23  and  C_24
REMARK                            x       y       z     vdW  Elec       q    Type
REMARK                         _______ _______ _______ _____ _____    ______ ____
ROOT
ATOM      1  C   UNL     1       2.193   7.263  19.332  0.00  0.00    +0.000 A 
ATOM      2  C   UNL     1       1.528   7.940  20.359  0.00  0.00    +0.000 A 
ATOM      3  C   UNL     1       0.930   9.178  20.110  0.00  0.00    +0.000 A 
ATOM      4  C   UNL     1       0.982   9.756  18.831  0.00  0.00    +0.000 A 
ATOM      5  C   UNL     1       1.652   9.069  17.807  0.00  0.00    +0.000 A 
ATOM      6  C   UNL     1       2.243   7.825  18.051  0.00  0.00    +0.000 A 
ENDROOT
BRANCH   1   8
ATOM      7  O   UNL     1       2.667   5.419  20.724  0.00  0.00    +0.000 OA
ATOM      8  C   UNL     1       2.806   5.940  19.625  0.00  0.00    +0.000 C 
ATOM      9  N   UNL     1       3.545   5.388  18.600  0.00  0.00    +0.000 N 
ATOM     10  H   UNL     1       3.713   5.911  17.750  0.00  0.00    +0.000 HD
BRANCH   9  11
ATOM     11  C   UNL     1       4.159   4.083  18.724  0.00  0.00    +0.000 C 
BRANCH  11  12
ATOM     12  C   UNL     1       5.609   4.153  19.206  0.00  0.00    +0.000 C 
BRANCH  12  13
ATOM     13  C   UNL     1       6.387   5.243  18.559  0.00  0.00    +0.000 A 
ATOM     14  C   UNL     1       7.410   6.060  18.992  0.00  0.00    +0.000 A 
ATOM     15  C   UNL     1       7.689   6.950  17.927  0.00  0.00    +0.000 A 
ATOM     16  C   UNL     1       6.826   6.614  16.910  0.00  0.00    +0.000 A 
ATOM     17  O   UNL     1       6.037   5.571  17.280  0.00  0.00    +0.000 OA
ENDBRANCH  12  13
ENDBRANCH  11  12
ENDBRANCH   9  11
ENDBRANCH   1   8
BRANCH   4  18
ATOM     18  C   UNL     1       0.309  11.081  18.551  0.00  0.00    +0.000 C 
BRANCH  18  19
ATOM     19  N   UNL     1       0.672  12.077  19.575  0.00  0.00    +0.000 N 
ATOM     20  C   UNL     1       1.937  12.753  19.460  0.00  0.00    +0.000 C 
ATOM     21  O   UNL     1       2.640  12.509  18.488  0.00  0.00    +0.000 OA
ATOM     22  C   UNL     1       2.387  13.704  20.546  0.00  0.00    +0.000 C 
ATOM     23  C   UNL     1       1.357  14.132  21.577  0.00  0.00    +0.000 C 
ATOM     24  N   UNL     1       0.106  13.429  21.505  0.00  0.00    +0.000 N 
ATOM     25  N   UNL     1      -0.901  13.724  22.332  0.00  0.00    +0.000 NA
ATOM     26  C   UNL     1      -1.874  12.864  21.981  0.00  0.00    +0.000 A 
ATOM     27  C   UNL     1      -1.455  12.054  20.884  0.00  0.00    +0.000 A 
ATOM     28  C   UNL     1      -0.182  12.472  20.589  0.00  0.00    +0.000 A 
BRANCH  26  29
ATOM     29  C   UNL     1      -3.167  12.837  22.665  0.00  0.00    +0.000 A 
ATOM     30  C   UNL     1      -3.247  12.478  24.017  0.00  0.00    +0.000 A 
ATOM     31  C   UNL     1      -4.482  12.448  24.672  0.00  0.00    +0.000 A 
ATOM     32  C   UNL     1      -5.646  12.775  23.980  0.00  0.00    +0.000 A 
ATOM     33  C   UNL     1      -5.578  13.138  22.636  0.00  0.00    +0.000 A 
ATOM     34  C   UNL     1      -4.345  13.171  21.981  0.00  0.00    +0.000 A 
ENDBRANCH  26  29
ENDBRANCH  18  19
ENDBRANCH   4  18
TORSDOF 7
ENDMDL
