MODEL 1
REMARK VINA RESULT:      -8.0      0.000      0.000
REMARK  Name = 
REMARK  9 active torsions:
REMARK  status: ('A' for Active; 'I' for Inactive)
REMARK    1  A    between atoms: C_2  and  O_3
REMARK    2  A    between atoms: O_3  and  C_4
REMARK    3  A    between atoms: N_6  and  C_7
REMARK    4  A    between atoms: C_7  and  C_8
REMARK    5  A    between atoms: C_8  and  C_9
REMARK    6  A    between atoms: C_9  and  C_10
REMARK    7  A    between atoms: N_20  and  C_21
REMARK    8  A    between atoms: N_20  and  C_27
REMARK    9  A    between atoms: C_21  and  C_22
REMARK                            x       y       z     vdW  Elec       q    Type
REMARK                         _______ _______ _______ _____ _____    ______ ____
ROOT
ATOM      1  O   UNL     1       3.968   3.277  17.859  0.00  0.00    +0.000 OA
ENDROOT
BRANCH   1   2
ATOM      2  C   UNL     1       3.797   3.425  19.287  0.00  0.00    +0.000 C 
ATOM      3  C   UNL     1       3.214   4.811  19.629  0.00  0.00    +0.000 C 
ATOM      4  N   UNL     1       1.961   4.657  20.538  0.00  0.00    +0.000 N 
ATOM      5  C   UNL     1       0.887   3.879  19.749  0.00  0.00    +0.000 C 
ATOM      6  C   UNL     1       1.450   2.532  19.301  0.00  0.00    +0.000 C 
ATOM      7  C   UNL     1       2.868   2.323  19.836  0.00  0.00    +0.000 C 
ATOM      8  C   UNL     1       2.807   2.447  21.365  0.00  0.00    +0.000 C 
ATOM      9  C   UNL     1       2.334   3.839  21.790  0.00  0.00    +0.000 C 
BRANCH   4  10
ATOM     10  C   UNL     1       1.366   6.041  20.926  0.00  0.00    +0.000 C 
BRANCH  10  11
ATOM     11  C   UNL     1       1.925   7.188  20.088  0.00  0.00    +0.000 C 
BRANCH  11  12
ATOM     12  C   UNL     1       1.769   8.542  20.787  0.00  0.00    +0.000 C 
BRANCH  12  13
ATOM     13  C   UNL     1       0.782   9.393  20.041  0.00  0.00    +0.000 A 
ATOM     14  C   UNL     1      -0.431   9.884  20.485  0.00  0.00    +0.000 A 
ATOM     15  C   UNL     1      -1.124  10.609  19.473  0.00  0.00    +0.000 A 
ATOM     16  C   UNL     1      -0.414  10.657  18.294  0.00  0.00    +0.000 A 
ATOM     17  S   UNL     1       1.080   9.834  18.412  0.00  0.00    +0.000 S 
ENDBRANCH  12  13
ENDBRANCH  11  12
ENDBRANCH  10  11
ENDBRANCH   4  10
ENDBRANCH   1   2
BRANCH   1  19
ATOM     18  O   UNL     1       3.311   5.376  17.281  0.00  0.00    +0.000 OA
ATOM     19  C   UNL     1       4.141   4.476  17.207  0.00  0.00    +0.000 C 
ATOM     20  N   UNL     1       5.364   4.593  16.563  0.00  0.00    +0.000 N 
BRANCH  20  21
ATOM     21  C   UNL     1       6.406   5.365  17.190  0.00  0.00    +0.000 A 
ATOM     22  C   UNL     1       6.610   6.713  16.854  0.00  0.00    +0.000 A 
ATOM     23  C   UNL     1       7.438   7.523  17.637  0.00  0.00    +0.000 A 
ATOM     24  C   UNL     1       8.112   6.986  18.733  0.00  0.00    +0.000 A 
ATOM     25  C   UNL     1       7.993   5.630  19.019  0.00  0.00    +0.000 A 
ATOM     26  C   UNL     1       7.150   4.823  18.250  0.00  0.00    +0.000 A 
ENDBRANCH  20  21
BRANCH  20  27
ATOM     27  C   UNL     1       5.820   3.505  15.694  0.00  0.00    +0.000 C 
BRANCH  27  28
ATOM     28  C   UNL     1       6.383   3.977  14.377  0.00  0.00    +0.000 A 
ATOM     29  C   UNL     1       5.938   3.429  13.121  0.00  0.00    +0.000 A 
ATOM     30  C   UNL     1       6.550   4.001  12.029  0.00  0.00    +0.000 A 
ATOM     31  S   UNL     1       7.682   5.192  12.492  0.00  0.00    +0.000 S 
ATOM     32  C   UNL     1       7.359   4.932  14.154  0.00  0.00    +0.000 A 
ENDBRANCH  27  28
ENDBRANCH  20  27
ENDBRANCH   1  19
TORSDOF 9
ENDMDL
MODEL 2
REMARK VINA RESULT:      -7.9      0.779      1.363
REMARK  Name = 
REMARK  9 active torsions:
REMARK  status: ('A' for Active; 'I' for Inactive)
REMARK    1  A    between atoms: C_2  and  O_3
REMARK    2  A    between atoms: O_3  and  C_4
REMARK    3  A    between atoms: N_6  and  C_7
REMARK    4  A    between atoms: C_7  and  C_8
REMARK    5  A    between atoms: C_8  and  C_9
REMARK    6  A    between atoms: C_9  and  C_10
REMARK    7  A    between atoms: N_20  and  C_21
REMARK    8  A    between atoms: N_20  and  C_27
REMARK    9  A    between atoms: C_21  and  C_22
REMARK                            x       y       z     vdW  Elec       q    Type
REMARK                         _______ _______ _______ _____ _____    ______ ____
ROOT
ATOM      1  O   UNL     1       4.268   3.241  17.978  0.00  0.00    +0.000 OA
ENDROOT
BRANCH   1   2
ATOM      2  C   UNL     1       3.956   3.415  19.380  0.00  0.00    +0.000 C 
ATOM      3  C   UNL     1       3.275   4.777  19.626  0.00  0.00    +0.000 C 
ATOM      4  N   UNL     1       1.951   4.579  20.418  0.00  0.00    +0.000 N 
ATOM      5  C   UNL     1       0.996   3.728  19.555  0.00  0.00    +0.000 C 
ATOM      6  C   UNL     1       1.665   2.401  19.201  0.00  0.00    +0.000 C 
ATOM      7  C   UNL     1       3.035   2.280  19.872  0.00  0.00    +0.000 C 
ATOM      8  C   UNL     1       2.824   2.437  21.384  0.00  0.00    +0.000 C 
ATOM      9  C   UNL     1       2.244   3.812  21.722  0.00  0.00    +0.000 C 
BRANCH   4  10
ATOM     10  C   UNL     1       1.254   5.939  20.709  0.00  0.00    +0.000 C 
BRANCH  10  11
ATOM     11  C   UNL     1       2.027   7.137  20.160  0.00  0.00    +0.000 C 
BRANCH  11  12
ATOM     12  C   UNL     1       1.747   8.417  20.954  0.00  0.00    +0.000 C 
BRANCH  12  13
ATOM     13  C   UNL     1       0.847   9.322  20.165  0.00  0.00    +0.000 A 
ATOM     14  C   UNL     1       0.854   9.561  18.804  0.00  0.00    +0.000 A 
ATOM     15  C   UNL     1      -0.116  10.530  18.420  0.00  0.00    +0.000 A 
ATOM     16  C   UNL     1      -0.840  10.991  19.497  0.00  0.00    +0.000 A 
ATOM     17  S   UNL     1      -0.351  10.256  20.960  0.00  0.00    +0.000 S 
ENDBRANCH  12  13
ENDBRANCH  11  12
ENDBRANCH  10  11
ENDBRANCH   4  10
ENDBRANCH   1   2
BRANCH   1  19
ATOM     18  O   UNL     1       3.337   5.164  17.199  0.00  0.00    +0.000 OA
ATOM     19  C   UNL     1       4.314   4.428  17.283  0.00  0.00    +0.000 C 
ATOM     20  N   UNL     1       5.573   4.741  16.791  0.00  0.00    +0.000 N 
BRANCH  20  21
ATOM     21  C   UNL     1       6.369   5.712  17.496  0.00  0.00    +0.000 A 
ATOM     22  C   UNL     1       7.101   5.354  18.640  0.00  0.00    +0.000 A 
ATOM     23  C   UNL     1       8.066   6.219  19.166  0.00  0.00    +0.000 A 
ATOM     24  C   UNL     1       8.275   7.470  18.589  0.00  0.00    +0.000 A 
ATOM     25  C   UNL     1       7.490   7.874  17.515  0.00  0.00    +0.000 A 
ATOM     26  C   UNL     1       6.540   7.004  16.975  0.00  0.00    +0.000 A 
ENDBRANCH  20  21
BRANCH  20  27
ATOM     27  C   UNL     1       6.324   3.723  16.052  0.00  0.00    +0.000 C 
BRANCH  27  28
ATOM     28  C   UNL     1       6.553   4.073  14.603  0.00  0.00    +0.000 A 
ATOM     29  C   UNL     1       7.553   5.028  14.203  0.00  0.00    +0.000 A 
ATOM     30  C   UNL     1       7.630   5.197  12.839  0.00  0.00    +0.000 A 
ATOM     31  S   UNL     1       6.491   4.227  12.018  0.00  0.00    +0.000 S 
ATOM     32  C   UNL     1       5.889   3.590  13.489  0.00  0.00    +0.000 A 
ENDBRANCH  27  28
ENDBRANCH  20  27
ENDBRANCH   1  19
TORSDOF 9
ENDMDL
MODEL 3
REMARK VINA RESULT:      -7.7      3.927      6.930
REMARK  Name = 
REMARK  9 active torsions:
REMARK  status: ('A' for Active; 'I' for Inactive)
REMARK    1  A    between atoms: C_2  and  O_3
REMARK    2  A    between atoms: O_3  and  C_4
REMARK    3  A    between atoms: N_6  and  C_7
REMARK    4  A    between atoms: C_7  and  C_8
REMARK    5  A    between atoms: C_8  and  C_9
REMARK    6  A    between atoms: C_9  and  C_10
REMARK    7  A    between atoms: N_20  and  C_21
REMARK    8  A    between atoms: N_20  and  C_27
REMARK    9  A    between atoms: C_21  and  C_22
REMARK                            x       y       z     vdW  Elec       q    Type
REMARK                         _______ _______ _______ _____ _____    ______ ____
ROOT
ATOM      1  O   UNL     1       1.377   8.494  19.267  0.00  0.00    +0.000 OA
ENDROOT
BRANCH   1   2
ATOM      2  C   UNL     1       1.056   9.658  20.063  0.00  0.00    +0.000 C 
ATOM      3  C   UNL     1       1.480  10.952  19.339  0.00  0.00    +0.000 C 
ATOM      4  N   UNL     1       0.286  11.946  19.273  0.00  0.00    +0.000 N 
ATOM      5  C   UNL     1      -0.839  11.293  18.442  0.00  0.00    +0.000 C 
ATOM      6  C   UNL     1      -1.230   9.955  19.066  0.00  0.00    +0.000 C 
ATOM      7  C   UNL     1      -0.456   9.705  20.362  0.00  0.00    +0.000 C 
ATOM      8  C   UNL     1      -0.736  10.886  21.302  0.00  0.00    +0.000 C 
ATOM      9  C   UNL     1      -0.246  12.203  20.697  0.00  0.00    +0.000 C 
BRANCH   4  10
ATOM     10  C   UNL     1       0.691  13.276  18.575  0.00  0.00    +0.000 C 
BRANCH  10  11
ATOM     11  C   UNL     1      -0.347  14.382  18.746  0.00  0.00    +0.000 C 
BRANCH  11  12
ATOM     12  C   UNL     1       0.241  15.626  19.420  0.00  0.00    +0.000 C 
BRANCH  12  13
ATOM     13  C   UNL     1       0.448  16.710  18.402  0.00  0.00    +0.000 A 
ATOM     14  C   UNL     1       1.624  17.089  17.784  0.00  0.00    +0.000 A 
ATOM     15  C   UNL     1       1.443  18.201  16.913  0.00  0.00    +0.000 A 
ATOM     16  C   UNL     1       0.134  18.627  16.885  0.00  0.00    +0.000 A 
ATOM     17  S   UNL     1      -0.868  17.689  17.903  0.00  0.00    +0.000 S 
ENDBRANCH  12  13
ENDBRANCH  11  12
ENDBRANCH  10  11
ENDBRANCH   4  10
ENDBRANCH   1   2
BRANCH   1  19
ATOM     18  O   UNL     1       2.191   7.582  21.185  0.00  0.00    +0.000 OA
ATOM     19  C   UNL     1       2.082   7.539  19.965  0.00  0.00    +0.000 C 
ATOM     20  N   UNL     1       2.553   6.501  19.174  0.00  0.00    +0.000 N 
BRANCH  20  21
ATOM     21  C   UNL     1       1.842   5.249  19.180  0.00  0.00    +0.000 A 
ATOM     22  C   UNL     1       1.720   4.480  18.011  0.00  0.00    +0.000 A 
ATOM     23  C   UNL     1       1.260   3.161  18.073  0.00  0.00    +0.000 A 
ATOM     24  C   UNL     1       0.869   2.610  19.292  0.00  0.00    +0.000 A 
ATOM     25  C   UNL     1       0.895   3.393  20.441  0.00  0.00    +0.000 A 
ATOM     26  C   UNL     1       1.373   4.705  20.386  0.00  0.00    +0.000 A 
ENDBRANCH  20  21
BRANCH  20  27
ATOM     27  C   UNL     1       3.269   6.816  17.935  0.00  0.00    +0.000 C 
BRANCH  27  28
ATOM     28  C   UNL     1       4.732   6.450  17.971  0.00  0.00    +0.000 A 
ATOM     29  C   UNL     1       5.248   5.480  18.902  0.00  0.00    +0.000 A 
ATOM     30  C   UNL     1       6.601   5.263  18.768  0.00  0.00    +0.000 A 
ATOM     31  S   UNL     1       7.277   6.233  17.537  0.00  0.00    +0.000 S 
ATOM     32  C   UNL     1       5.760   6.950  17.192  0.00  0.00    +0.000 A 
ENDBRANCH  27  28
ENDBRANCH  20  27
ENDBRANCH   1  19
TORSDOF 9
ENDMDL
MODEL 4
REMARK VINA RESULT:      -7.5      1.093      1.678
REMARK  Name = 
REMARK  9 active torsions:
REMARK  status: ('A' for Active; 'I' for Inactive)
REMARK    1  A    between atoms: C_2  and  O_3
REMARK    2  A    between atoms: O_3  and  C_4
REMARK    3  A    between atoms: N_6  and  C_7
REMARK    4  A    between atoms: C_7  and  C_8
REMARK    5  A    between atoms: C_8  and  C_9
REMARK    6  A    between atoms: C_9  and  C_10
REMARK    7  A    between atoms: N_20  and  C_21
REMARK    8  A    between atoms: N_20  and  C_27
REMARK    9  A    between atoms: C_21  and  C_22
REMARK                            x       y       z     vdW  Elec       q    Type
REMARK                         _______ _______ _______ _____ _____    ______ ____
ROOT
ATOM      1  O   UNL     1       3.670   3.071  17.848  0.00  0.00    +0.000 OA
ENDROOT
BRANCH   1   2
ATOM      2  C   UNL     1       3.602   3.206  19.286  0.00  0.00    +0.000 C 
ATOM      3  C   UNL     1       3.482   4.690  19.693  0.00  0.00    +0.000 C 
ATOM      4  N   UNL     1       2.275   4.887  20.653  0.00  0.00    +0.000 N 
ATOM      5  C   UNL     1       0.987   4.506  19.892  0.00  0.00    +0.000 C 
ATOM      6  C   UNL     1       1.096   3.070  19.382  0.00  0.00    +0.000 C 
ATOM      7  C   UNL     1       2.401   2.418  19.846  0.00  0.00    +0.000 C 
ATOM      8  C   UNL     1       2.433   2.493  21.379  0.00  0.00    +0.000 C 
ATOM      9  C   UNL     1       2.423   3.944  21.863  0.00  0.00    +0.000 C 
BRANCH   4  10
ATOM     10  C   UNL     1       2.145   6.370  21.107  0.00  0.00    +0.000 C 
BRANCH  10  11
ATOM     11  C   UNL     1       0.973   7.095  20.450  0.00  0.00    +0.000 C 
BRANCH  11  12
ATOM     12  C   UNL     1       1.264   8.583  20.233  0.00  0.00    +0.000 C 
BRANCH  12  13
ATOM     13  C   UNL     1       0.482   9.407  21.214  0.00  0.00    +0.000 A 
ATOM     14  C   UNL     1       0.108   9.076  22.502  0.00  0.00    +0.000 A 
ATOM     15  C   UNL     1      -0.681  10.092  23.114  0.00  0.00    +0.000 A 
ATOM     16  C   UNL     1      -0.872  11.170  22.280  0.00  0.00    +0.000 A 
ATOM     17  S   UNL     1      -0.103  10.955  20.768  0.00  0.00    +0.000 S 
ENDBRANCH  12  13
ENDBRANCH  11  12
ENDBRANCH  10  11
ENDBRANCH   4  10
ENDBRANCH   1   2
BRANCH   1  19
ATOM     18  O   UNL     1       2.902   5.101  17.167  0.00  0.00    +0.000 OA
ATOM     19  C   UNL     1       3.809   4.276  17.197  0.00  0.00    +0.000 C 
ATOM     20  N   UNL     1       5.079   4.493  16.684  0.00  0.00    +0.000 N 
BRANCH  20  21
ATOM     21  C   UNL     1       5.979   5.357  17.404  0.00  0.00    +0.000 A 
ATOM     22  C   UNL     1       6.880   4.839  18.347  0.00  0.00    +0.000 A 
ATOM     23  C   UNL     1       7.917   5.632  18.849  0.00  0.00    +0.000 A 
ATOM     24  C   UNL     1       8.036   6.963  18.456  0.00  0.00    +0.000 A 
ATOM     25  C   UNL     1       7.092   7.515  17.596  0.00  0.00    +0.000 A 
ATOM     26  C   UNL     1       6.067   6.719  17.077  0.00  0.00    +0.000 A 
ENDBRANCH  20  21
BRANCH  20  27
ATOM     27  C   UNL     1       5.716   3.441  15.887  0.00  0.00    +0.000 C 
BRANCH  27  28
ATOM     28  C   UNL     1       6.281   3.931  14.578  0.00  0.00    +0.000 A 
ATOM     29  C   UNL     1       7.362   4.881  14.526  0.00  0.00    +0.000 A 
ATOM     30  C   UNL     1       7.756   5.189  13.244  0.00  0.00    +0.000 A 
ATOM     31  S   UNL     1       6.823   4.360  12.080  0.00  0.00    +0.000 S 
ATOM     32  C   UNL     1       5.886   3.597  13.294  0.00  0.00    +0.000 A 
ENDBRANCH  27  28
ENDBRANCH  20  27
ENDBRANCH   1  19
TORSDOF 9
ENDMDL
MODEL 5
REMARK VINA RESULT:      -7.4      3.592      6.556
REMARK  Name = 
REMARK  9 active torsions:
REMARK  status: ('A' for Active; 'I' for Inactive)
REMARK    1  A    between atoms: C_2  and  O_3
REMARK    2  A    between atoms: O_3  and  C_4
REMARK    3  A    between atoms: N_6  and  C_7
REMARK    4  A    between atoms: C_7  and  C_8
REMARK    5  A    between atoms: C_8  and  C_9
REMARK    6  A    between atoms: C_9  and  C_10
REMARK    7  A    between atoms: N_20  and  C_21
REMARK    8  A    between atoms: N_20  and  C_27
REMARK    9  A    between atoms: C_21  and  C_22
REMARK                            x       y       z     vdW  Elec       q    Type
REMARK                         _______ _______ _______ _____ _____    ______ ____
ROOT
ATOM      1  O   UNL     1       2.214   8.834  19.128  0.00  0.00    +0.000 OA
ENDROOT
BRANCH   1   2
ATOM      2  C   UNL     1       0.880   9.381  19.237  0.00  0.00    +0.000 C 
ATOM      3  C   UNL     1       0.453   9.495  20.715  0.00  0.00    +0.000 C 
ATOM      4  N   UNL     1      -0.047  10.936  21.020  0.00  0.00    +0.000 N 
ATOM      5  C   UNL     1       1.128  11.911  20.797  0.00  0.00    +0.000 C 
ATOM      6  C   UNL     1       1.653  11.767  19.370  0.00  0.00    +0.000 C 
ATOM      7  C   UNL     1       0.811  10.770  18.571  0.00  0.00    +0.000 C 
ATOM      8  C   UNL     1      -0.643  11.262  18.607  0.00  0.00    +0.000 C 
ATOM      9  C   UNL     1      -1.179  11.303  20.040  0.00  0.00    +0.000 C 
BRANCH   4  10
ATOM     10  C   UNL     1      -0.515  11.075  22.497  0.00  0.00    +0.000 C 
BRANCH  10  11
ATOM     11  C   UNL     1      -1.388  12.305  22.735  0.00  0.00    +0.000 C 
BRANCH  11  12
ATOM     12  C   UNL     1      -2.720  11.947  23.401  0.00  0.00    +0.000 C 
BRANCH  12  13
ATOM     13  C   UNL     1      -3.770  12.947  23.015  0.00  0.00    +0.000 A 
ATOM     14  C   UNL     1      -4.329  13.945  23.791  0.00  0.00    +0.000 A 
ATOM     15  C   UNL     1      -5.343  14.666  23.098  0.00  0.00    +0.000 A 
ATOM     16  C   UNL     1      -5.518  14.205  21.812  0.00  0.00    +0.000 A 
ATOM     17  S   UNL     1      -4.462  12.911  21.447  0.00  0.00    +0.000 S 
ENDBRANCH  12  13
ENDBRANCH  11  12
ENDBRANCH  10  11
ENDBRANCH   4  10
ENDBRANCH   1   2
BRANCH   1  19
ATOM     18  O   UNL     1       2.045   8.054  16.998  0.00  0.00    +0.000 OA
ATOM     19  C   UNL     1       2.318   7.846  18.176  0.00  0.00    +0.000 C 
ATOM     20  N   UNL     1       2.844   6.656  18.657  0.00  0.00    +0.000 N 
BRANCH  20  21
ATOM     21  C   UNL     1       4.226   6.353  18.389  0.00  0.00    +0.000 A 
ATOM     22  C   UNL     1       4.908   6.962  17.324  0.00  0.00    +0.000 A 
ATOM     23  C   UNL     1       6.299   6.867  17.224  0.00  0.00    +0.000 A 
ATOM     24  C   UNL     1       7.020   6.121  18.153  0.00  0.00    +0.000 A 
ATOM     25  C   UNL     1       6.347   5.433  19.157  0.00  0.00    +0.000 A 
ATOM     26  C   UNL     1       4.958   5.544  19.272  0.00  0.00    +0.000 A 
ENDBRANCH  20  21
BRANCH  20  27
ATOM     27  C   UNL     1       2.297   6.081  19.889  0.00  0.00    +0.000 C 
BRANCH  27  28
ATOM     28  C   UNL     1       1.839   4.652  19.738  0.00  0.00    +0.000 A 
ATOM     29  C   UNL     1       1.767   3.756  20.863  0.00  0.00    +0.000 A 
ATOM     30  C   UNL     1       1.305   2.502  20.532  0.00  0.00    +0.000 A 
ATOM     31  S   UNL     1       0.967   2.373  18.865  0.00  0.00    +0.000 S 
ATOM     32  C   UNL     1       1.451   3.993  18.585  0.00  0.00    +0.000 A 
ENDBRANCH  27  28
ENDBRANCH  20  27
ENDBRANCH   1  19
TORSDOF 9
ENDMDL
MODEL 6
REMARK VINA RESULT:      -7.4      3.879      6.884
REMARK  Name = 
REMARK  9 active torsions:
REMARK  status: ('A' for Active; 'I' for Inactive)
REMARK    1  A    between atoms: C_2  and  O_3
REMARK    2  A    between atoms: O_3  and  C_4
REMARK    3  A    between atoms: N_6  and  C_7
REMARK    4  A    between atoms: C_7  and  C_8
REMARK    5  A    between atoms: C_8  and  C_9
REMARK    6  A    between atoms: C_9  and  C_10
REMARK    7  A    between atoms: N_20  and  C_21
REMARK    8  A    between atoms: N_20  and  C_27
REMARK    9  A    between atoms: C_21  and  C_22
REMARK                            x       y       z     vdW  Elec       q    Type
REMARK                         _______ _______ _______ _____ _____    ______ ____
ROOT
ATOM      1  O   UNL     1       1.255   8.729  19.283  0.00  0.00    +0.000 OA
ENDROOT
BRANCH   1   2
ATOM      2  C   UNL     1       0.854   9.873  20.073  0.00  0.00    +0.000 C 
ATOM      3  C   UNL     1       1.489  11.168  19.526  0.00  0.00    +0.000 C 
ATOM      4  N   UNL     1       0.393  12.246  19.294  0.00  0.00    +0.000 N 
ATOM      5  C   UNL     1      -0.585  11.717  18.224  0.00  0.00    +0.000 C 
ATOM      6  C   UNL     1      -1.171  10.380  18.676  0.00  0.00    +0.000 C 
ATOM      7  C   UNL     1      -0.681  10.012  20.079  0.00  0.00    +0.000 C 
ATOM      8  C   UNL     1      -1.068  11.163  21.019  0.00  0.00    +0.000 C 
ATOM      9  C   UNL     1      -0.390  12.470  20.602  0.00  0.00    +0.000 C 
BRANCH   4  10
ATOM     10  C   UNL     1       1.006  13.577  18.770  0.00  0.00    +0.000 C 
BRANCH  10  11
ATOM     11  C   UNL     1       2.366  13.386  18.102  0.00  0.00    +0.000 C 
BRANCH  11  12
ATOM     12  C   UNL     1       3.022  14.722  17.738  0.00  0.00    +0.000 C 
BRANCH  12  13
ATOM     13  C   UNL     1       4.345  14.850  18.435  0.00  0.00    +0.000 A 
ATOM     14  C   UNL     1       5.611  14.765  17.890  0.00  0.00    +0.000 A 
ATOM     15  C   UNL     1       6.634  14.881  18.876  0.00  0.00    +0.000 A 
ATOM     16  C   UNL     1       6.115  15.063  20.138  0.00  0.00    +0.000 A 
ATOM     17  S   UNL     1       4.406  15.094  20.131  0.00  0.00    +0.000 S 
ENDBRANCH  12  13
ENDBRANCH  11  12
ENDBRANCH  10  11
ENDBRANCH   4  10
ENDBRANCH   1   2
BRANCH   1  19
ATOM     18  O   UNL     1       2.067   7.854  21.218  0.00  0.00    +0.000 OA
ATOM     19  C   UNL     1       1.991   7.810  19.995  0.00  0.00    +0.000 C 
ATOM     20  N   UNL     1       2.535   6.801  19.214  0.00  0.00    +0.000 N 
BRANCH  20  21
ATOM     21  C   UNL     1       1.890   5.514  19.199  0.00  0.00    +0.000 A 
ATOM     22  C   UNL     1       1.693   4.817  17.996  0.00  0.00    +0.000 A 
ATOM     23  C   UNL     1       1.308   3.473  18.008  0.00  0.00    +0.000 A 
ATOM     24  C   UNL     1       1.065   2.823  19.216  0.00  0.00    +0.000 A 
ATOM     25  C   UNL     1       1.165   3.529  20.411  0.00  0.00    +0.000 A 
ATOM     26  C   UNL     1       1.570   4.867  20.402  0.00  0.00    +0.000 A 
ENDBRANCH  20  21
BRANCH  20  27
ATOM     27  C   UNL     1       3.264   7.158  17.994  0.00  0.00    +0.000 C 
BRANCH  27  28
ATOM     28  C   UNL     1       4.514   6.343  17.775  0.00  0.00    +0.000 A 
ATOM     29  C   UNL     1       5.244   5.764  18.873  0.00  0.00    +0.000 A 
ATOM     30  C   UNL     1       6.342   5.036  18.474  0.00  0.00    +0.000 A 
ATOM     31  S   UNL     1       6.527   5.052  16.777  0.00  0.00    +0.000 S 
ATOM     32  C   UNL     1       5.143   6.042  16.580  0.00  0.00    +0.000 A 
ENDBRANCH  27  28
ENDBRANCH  20  27
ENDBRANCH   1  19
TORSDOF 9
ENDMDL
MODEL 7
REMARK VINA RESULT:      -7.4      3.754      6.728
REMARK  Name = 
REMARK  9 active torsions:
REMARK  status: ('A' for Active; 'I' for Inactive)
REMARK    1  A    between atoms: C_2  and  O_3
REMARK    2  A    between atoms: O_3  and  C_4
REMARK    3  A    between atoms: N_6  and  C_7
REMARK    4  A    between atoms: C_7  and  C_8
REMARK    5  A    between atoms: C_8  and  C_9
REMARK    6  A    between atoms: C_9  and  C_10
REMARK    7  A    between atoms: N_20  and  C_21
REMARK    8  A    between atoms: N_20  and  C_27
REMARK    9  A    between atoms: C_21  and  C_22
REMARK                            x       y       z     vdW  Elec       q    Type
REMARK                         _______ _______ _______ _____ _____    ______ ____
ROOT
ATOM      1  O   UNL     1       1.299   8.748  19.173  0.00  0.00    +0.000 OA
ENDROOT
BRANCH   1   2
ATOM      2  C   UNL     1       0.954   9.937  19.921  0.00  0.00    +0.000 C 
ATOM      3  C   UNL     1       1.356  11.209  19.146  0.00  0.00    +0.000 C 
ATOM      4  N   UNL     1       0.143  12.177  19.038  0.00  0.00    +0.000 N 
ATOM      5  C   UNL     1      -0.967  11.470  18.232  0.00  0.00    +0.000 C 
ATOM      6  C   UNL     1      -1.335  10.151  18.909  0.00  0.00    +0.000 C 
ATOM      7  C   UNL     1      -0.560   9.967  20.215  0.00  0.00    +0.000 C 
ATOM      8  C   UNL     1      -0.864  11.181  21.106  0.00  0.00    +0.000 C 
ATOM      9  C   UNL     1      -0.396  12.481  20.449  0.00  0.00    +0.000 C 
BRANCH   4  10
ATOM     10  C   UNL     1       0.525  13.484  18.287  0.00  0.00    +0.000 C 
BRANCH  10  11
ATOM     11  C   UNL     1       0.737  14.672  19.223  0.00  0.00    +0.000 C 
BRANCH  11  12
ATOM     12  C   UNL     1       1.964  15.503  18.833  0.00  0.00    +0.000 C 
BRANCH  12  13
ATOM     13  C   UNL     1       3.102  15.201  19.765  0.00  0.00    +0.000 A 
ATOM     14  C   UNL     1       4.450  15.432  19.570  0.00  0.00    +0.000 A 
ATOM     15  C   UNL     1       5.242  14.959  20.656  0.00  0.00    +0.000 A 
ATOM     16  C   UNL     1       4.473  14.395  21.649  0.00  0.00    +0.000 A 
ATOM     17  S   UNL     1       2.806  14.438  21.271  0.00  0.00    +0.000 S 
ENDBRANCH  12  13
ENDBRANCH  11  12
ENDBRANCH  10  11
ENDBRANCH   4  10
ENDBRANCH   1   2
BRANCH   1  19
ATOM     18  O   UNL     1       2.056   7.887  21.137  0.00  0.00    +0.000 OA
ATOM     19  C   UNL     1       2.010   7.830  19.913  0.00  0.00    +0.000 C 
ATOM     20  N   UNL     1       2.565   6.809  19.156  0.00  0.00    +0.000 N 
BRANCH  20  21
ATOM     21  C   UNL     1       1.910   5.527  19.138  0.00  0.00    +0.000 A 
ATOM     22  C   UNL     1       1.752   4.811  17.941  0.00  0.00    +0.000 A 
ATOM     23  C   UNL     1       1.356   3.470  17.962  0.00  0.00    +0.000 A 
ATOM     24  C   UNL     1       1.062   2.843  19.171  0.00  0.00    +0.000 A 
ATOM     25  C   UNL     1       1.122   3.569  20.356  0.00  0.00    +0.000 A 
ATOM     26  C   UNL     1       1.538   4.903  20.340  0.00  0.00    +0.000 A 
ENDBRANCH  20  21
BRANCH  20  27
ATOM     27  C   UNL     1       3.326   7.147  17.951  0.00  0.00    +0.000 C 
BRANCH  27  28
ATOM     28  C   UNL     1       4.548   6.287  17.746  0.00  0.00    +0.000 A 
ATOM     29  C   UNL     1       4.985   5.890  16.432  0.00  0.00    +0.000 A 
ATOM     30  C   UNL     1       6.130   5.127  16.446  0.00  0.00    +0.000 A 
ATOM     31  S   UNL     1       6.691   4.859  18.035  0.00  0.00    +0.000 S 
ATOM     32  C   UNL     1       5.393   5.754  18.704  0.00  0.00    +0.000 A 
ENDBRANCH  27  28
ENDBRANCH  20  27
ENDBRANCH   1  19
TORSDOF 9
ENDMDL
MODEL 8
REMARK VINA RESULT:      -7.4      2.659      7.709
REMARK  Name = 
REMARK  9 active torsions:
REMARK  status: ('A' for Active; 'I' for Inactive)
REMARK    1  A    between atoms: C_2  and  O_3
REMARK    2  A    between atoms: O_3  and  C_4
REMARK    3  A    between atoms: N_6  and  C_7
REMARK    4  A    between atoms: C_7  and  C_8
REMARK    5  A    between atoms: C_8  and  C_9
REMARK    6  A    between atoms: C_9  and  C_10
REMARK    7  A    between atoms: N_20  and  C_21
REMARK    8  A    between atoms: N_20  and  C_27
REMARK    9  A    between atoms: C_21  and  C_22
REMARK                            x       y       z     vdW  Elec       q    Type
REMARK                         _______ _______ _______ _____ _____    ______ ____
ROOT
ATOM      1  O   UNL     1       2.139   7.817  19.395  0.00  0.00    +0.000 OA
ENDROOT
BRANCH   1   2
ATOM      2  C   UNL     1       1.506   6.529  19.214  0.00  0.00    +0.000 C 
ATOM      3  C   UNL     1       2.061   5.817  17.963  0.00  0.00    +0.000 C 
ATOM      4  N   UNL     1       2.531   4.379  18.328  0.00  0.00    +0.000 N 
ATOM      5  C   UNL     1       3.681   4.493  19.350  0.00  0.00    +0.000 C 
ATOM      6  C   UNL     1       3.210   5.279  20.572  0.00  0.00    +0.000 C 
ATOM      7  C   UNL     1       1.727   5.641  20.455  0.00  0.00    +0.000 C 
ATOM      8  C   UNL     1       0.946   4.333  20.270  0.00  0.00    +0.000 C 
ATOM      9  C   UNL     1       1.367   3.613  18.987  0.00  0.00    +0.000 C 
BRANCH   4  10
ATOM     10  C   UNL     1       3.068   3.623  17.080  0.00  0.00    +0.000 C 
BRANCH  10  11
ATOM     11  C   UNL     1       4.593   3.553  17.033  0.00  0.00    +0.000 C 
BRANCH  11  12
ATOM     12  C   UNL     1       5.188   4.586  16.070  0.00  0.00    +0.000 C 
BRANCH  12  13
ATOM     13  C   UNL     1       6.071   5.538  16.823  0.00  0.00    +0.000 A 
ATOM     14  C   UNL     1       6.097   6.918  16.753  0.00  0.00    +0.000 A 
ATOM     15  C   UNL     1       7.114   7.482  17.576  0.00  0.00    +0.000 A 
ATOM     16  C   UNL     1       7.822   6.517  18.257  0.00  0.00    +0.000 A 
ATOM     17  S   UNL     1       7.261   4.942  17.904  0.00  0.00    +0.000 S 
ENDBRANCH  12  13
ENDBRANCH  11  12
ENDBRANCH  10  11
ENDBRANCH   4  10
ENDBRANCH   1   2
BRANCH   1  19
ATOM     18  O   UNL     1       1.189   8.642  21.290  0.00  0.00    +0.000 OA
ATOM     19  C   UNL     1       1.350   8.716  20.077  0.00  0.00    +0.000 C 
ATOM     20  N   UNL     1       0.856   9.742  19.284  0.00  0.00    +0.000 N 
BRANCH  20  21
ATOM     21  C   UNL     1       1.494  11.032  19.345  0.00  0.00    +0.000 A 
ATOM     22  C   UNL     1       2.202  11.542  18.246  0.00  0.00    +0.000 A 
ATOM     23  C   UNL     1       2.595  12.884  18.214  0.00  0.00    +0.000 A 
ATOM     24  C   UNL     1       2.331  13.718  19.297  0.00  0.00    +0.000 A 
ATOM     25  C   UNL     1       1.715  13.201  20.432  0.00  0.00    +0.000 A 
ATOM     26  C   UNL     1       1.303  11.866  20.458  0.00  0.00    +0.000 A 
ENDBRANCH  20  21
BRANCH  20  27
ATOM     27  C   UNL     1       0.216   9.413  18.008  0.00  0.00    +0.000 C 
BRANCH  27  28
ATOM     28  C   UNL     1      -1.134  10.060  17.823  0.00  0.00    +0.000 A 
ATOM     29  C   UNL     1      -1.710  10.913  18.829  0.00  0.00    +0.000 A 
ATOM     30  C   UNL     1      -2.936  11.428  18.470  0.00  0.00    +0.000 A 
ATOM     31  S   UNL     1      -3.423  10.881  16.929  0.00  0.00    +0.000 S 
ATOM     32  C   UNL     1      -1.999   9.947  16.748  0.00  0.00    +0.000 A 
ENDBRANCH  27  28
ENDBRANCH  20  27
ENDBRANCH   1  19
TORSDOF 9
ENDMDL
MODEL 9
REMARK VINA RESULT:      -7.4      3.748      6.735
REMARK  Name = 
REMARK  9 active torsions:
REMARK  status: ('A' for Active; 'I' for Inactive)
REMARK    1  A    between atoms: C_2  and  O_3
REMARK    2  A    between atoms: O_3  and  C_4
REMARK    3  A    between atoms: N_6  and  C_7
REMARK    4  A    between atoms: C_7  and  C_8
REMARK    5  A    between atoms: C_8  and  C_9
REMARK    6  A    between atoms: C_9  and  C_10
REMARK    7  A    between atoms: N_20  and  C_21
REMARK    8  A    between atoms: N_20  and  C_27
REMARK    9  A    between atoms: C_21  and  C_22
REMARK                            x       y       z     vdW  Elec       q    Type
REMARK                         _______ _______ _______ _____ _____    ______ ____
ROOT
ATOM      1  O   UNL     1       1.315   8.660  19.224  0.00  0.00    +0.000 OA
ENDROOT
BRANCH   1   2
ATOM      2  C   UNL     1       1.014   9.865  19.964  0.00  0.00    +0.000 C 
ATOM      3  C   UNL     1       1.437  11.118  19.170  0.00  0.00    +0.000 C 
ATOM      4  N   UNL     1       0.249  12.116  19.070  0.00  0.00    +0.000 N 
ATOM      5  C   UNL     1      -0.893  11.431  18.290  0.00  0.00    +0.000 C 
ATOM      6  C   UNL     1      -1.284  10.129  18.986  0.00  0.00    +0.000 C 
ATOM      7  C   UNL     1      -0.493   9.938  20.282  0.00  0.00    +0.000 C 
ATOM      8  C   UNL     1      -0.751  11.168  21.165  0.00  0.00    +0.000 C 
ATOM      9  C   UNL     1      -0.260  12.449  20.487  0.00  0.00    +0.000 C 
BRANCH   4  10
ATOM     10  C   UNL     1       0.653  13.406  18.300  0.00  0.00    +0.000 C 
BRANCH  10  11
ATOM     11  C   UNL     1       2.162  13.635  18.268  0.00  0.00    +0.000 C 
BRANCH  11  12
ATOM     12  C   UNL     1       2.532  15.085  18.597  0.00  0.00    +0.000 C 
BRANCH  12  13
ATOM     13  C   UNL     1       3.235  15.147  19.922  0.00  0.00    +0.000 A 
ATOM     14  C   UNL     1       3.426  14.129  20.836  0.00  0.00    +0.000 A 
ATOM     15  C   UNL     1       4.092  14.578  22.013  0.00  0.00    +0.000 A 
ATOM     16  C   UNL     1       4.398  15.919  21.954  0.00  0.00    +0.000 A 
ATOM     17  S   UNL     1       3.886  16.629  20.486  0.00  0.00    +0.000 S 
ENDBRANCH  12  13
ENDBRANCH  11  12
ENDBRANCH  10  11
ENDBRANCH   4  10
ENDBRANCH   1   2
BRANCH   1  19
ATOM     18  O   UNL     1       2.062   7.785  21.186  0.00  0.00    +0.000 OA
ATOM     19  C   UNL     1       2.014   7.731  19.962  0.00  0.00    +0.000 C 
ATOM     20  N   UNL     1       2.556   6.704  19.203  0.00  0.00    +0.000 N 
BRANCH  20  21
ATOM     21  C   UNL     1       1.884   5.431  19.183  0.00  0.00    +0.000 A 
ATOM     22  C   UNL     1       1.716   4.720  17.984  0.00  0.00    +0.000 A 
ATOM     23  C   UNL     1       1.301   3.384  18.002  0.00  0.00    +0.000 A 
ATOM     24  C   UNL     1       1.001   2.759  19.210  0.00  0.00    +0.000 A 
ATOM     25  C   UNL     1       1.072   3.481  20.396  0.00  0.00    +0.000 A 
ATOM     26  C   UNL     1       1.505   4.809  20.383  0.00  0.00    +0.000 A 
ENDBRANCH  20  21
BRANCH  20  27
ATOM     27  C   UNL     1       3.322   7.034  17.998  0.00  0.00    +0.000 C 
BRANCH  27  28
ATOM     28  C   UNL     1       4.565   6.200  17.823  0.00  0.00    +0.000 A 
ATOM     29  C   UNL     1       5.281   5.660  18.951  0.00  0.00    +0.000 A 
ATOM     30  C   UNL     1       6.376   4.907  18.591  0.00  0.00    +0.000 A 
ATOM     31  S   UNL     1       6.575   4.851  16.897  0.00  0.00    +0.000 S 
ATOM     32  C   UNL     1       5.202   5.844  16.647  0.00  0.00    +0.000 A 
ENDBRANCH  27  28
ENDBRANCH  20  27
ENDBRANCH   1  19
TORSDOF 9
ENDMDL
