MODEL 1
REMARK VINA RESULT:      -9.4      0.000      0.000
REMARK  Name = 
REMARK  3 active torsions:
REMARK  status: ('A' for Active; 'I' for Inactive)
REMARK    1  A    between atoms: C_1  and  S_2
REMARK    2  A    between atoms: S_2  and  C_3
REMARK    3  A    between atoms: N_16  and  C_17
REMARK                            x       y       z     vdW  Elec       q    Type
REMARK                         _______ _______ _______ _____ _____    ______ ____
ROOT
ATOM      1  C   UNL     1       2.991   3.789  20.015  0.00  0.00    +0.000 C 
ATOM      2  O   UNL     1       1.793   3.854  20.254  0.00  0.00    +0.000 OA
ATOM      3  N   UNL     1       3.749   4.774  19.381  0.00  0.00    +0.000 N 
ATOM      4  C   UNL     1       5.184   4.662  19.087  0.00  0.00    +0.000 C 
ATOM      5  C   UNL     1       5.528   5.104  17.658  0.00  0.00    +0.000 C 
ATOM      6  C   UNL     1       7.059   5.175  17.457  0.00  0.00    +0.000 C 
ATOM      7  C   UNL     1       7.443   5.525  16.018  0.00  0.00    +0.000 C 
ATOM      8  C   UNL     1       6.803   4.571  15.012  0.00  0.00    +0.000 C 
ATOM      9  C   UNL     1       5.295   4.444  15.198  0.00  0.00    +0.000 C 
ATOM     10  C   UNL     1       4.924   4.110  16.642  0.00  0.00    +0.000 C 
ATOM     11  C   UNL     1       4.933   6.498  17.524  0.00  0.00    +0.000 C 
ATOM     12  O   UNL     1       3.546   6.502  17.854  0.00  0.00    +0.000 OA
ATOM     13  C   UNL     1       3.174   6.004  19.067  0.00  0.00    +0.000 C 
ATOM     14  N   UNL     1       2.344   6.651  19.827  0.00  0.00    +0.000 NA
ENDROOT
BRANCH  14  15
ATOM     15  C   UNL     1       1.909   7.966  19.465  0.00  0.00    +0.000 A 
ATOM     16  C   UNL     1       2.252   8.528  18.218  0.00  0.00    +0.000 A 
ATOM     17  C   UNL     1       1.794   9.772  17.802  0.00  0.00    +0.000 A 
ATOM     18  C   UNL     1       1.054  10.550  18.674  0.00  0.00    +0.000 A 
ATOM     19  C   UNL     1       0.787  10.095  19.971  0.00  0.00    +0.000 A 
ATOM     20  C   UNL     1       0.118  10.945  20.860  0.00  0.00    +0.000 A 
ATOM     21  C   UNL     1      -0.135  10.545  22.169  0.00  0.00    +0.000 A 
ATOM     22  C   UNL     1       0.264   9.281  22.592  0.00  0.00    +0.000 A 
ATOM     23  C   UNL     1       0.917   8.413  21.709  0.00  0.00    +0.000 A 
ATOM     24  C   UNL     1       1.206   8.795  20.382  0.00  0.00    +0.000 A 
ENDBRANCH  14  15
BRANCH   1  26
ATOM     25  C   UNL     1       3.669   1.407  18.795  0.00  0.00    +0.000 C 
ATOM     26  S   UNL     1       3.841   2.268  20.371  0.00  0.00    +0.000 S 
ENDBRANCH   1  26
TORSDOF 2
ENDMDL
MODEL 2
REMARK VINA RESULT:      -7.8      5.533      8.167
REMARK  Name = 
REMARK  3 active torsions:
REMARK  status: ('A' for Active; 'I' for Inactive)
REMARK    1  A    between atoms: C_1  and  S_2
REMARK    2  A    between atoms: S_2  and  C_3
REMARK    3  A    between atoms: N_16  and  C_17
REMARK                            x       y       z     vdW  Elec       q    Type
REMARK                         _______ _______ _______ _____ _____    ______ ____
ROOT
ATOM      1  C   UNL     1       0.016  13.470  20.856  0.00  0.00    +0.000 C 
ATOM      2  O   UNL     1      -0.857  13.933  21.579  0.00  0.00    +0.000 OA
ATOM      3  N   UNL     1      -0.166  12.470  19.901  0.00  0.00    +0.000 N 
ATOM      4  C   UNL     1       0.904  11.915  19.060  0.00  0.00    +0.000 C 
ATOM      5  C   UNL     1       0.866  10.382  18.994  0.00  0.00    +0.000 C 
ATOM      6  C   UNL     1       1.864   9.852  17.940  0.00  0.00    +0.000 C 
ATOM      7  C   UNL     1       1.922   8.324  17.909  0.00  0.00    +0.000 C 
ATOM      8  C   UNL     1       2.220   7.738  19.287  0.00  0.00    +0.000 C 
ATOM      9  C   UNL     1       1.280   8.264  20.366  0.00  0.00    +0.000 C 
ATOM     10  C   UNL     1       1.219   9.790  20.377  0.00  0.00    +0.000 C 
ATOM     11  C   UNL     1      -0.553  10.042  18.567  0.00  0.00    +0.000 C 
ATOM     12  O   UNL     1      -1.513  10.647  19.432  0.00  0.00    +0.000 OA
ATOM     13  C   UNL     1      -1.446  11.995  19.622  0.00  0.00    +0.000 C 
ATOM     14  N   UNL     1      -2.512  12.731  19.548  0.00  0.00    +0.000 NA
ENDROOT
BRANCH  14  15
ATOM     15  C   UNL     1      -3.757  12.161  19.132  0.00  0.00    +0.000 A 
ATOM     16  C   UNL     1      -3.927  11.663  17.823  0.00  0.00    +0.000 A 
ATOM     17  C   UNL     1      -5.096  11.041  17.400  0.00  0.00    +0.000 A 
ATOM     18  C   UNL     1      -6.185  10.991  18.253  0.00  0.00    +0.000 A 
ATOM     19  C   UNL     1      -6.114  11.580  19.520  0.00  0.00    +0.000 A 
ATOM     20  C   UNL     1      -7.263  11.595  20.321  0.00  0.00    +0.000 A 
ATOM     21  C   UNL     1      -7.245  12.202  21.574  0.00  0.00    +0.000 A 
ATOM     22  C   UNL     1      -6.070  12.781  22.043  0.00  0.00    +0.000 A 
ATOM     23  C   UNL     1      -4.909  12.757  21.261  0.00  0.00    +0.000 A 
ATOM     24  C   UNL     1      -4.898  12.167  19.979  0.00  0.00    +0.000 A 
ENDBRANCH  14  15
BRANCH   1  26
ATOM     25  C   UNL     1       1.760  15.454  20.053  0.00  0.00    +0.000 C 
ATOM     26  S   UNL     1       1.694  13.997  21.115  0.00  0.00    +0.000 S 
ENDBRANCH   1  26
TORSDOF 2
ENDMDL
MODEL 3
REMARK VINA RESULT:      -7.6      7.388      9.574
REMARK  Name = 
REMARK  3 active torsions:
REMARK  status: ('A' for Active; 'I' for Inactive)
REMARK    1  A    between atoms: C_1  and  S_2
REMARK    2  A    between atoms: S_2  and  C_3
REMARK    3  A    between atoms: N_16  and  C_17
REMARK                            x       y       z     vdW  Elec       q    Type
REMARK                         _______ _______ _______ _____ _____    ______ ____
ROOT
ATOM      1  C   UNL     1      -1.707  13.391  22.190  0.00  0.00    +0.000 C 
ATOM      2  O   UNL     1      -1.892  14.525  22.613  0.00  0.00    +0.000 OA
ATOM      3  N   UNL     1      -1.219  13.064  20.925  0.00  0.00    +0.000 N 
ATOM      4  C   UNL     1      -1.026  11.692  20.434  0.00  0.00    +0.000 C 
ATOM      5  C   UNL     1      -1.567  11.495  19.011  0.00  0.00    +0.000 C 
ATOM      6  C   UNL     1      -1.158  10.113  18.453  0.00  0.00    +0.000 C 
ATOM      7  C   UNL     1      -1.754   9.842  17.071  0.00  0.00    +0.000 C 
ATOM      8  C   UNL     1      -3.271  10.006  17.065  0.00  0.00    +0.000 C 
ATOM      9  C   UNL     1      -3.721  11.345  17.641  0.00  0.00    +0.000 C 
ATOM     10  C   UNL     1      -3.107  11.611  19.014  0.00  0.00    +0.000 C 
ATOM     11  C   UNL     1      -0.909  12.591  18.186  0.00  0.00    +0.000 C 
ATOM     12  O   UNL     1      -1.135  13.877  18.759  0.00  0.00    +0.000 OA
ATOM     13  C   UNL     1      -0.786  14.069  20.062  0.00  0.00    +0.000 C 
ATOM     14  N   UNL     1      -0.113  15.118  20.424  0.00  0.00    +0.000 NA
ENDROOT
BRANCH  14  15
ATOM     15  C   UNL     1       0.393  16.027  19.439  0.00  0.00    +0.000 A 
ATOM     16  C   UNL     1      -0.387  17.109  18.982  0.00  0.00    +0.000 A 
ATOM     17  C   UNL     1       0.090  18.052  18.080  0.00  0.00    +0.000 A 
ATOM     18  C   UNL     1       1.343  17.881  17.518  0.00  0.00    +0.000 A 
ATOM     19  C   UNL     1       2.112  16.757  17.841  0.00  0.00    +0.000 A 
ATOM     20  C   UNL     1       3.333  16.564  17.184  0.00  0.00    +0.000 A 
ATOM     21  C   UNL     1       4.112  15.441  17.450  0.00  0.00    +0.000 A 
ATOM     22  C   UNL     1       3.681  14.512  18.392  0.00  0.00    +0.000 A 
ATOM     23  C   UNL     1       2.472  14.701  19.071  0.00  0.00    +0.000 A 
ATOM     24  C   UNL     1       1.650  15.818  18.811  0.00  0.00    +0.000 A 
ENDBRANCH  14  15
BRANCH   1  26
ATOM     25  C   UNL     1      -3.793  12.638  23.835  0.00  0.00    +0.000 C 
ATOM     26  S   UNL     1      -2.221  12.021  23.200  0.00  0.00    +0.000 S 
ENDBRANCH   1  26
TORSDOF 2
ENDMDL
MODEL 4
REMARK VINA RESULT:      -7.5      4.128      8.441
REMARK  Name = 
REMARK  3 active torsions:
REMARK  status: ('A' for Active; 'I' for Inactive)
REMARK    1  A    between atoms: C_1  and  S_2
REMARK    2  A    between atoms: S_2  and  C_3
REMARK    3  A    between atoms: N_16  and  C_17
REMARK                            x       y       z     vdW  Elec       q    Type
REMARK                         _______ _______ _______ _____ _____    ______ ____
ROOT
ATOM      1  C   UNL     1       1.415  12.635  18.652  0.00  0.00    +0.000 C 
ATOM      2  O   UNL     1       2.575  12.310  18.433  0.00  0.00    +0.000 OA
ATOM      3  N   UNL     1       0.357  11.759  18.894  0.00  0.00    +0.000 N 
ATOM      4  C   UNL     1      -1.032  12.176  19.133  0.00  0.00    +0.000 C 
ATOM      5  C   UNL     1      -2.042  11.344  18.331  0.00  0.00    +0.000 C 
ATOM      6  C   UNL     1      -3.490  11.665  18.766  0.00  0.00    +0.000 C 
ATOM      7  C   UNL     1      -4.530  10.923  17.926  0.00  0.00    +0.000 C 
ATOM      8  C   UNL     1      -4.340  11.177  16.433  0.00  0.00    +0.000 C 
ATOM      9  C   UNL     1      -2.914  10.906  15.967  0.00  0.00    +0.000 C 
ATOM     10  C   UNL     1      -1.884  11.640  16.823  0.00  0.00    +0.000 C 
ATOM     11  C   UNL     1      -1.718   9.898  18.671  0.00  0.00    +0.000 C 
ATOM     12  O   UNL     1      -0.344   9.604  18.426  0.00  0.00    +0.000 OA
ATOM     13  C   UNL     1       0.596  10.393  19.020  0.00  0.00    +0.000 C 
ATOM     14  N   UNL     1       1.615   9.870  19.630  0.00  0.00    +0.000 NA
ENDROOT
BRANCH  14  15
ATOM     15  C   UNL     1       1.700   8.452  19.810  0.00  0.00    +0.000 A 
ATOM     16  C   UNL     1       1.134   7.828  20.941  0.00  0.00    +0.000 A 
ATOM     17  C   UNL     1       1.136   6.449  21.119  0.00  0.00    +0.000 A 
ATOM     18  C   UNL     1       1.806   5.648  20.211  0.00  0.00    +0.000 A 
ATOM     19  C   UNL     1       2.492   6.224  19.136  0.00  0.00    +0.000 A 
ATOM     20  C   UNL     1       3.239   5.395  18.290  0.00  0.00    +0.000 A 
ATOM     21  C   UNL     1       3.965   5.932  17.230  0.00  0.00    +0.000 A 
ATOM     22  C   UNL     1       3.932   7.303  16.998  0.00  0.00    +0.000 A 
ATOM     23  C   UNL     1       3.175   8.142  17.823  0.00  0.00    +0.000 A 
ATOM     24  C   UNL     1       2.444   7.633  18.917  0.00  0.00    +0.000 A 
ENDBRANCH  14  15
BRANCH   1  26
ATOM     25  C   UNL     1       1.729  15.008  20.028  0.00  0.00    +0.000 C 
ATOM     26  S   UNL     1       0.983  14.355  18.521  0.00  0.00    +0.000 S 
ENDBRANCH   1  26
TORSDOF 2
ENDMDL
MODEL 5
REMARK VINA RESULT:      -7.5      7.211      9.741
REMARK  Name = 
REMARK  3 active torsions:
REMARK  status: ('A' for Active; 'I' for Inactive)
REMARK    1  A    between atoms: C_1  and  S_2
REMARK    2  A    between atoms: S_2  and  C_3
REMARK    3  A    between atoms: N_16  and  C_17
REMARK                            x       y       z     vdW  Elec       q    Type
REMARK                         _______ _______ _______ _____ _____    ______ ____
ROOT
ATOM      1  C   UNL     1      -1.004  14.156  22.202  0.00  0.00    +0.000 C 
ATOM      2  O   UNL     1      -1.028  15.367  22.373  0.00  0.00    +0.000 OA
ATOM      3  N   UNL     1      -0.486  13.502  21.083  0.00  0.00    +0.000 N 
ATOM      4  C   UNL     1      -0.487  12.045  20.893  0.00  0.00    +0.000 C 
ATOM      5  C   UNL     1      -0.947  11.636  19.487  0.00  0.00    +0.000 C 
ATOM      6  C   UNL     1      -0.733  10.123  19.257  0.00  0.00    +0.000 C 
ATOM      7  C   UNL     1      -1.262   9.659  17.899  0.00  0.00    +0.000 C 
ATOM      8  C   UNL     1      -2.727  10.039  17.701  0.00  0.00    +0.000 C 
ATOM      9  C   UNL     1      -2.990  11.520  17.953  0.00  0.00    +0.000 C 
ATOM     10  C   UNL     1      -2.443  11.975  19.305  0.00  0.00    +0.000 C 
ATOM     11  C   UNL     1      -0.058  12.425  18.538  0.00  0.00    +0.000 C 
ATOM     12  O   UNL     1      -0.109  13.822  18.822  0.00  0.00    +0.000 OA
ATOM     13  C   UNL     1       0.171  14.229  20.092  0.00  0.00    +0.000 C 
ATOM     14  N   UNL     1       0.980  15.220  20.311  0.00  0.00    +0.000 NA
ENDROOT
BRANCH  14  15
ATOM     15  C   UNL     1       1.700  15.818  19.227  0.00  0.00    +0.000 A 
ATOM     16  C   UNL     1       3.083  15.597  19.065  0.00  0.00    +0.000 A 
ATOM     17  C   UNL     1       3.805  16.102  17.990  0.00  0.00    +0.000 A 
ATOM     18  C   UNL     1       3.179  16.944  17.087  0.00  0.00    +0.000 A 
ATOM     19  C   UNL     1       1.837  17.298  17.269  0.00  0.00    +0.000 A 
ATOM     20  C   UNL     1       1.260  18.225  16.392  0.00  0.00    +0.000 A 
ATOM     21  C   UNL     1      -0.061  18.631  16.559  0.00  0.00    +0.000 A 
ATOM     22  C   UNL     1      -0.821  18.095  17.594  0.00  0.00    +0.000 A 
ATOM     23  C   UNL     1      -0.264  17.153  18.466  0.00  0.00    +0.000 A 
ATOM     24  C   UNL     1       1.078  16.735  18.337  0.00  0.00    +0.000 A 
ENDBRANCH  14  15
BRANCH   1  26
ATOM     25  C   UNL     1      -3.533  13.596  23.157  0.00  0.00    +0.000 C 
ATOM     26  S   UNL     1      -1.811  13.118  23.400  0.00  0.00    +0.000 S 
ENDBRANCH   1  26
TORSDOF 2
ENDMDL
MODEL 6
REMARK VINA RESULT:      -7.5      6.932     11.547
REMARK  Name = 
REMARK  3 active torsions:
REMARK  status: ('A' for Active; 'I' for Inactive)
REMARK    1  A    between atoms: C_1  and  S_2
REMARK    2  A    between atoms: S_2  and  C_3
REMARK    3  A    between atoms: N_16  and  C_17
REMARK                            x       y       z     vdW  Elec       q    Type
REMARK                         _______ _______ _______ _____ _____    ______ ____
ROOT
ATOM      1  C   UNL     1      -1.443  15.193  24.255  0.00  0.00    +0.000 C 
ATOM      2  O   UNL     1      -0.281  15.279  23.881  0.00  0.00    +0.000 OA
ATOM      3  N   UNL     1      -2.345  14.195  23.885  0.00  0.00    +0.000 N 
ATOM      4  C   UNL     1      -3.743  14.127  24.332  0.00  0.00    +0.000 C 
ATOM      5  C   UNL     1      -4.715  13.826  23.183  0.00  0.00    +0.000 C 
ATOM      6  C   UNL     1      -6.137  13.552  23.722  0.00  0.00    +0.000 C 
ATOM      7  C   UNL     1      -7.155  13.337  22.600  0.00  0.00    +0.000 C 
ATOM      8  C   UNL     1      -7.161  14.498  21.609  0.00  0.00    +0.000 C 
ATOM      9  C   UNL     1      -5.769  14.826  21.078  0.00  0.00    +0.000 C 
ATOM     10  C   UNL     1      -4.759  15.022  22.207  0.00  0.00    +0.000 C 
ATOM     11  C   UNL     1      -4.169  12.567  22.526  0.00  0.00    +0.000 C 
ATOM     12  O   UNL     1      -2.802  12.730  22.153  0.00  0.00    +0.000 OA
ATOM     13  C   UNL     1      -1.917  13.117  23.113  0.00  0.00    +0.000 C 
ATOM     14  N   UNL     1      -0.778  12.510  23.254  0.00  0.00    +0.000 NA
ENDROOT
BRANCH  14  15
ATOM     15  C   UNL     1      -0.488  11.333  22.491  0.00  0.00    +0.000 A 
ATOM     16  C   UNL     1      -0.716  10.048  23.025  0.00  0.00    +0.000 A 
ATOM     17  C   UNL     1      -0.512   8.883  22.295  0.00  0.00    +0.000 A 
ATOM     18  C   UNL     1       0.034   8.964  21.026  0.00  0.00    +0.000 A 
ATOM     19  C   UNL     1       0.396  10.207  20.493  0.00  0.00    +0.000 A 
ATOM     20  C   UNL     1       1.032  10.246  19.246  0.00  0.00    +0.000 A 
ATOM     21  C   UNL     1       1.441  11.459  18.697  0.00  0.00    +0.000 A 
ATOM     22  C   UNL     1       1.196  12.643  19.384  0.00  0.00    +0.000 A 
ATOM     23  C   UNL     1       0.543  12.621  20.622  0.00  0.00    +0.000 A 
ATOM     24  C   UNL     1       0.134  11.408  21.216  0.00  0.00    +0.000 A 
ENDBRANCH  14  15
BRANCH   1  26
ATOM     25  C   UNL     1      -2.619  17.675  23.966  0.00  0.00    +0.000 C 
ATOM     26  S   UNL     1      -2.110  16.510  25.247  0.00  0.00    +0.000 S 
ENDBRANCH   1  26
TORSDOF 2
ENDMDL
MODEL 7
REMARK VINA RESULT:      -7.5      2.206      4.629
REMARK  Name = 
REMARK  3 active torsions:
REMARK  status: ('A' for Active; 'I' for Inactive)
REMARK    1  A    between atoms: C_1  and  S_2
REMARK    2  A    between atoms: S_2  and  C_3
REMARK    3  A    between atoms: N_16  and  C_17
REMARK                            x       y       z     vdW  Elec       q    Type
REMARK                         _______ _______ _______ _____ _____    ______ ____
ROOT
ATOM      1  C   UNL     1       4.058   6.863  17.501  0.00  0.00    +0.000 C 
ATOM      2  O   UNL     1       4.595   7.961  17.551  0.00  0.00    +0.000 OA
ATOM      3  N   UNL     1       2.893   6.495  18.175  0.00  0.00    +0.000 N 
ATOM      4  C   UNL     1       2.280   5.161  18.114  0.00  0.00    +0.000 C 
ATOM      5  C   UNL     1       1.871   4.638  19.498  0.00  0.00    +0.000 C 
ATOM      6  C   UNL     1       1.043   3.339  19.373  0.00  0.00    +0.000 C 
ATOM      7  C   UNL     1       0.694   2.737  20.735  0.00  0.00    +0.000 C 
ATOM      8  C   UNL     1       1.936   2.512  21.593  0.00  0.00    +0.000 C 
ATOM      9  C   UNL     1       2.801   3.762  21.714  0.00  0.00    +0.000 C 
ATOM     10  C   UNL     1       3.131   4.363  20.348  0.00  0.00    +0.000 C 
ATOM     11  C   UNL     1       1.004   5.738  20.093  0.00  0.00    +0.000 C 
ATOM     12  O   UNL     1       1.681   6.993  20.083  0.00  0.00    +0.000 OA
ATOM     13  C   UNL     1       2.174   7.446  18.896  0.00  0.00    +0.000 C 
ATOM     14  N   UNL     1       1.973   8.670  18.516  0.00  0.00    +0.000 NA
ENDROOT
BRANCH  14  15
ATOM     15  C   UNL     1       1.113   9.531  19.272  0.00  0.00    +0.000 A 
ATOM     16  C   UNL     1       1.418   9.870  20.606  0.00  0.00    +0.000 A 
ATOM     17  C   UNL     1       0.647  10.754  21.352  0.00  0.00    +0.000 A 
ATOM     18  C   UNL     1      -0.527  11.252  20.814  0.00  0.00    +0.000 A 
ATOM     19  C   UNL     1      -0.943  10.851  19.540  0.00  0.00    +0.000 A 
ATOM     20  C   UNL     1      -2.181  11.298  19.063  0.00  0.00    +0.000 A 
ATOM     21  C   UNL     1      -2.648  10.894  17.816  0.00  0.00    +0.000 A 
ATOM     22  C   UNL     1      -1.869  10.055  17.027  0.00  0.00    +0.000 A 
ATOM     23  C   UNL     1      -0.620   9.616  17.481  0.00  0.00    +0.000 A 
ATOM     24  C   UNL     1      -0.125   9.990  18.749  0.00  0.00    +0.000 A 
ENDBRANCH  14  15
BRANCH   1  26
ATOM     25  C   UNL     1       5.992   4.929  17.882  0.00  0.00    +0.000 C 
ATOM     26  S   UNL     1       4.880   5.562  16.610  0.00  0.00    +0.000 S 
ENDBRANCH   1  26
TORSDOF 2
ENDMDL
MODEL 8
REMARK VINA RESULT:      -7.3      6.727      8.820
REMARK  Name = 
REMARK  3 active torsions:
REMARK  status: ('A' for Active; 'I' for Inactive)
REMARK    1  A    between atoms: C_1  and  S_2
REMARK    2  A    between atoms: S_2  and  C_3
REMARK    3  A    between atoms: N_16  and  C_17
REMARK                            x       y       z     vdW  Elec       q    Type
REMARK                         _______ _______ _______ _____ _____    ______ ____
ROOT
ATOM      1  C   UNL     1      -0.519  11.663  22.182  0.00  0.00    +0.000 C 
ATOM      2  O   UNL     1      -0.480  12.537  23.037  0.00  0.00    +0.000 OA
ATOM      3  N   UNL     1      -0.455  11.871  20.804  0.00  0.00    +0.000 N 
ATOM      4  C   UNL     1      -0.526  10.805  19.795  0.00  0.00    +0.000 C 
ATOM      5  C   UNL     1      -1.476  11.149  18.640  0.00  0.00    +0.000 C 
ATOM      6  C   UNL     1      -1.361  10.108  17.504  0.00  0.00    +0.000 C 
ATOM      7  C   UNL     1      -2.359  10.367  16.373  0.00  0.00    +0.000 C 
ATOM      8  C   UNL     1      -3.792  10.456  16.890  0.00  0.00    +0.000 C 
ATOM      9  C   UNL     1      -3.943  11.448  18.038  0.00  0.00    +0.000 C 
ATOM     10  C   UNL     1      -2.932  11.189  19.153  0.00  0.00    +0.000 C 
ATOM     11  C   UNL     1      -1.006  12.505  18.136  0.00  0.00    +0.000 C 
ATOM     12  O   UNL     1      -0.949  13.459  19.195  0.00  0.00    +0.000 OA
ATOM     13  C   UNL     1      -0.216  13.148  20.300  0.00  0.00    +0.000 C 
ATOM     14  N   UNL     1       0.615  14.004  20.811  0.00  0.00    +0.000 NA
ENDROOT
BRANCH  14  15
ATOM     15  C   UNL     1       0.878  15.243  20.143  0.00  0.00    +0.000 A 
ATOM     16  C   UNL     1       0.015  16.348  20.296  0.00  0.00    +0.000 A 
ATOM     17  C   UNL     1       0.270  17.587  19.721  0.00  0.00    +0.000 A 
ATOM     18  C   UNL     1       1.357  17.733  18.876  0.00  0.00    +0.000 A 
ATOM     19  C   UNL     1       2.177  16.636  18.589  0.00  0.00    +0.000 A 
ATOM     20  C   UNL     1       3.211  16.793  17.658  0.00  0.00    +0.000 A 
ATOM     21  C   UNL     1       4.027  15.718  17.317  0.00  0.00    +0.000 A 
ATOM     22  C   UNL     1       3.827  14.482  17.923  0.00  0.00    +0.000 A 
ATOM     23  C   UNL     1       2.810  14.315  18.870  0.00  0.00    +0.000 A 
ATOM     24  C   UNL     1       1.953  15.378  19.223  0.00  0.00    +0.000 A 
ENDBRANCH  14  15
BRANCH   1  26
ATOM     25  C   UNL     1       0.857   9.325  22.694  0.00  0.00    +0.000 C 
ATOM     26  S   UNL     1      -0.820   9.988  22.699  0.00  0.00    +0.000 S 
ENDBRANCH   1  26
TORSDOF 2
ENDMDL
MODEL 9
REMARK VINA RESULT:      -7.3      5.585      8.322
REMARK  Name = 
REMARK  3 active torsions:
REMARK  status: ('A' for Active; 'I' for Inactive)
REMARK    1  A    between atoms: C_1  and  S_2
REMARK    2  A    between atoms: S_2  and  C_3
REMARK    3  A    between atoms: N_16  and  C_17
REMARK                            x       y       z     vdW  Elec       q    Type
REMARK                         _______ _______ _______ _____ _____    ______ ____
ROOT
ATOM      1  C   UNL     1       0.238  10.677  21.090  0.00  0.00    +0.000 C 
ATOM      2  O   UNL     1       0.707  11.370  21.982  0.00  0.00    +0.000 OA
ATOM      3  N   UNL     1       0.006  11.089  19.777  0.00  0.00    +0.000 N 
ATOM      4  C   UNL     1      -0.579  10.242  18.728  0.00  0.00    +0.000 C 
ATOM      5  C   UNL     1      -1.670  10.966  17.928  0.00  0.00    +0.000 C 
ATOM      6  C   UNL     1      -2.108  10.125  16.707  0.00  0.00    +0.000 C 
ATOM      7  C   UNL     1      -3.258  10.773  15.935  0.00  0.00    +0.000 C 
ATOM      8  C   UNL     1      -4.448  11.080  16.840  0.00  0.00    +0.000 C 
ATOM      9  C   UNL     1      -4.054  11.881  18.077  0.00  0.00    +0.000 C 
ATOM     10  C   UNL     1      -2.894  11.233  18.831  0.00  0.00    +0.000 C 
ATOM     11  C   UNL     1      -1.017  12.254  17.449  0.00  0.00    +0.000 C 
ATOM     12  O   UNL     1      -0.461  12.988  18.539  0.00  0.00    +0.000 OA
ATOM     13  C   UNL     1       0.423  12.350  19.357  0.00  0.00    +0.000 C 
ATOM     14  N   UNL     1       1.542  12.913  19.695  0.00  0.00    +0.000 NA
ENDROOT
BRANCH  14  15
ATOM     15  C   UNL     1       1.932  14.159  19.107  0.00  0.00    +0.000 A 
ATOM     16  C   UNL     1       2.910  14.209  18.093  0.00  0.00    +0.000 A 
ATOM     17  C   UNL     1       3.267  15.388  17.450  0.00  0.00    +0.000 A 
ATOM     18  C   UNL     1       2.726  16.587  17.880  0.00  0.00    +0.000 A 
ATOM     19  C   UNL     1       1.843  16.612  18.965  0.00  0.00    +0.000 A 
ATOM     20  C   UNL     1       1.388  17.850  19.436  0.00  0.00    +0.000 A 
ATOM     21  C   UNL     1       0.538  17.921  20.536  0.00  0.00    +0.000 A 
ATOM     22  C   UNL     1       0.120  16.750  21.161  0.00  0.00    +0.000 A 
ATOM     23  C   UNL     1       0.552  15.504  20.690  0.00  0.00    +0.000 A 
ATOM     24  C   UNL     1       1.430  15.398  19.590  0.00  0.00    +0.000 A 
ENDBRANCH  14  15
BRANCH   1  26
ATOM     25  C   UNL     1       1.159   8.076  21.200  0.00  0.00    +0.000 C 
ATOM     26  S   UNL     1      -0.334   9.044  21.501  0.00  0.00    +0.000 S 
ENDBRANCH   1  26
TORSDOF 2
ENDMDL
