MODEL 1
REMARK VINA RESULT:      -7.6      0.000      0.000
REMARK  Name = 
REMARK  1 active torsions:
REMARK  status: ('A' for Active; 'I' for Inactive)
REMARK    1  A    between atoms: C_4  and  O_5
REMARK                            x       y       z     vdW  Elec       q    Type
REMARK                         _______ _______ _______ _____ _____    ______ ____
ROOT
ATOM      1  O   UNL     1       8.267   6.890  16.364  0.00  0.00    +0.000 OA
ATOM      2  C   UNL     1       7.360   6.424  17.040  0.00  0.00    +0.000 C 
ATOM      3  N   UNL     1       7.211   6.755  18.379  0.00  0.00    +0.000 N 
ATOM      4  C   UNL     1       6.071   6.205  19.049  0.00  0.00    +0.000 C 
ATOM      5  C   UNL     1       5.510   5.372  17.976  0.00  0.00    +0.000 A 
ATOM      6  C   UNL     1       6.279   5.509  16.777  0.00  0.00    +0.000 A 
ATOM      7  C   UNL     1       5.875   4.785  15.622  0.00  0.00    +0.000 A 
ATOM      8  C   UNL     1       6.467   4.769  14.361  0.00  0.00    +0.000 A 
ATOM      9  C   UNL     1       7.564   5.349  13.695  0.00  0.00    +0.000 A 
ATOM     10  C   UNL     1       7.812   5.040  12.349  0.00  0.00    +0.000 A 
ATOM     11  C   UNL     1       6.985   4.164  11.652  0.00  0.00    +0.000 A 
ATOM     12  C   UNL     1       5.891   3.575  12.284  0.00  0.00    +0.000 A 
ATOM     13 CL   UNL     1       4.872   2.492  11.419  0.00  0.00    +0.000 Cl
ATOM     14  C   UNL     1       5.644   3.884  13.628  0.00  0.00    +0.000 A 
ATOM     15  N   UNL     1       4.629   3.431  14.466  0.00  0.00    +0.000 N 
ATOM     16  C   UNL     1       4.773   3.991  15.699  0.00  0.00    +0.000 A 
ATOM     17  C   UNL     1       4.039   3.868  16.850  0.00  0.00    +0.000 A 
ATOM     18  N   UNL     1       2.921   3.150  17.153  0.00  0.00    +0.000 N 
ATOM     19  C   UNL     1       2.567   3.379  18.482  0.00  0.00    +0.000 A 
ATOM     20  C   UNL     1       1.500   2.856  19.222  0.00  0.00    +0.000 A 
ATOM     21 CL   UNL     1       0.383   1.757  18.512  0.00  0.00    +0.000 Cl
ATOM     22  C   UNL     1       1.359   3.243  20.554  0.00  0.00    +0.000 A 
ATOM     23  C   UNL     1       2.263   4.131  21.131  0.00  0.00    +0.000 A 
ATOM     24  C   UNL     1       3.333   4.655  20.391  0.00  0.00    +0.000 A 
ATOM     25  C   UNL     1       3.498   4.279  19.043  0.00  0.00    +0.000 A 
ATOM     26  C   UNL     1       4.370   4.531  17.986  0.00  0.00    +0.000 A 
ATOM     27  H   UNL     1       7.825   7.432  18.807  0.00  0.00    +0.000 HD
ATOM     28  H   UNL     1       3.908   2.786  14.178  0.00  0.00    +0.000 HD
ATOM     29  H   UNL     1       2.408   2.542  16.530  0.00  0.00    +0.000 HD
ENDROOT
BRANCH   4  30
ATOM     30  O   UNL     1       6.565   5.465  20.135  0.00  0.00    +0.000 OA
ATOM     31  H   UNL     1       5.967   5.662  20.874  0.00  0.00    +0.000 HD
ENDBRANCH   4  30
TORSDOF 1
ENDMDL
MODEL 2
REMARK VINA RESULT:      -7.1     12.218     14.843
REMARK  Name = 
REMARK  1 active torsions:
REMARK  status: ('A' for Active; 'I' for Inactive)
REMARK    1  A    between atoms: C_4  and  O_5
REMARK                            x       y       z     vdW  Elec       q    Type
REMARK                         _______ _______ _______ _____ _____    ______ ____
ROOT
ATOM      1  O   UNL     1      -7.916  14.824  20.844  0.00  0.00    +0.000 OA
ATOM      2  C   UNL     1      -7.159  14.084  20.230  0.00  0.00    +0.000 C 
ATOM      3  N   UNL     1      -7.579  13.393  19.102  0.00  0.00    +0.000 N 
ATOM      4  C   UNL     1      -6.587  12.613  18.426  0.00  0.00    +0.000 C 
ATOM      5  C   UNL     1      -5.439  12.811  19.322  0.00  0.00    +0.000 A 
ATOM      6  C   UNL     1      -5.783  13.693  20.395  0.00  0.00    +0.000 A 
ATOM      7  C   UNL     1      -4.788  14.014  21.358  0.00  0.00    +0.000 A 
ATOM      8  C   UNL     1      -4.900  14.844  22.473  0.00  0.00    +0.000 A 
ATOM      9  C   UNL     1      -5.868  15.644  23.109  0.00  0.00    +0.000 A 
ATOM     10  C   UNL     1      -5.540  16.348  24.277  0.00  0.00    +0.000 A 
ATOM     11  C   UNL     1      -4.263  16.270  24.825  0.00  0.00    +0.000 A 
ATOM     12  C   UNL     1      -3.283  15.487  24.217  0.00  0.00    +0.000 A 
ATOM     13 CL   UNL     1      -1.705  15.393  24.898  0.00  0.00    +0.000 Cl
ATOM     14  C   UNL     1      -3.611  14.785  23.051  0.00  0.00    +0.000 A 
ATOM     15  N   UNL     1      -2.817  13.948  22.271  0.00  0.00    +0.000 N 
ATOM     16  C   UNL     1      -3.547  13.473  21.225  0.00  0.00    +0.000 A 
ATOM     17  C   UNL     1      -3.224  12.632  20.191  0.00  0.00    +0.000 A 
ATOM     18  N   UNL     1      -2.069  11.989  19.859  0.00  0.00    +0.000 N 
ATOM     19  C   UNL     1      -2.269  11.248  18.695  0.00  0.00    +0.000 A 
ATOM     20  C   UNL     1      -1.371  10.433  17.993  0.00  0.00    +0.000 A 
ATOM     21 CL   UNL     1       0.248  10.226  18.535  0.00  0.00    +0.000 Cl
ATOM     22  C   UNL     1      -1.818   9.786  16.842  0.00  0.00    +0.000 A 
ATOM     23  C   UNL     1      -3.130   9.951  16.402  0.00  0.00    +0.000 A 
ATOM     24  C   UNL     1      -4.030  10.766  17.105  0.00  0.00    +0.000 A 
ATOM     25  C   UNL     1      -3.603  11.430  18.273  0.00  0.00    +0.000 A 
ATOM     26  C   UNL     1      -4.126  12.286  19.239  0.00  0.00    +0.000 A 
ATOM     27  H   UNL     1      -8.510  13.532  18.739  0.00  0.00    +0.000 HD
ATOM     28  H   UNL     1      -1.850  13.741  22.473  0.00  0.00    +0.000 HD
ATOM     29  H   UNL     1      -1.192  12.028  20.359  0.00  0.00    +0.000 HD
ENDROOT
BRANCH   4  30
ATOM     30  O   UNL     1      -7.062  11.294  18.405  0.00  0.00    +0.000 OA
ATOM     31  H   UNL     1      -7.135  11.030  19.336  0.00  0.00    +0.000 HD
ENDBRANCH   4  30
TORSDOF 1
ENDMDL
MODEL 3
REMARK VINA RESULT:      -7.1      0.470      6.302
REMARK  Name = 
REMARK  1 active torsions:
REMARK  status: ('A' for Active; 'I' for Inactive)
REMARK    1  A    between atoms: C_4  and  O_5
REMARK                            x       y       z     vdW  Elec       q    Type
REMARK                         _______ _______ _______ _____ _____    ______ ____
ROOT
ATOM      1  O   UNL     1       6.479   5.522  20.357  0.00  0.00    +0.000 OA
ATOM      2  C   UNL     1       6.606   5.418  19.144  0.00  0.00    +0.000 C 
ATOM      3  N   UNL     1       7.709   5.942  18.485  0.00  0.00    +0.000 N 
ATOM      4  C   UNL     1       7.784   5.697  17.076  0.00  0.00    +0.000 C 
ATOM      5  C   UNL     1       6.511   4.996  16.860  0.00  0.00    +0.000 A 
ATOM      6  C   UNL     1       5.813   4.826  18.098  0.00  0.00    +0.000 A 
ATOM      7  C   UNL     1       4.562   4.151  18.087  0.00  0.00    +0.000 A 
ATOM      8  C   UNL     1       3.719   3.876  19.162  0.00  0.00    +0.000 A 
ATOM      9  C   UNL     1       3.671   4.081  20.555  0.00  0.00    +0.000 A 
ATOM     10  C   UNL     1       2.574   3.618  21.296  0.00  0.00    +0.000 A 
ATOM     11  C   UNL     1       1.522   2.951  20.675  0.00  0.00    +0.000 A 
ATOM     12  C   UNL     1       1.541   2.732  19.299  0.00  0.00    +0.000 A 
ATOM     13 CL   UNL     1       0.237   1.908  18.536  0.00  0.00    +0.000 Cl
ATOM     14  C   UNL     1       2.636   3.195  18.559  0.00  0.00    +0.000 A 
ATOM     15  N   UNL     1       2.884   3.100  17.193  0.00  0.00    +0.000 N 
ATOM     16  C   UNL     1       4.075   3.691  16.903  0.00  0.00    +0.000 A 
ATOM     17  C   UNL     1       4.752   3.853  15.722  0.00  0.00    +0.000 A 
ATOM     18  N   UNL     1       4.468   3.479  14.443  0.00  0.00    +0.000 N 
ATOM     19  C   UNL     1       5.500   3.886  13.599  0.00  0.00    +0.000 A 
ATOM     20  C   UNL     1       5.635   3.723  12.215  0.00  0.00    +0.000 A 
ATOM     21 CL   UNL     1       4.424   2.922  11.294  0.00  0.00    +0.000 Cl
ATOM     22  C   UNL     1       6.776   4.228  11.592  0.00  0.00    +0.000 A 
ATOM     23  C   UNL     1       7.758   4.879  12.336  0.00  0.00    +0.000 A 
ATOM     24  C   UNL     1       7.623   5.043  13.722  0.00  0.00    +0.000 A 
ATOM     25  C   UNL     1       6.479   4.543  14.376  0.00  0.00    +0.000 A 
ATOM     26  C   UNL     1       5.950   4.487  15.663  0.00  0.00    +0.000 A 
ATOM     27  H   UNL     1       8.454   6.377  19.007  0.00  0.00    +0.000 HD
ATOM     28  H   UNL     1       2.258   2.654  16.538  0.00  0.00    +0.000 HD
ATOM     29  H   UNL     1       3.646   2.982  14.129  0.00  0.00    +0.000 HD
ENDROOT
BRANCH   4  30
ATOM     30  O   UNL     1       7.845   6.954  16.455  0.00  0.00    +0.000 OA
ATOM     31  H   UNL     1       8.762   7.253  16.568  0.00  0.00    +0.000 HD
ENDBRANCH   4  30
TORSDOF 1
ENDMDL
MODEL 4
REMARK VINA RESULT:      -7.0     12.291     13.984
REMARK  Name = 
REMARK  1 active torsions:
REMARK  status: ('A' for Active; 'I' for Inactive)
REMARK    1  A    between atoms: C_4  and  O_5
REMARK                            x       y       z     vdW  Elec       q    Type
REMARK                         _______ _______ _______ _____ _____    ______ ____
ROOT
ATOM      1  O   UNL     1      -7.041  12.059  17.823  0.00  0.00    +0.000 OA
ATOM      2  C   UNL     1      -6.720  12.714  18.805  0.00  0.00    +0.000 C 
ATOM      3  N   UNL     1      -7.636  13.520  19.467  0.00  0.00    +0.000 N 
ATOM      4  C   UNL     1      -7.165  14.184  20.646  0.00  0.00    +0.000 C 
ATOM      5  C   UNL     1      -5.754  13.773  20.635  0.00  0.00    +0.000 A 
ATOM      6  C   UNL     1      -5.494  12.891  19.538  0.00  0.00    +0.000 A 
ATOM      7  C   UNL     1      -4.179  12.376  19.376  0.00  0.00    +0.000 A 
ATOM      8  C   UNL     1      -3.705  11.511  18.391  0.00  0.00    +0.000 A 
ATOM      9  C   UNL     1      -4.184  10.826  17.259  0.00  0.00    +0.000 A 
ATOM     10  C   UNL     1      -3.318  10.018  16.507  0.00  0.00    +0.000 A 
ATOM     11  C   UNL     1      -1.980   9.879  16.864  0.00  0.00    +0.000 A 
ATOM     12  C   UNL     1      -1.476  10.544  17.981  0.00  0.00    +0.000 A 
ATOM     13 CL   UNL     1       0.179  10.370  18.417  0.00  0.00    +0.000 Cl
ATOM     14  C   UNL     1      -2.341  11.351  18.730  0.00  0.00    +0.000 A 
ATOM     15  N   UNL     1      -2.080  12.106  19.871  0.00  0.00    +0.000 N 
ATOM     16  C   UNL     1      -3.218  12.738  20.268  0.00  0.00    +0.000 A 
ATOM     17  C   UNL     1      -3.476  13.580  21.320  0.00  0.00    +0.000 A 
ATOM     18  N   UNL     1      -2.689  14.066  22.320  0.00  0.00    +0.000 N 
ATOM     19  C   UNL     1      -3.448  14.892  23.148  0.00  0.00    +0.000 A 
ATOM     20  C   UNL     1      -3.061  15.606  24.290  0.00  0.00    +0.000 A 
ATOM     21 CL   UNL     1      -1.442  15.545  24.867  0.00  0.00    +0.000 Cl
ATOM     22  C   UNL     1      -4.018  16.373  24.952  0.00  0.00    +0.000 A 
ATOM     23  C   UNL     1      -5.329  16.425  24.485  0.00  0.00    +0.000 A 
ATOM     24  C   UNL     1      -5.717  15.712  23.341  0.00  0.00    +0.000 A 
ATOM     25  C   UNL     1      -4.769  14.929  22.653  0.00  0.00    +0.000 A 
ATOM     26  C   UNL     1      -4.709  14.105  21.532  0.00  0.00    +0.000 A 
ATOM     27  H   UNL     1      -8.601  13.538  19.176  0.00  0.00    +0.000 HD
ATOM     28  H   UNL     1      -1.175  12.158  20.315  0.00  0.00    +0.000 HD
ATOM     29  H   UNL     1      -1.708  13.872  22.463  0.00  0.00    +0.000 HD
ENDROOT
BRANCH   4  30
ATOM     30  O   UNL     1      -7.351  15.558  20.431  0.00  0.00    +0.000 OA
ATOM     31  H   UNL     1      -7.475  15.943  21.314  0.00  0.00    +0.000 HD
ENDBRANCH   4  30
TORSDOF 1
ENDMDL
MODEL 5
REMARK VINA RESULT:      -6.8     10.517     12.737
REMARK  Name = 
REMARK  1 active torsions:
REMARK  status: ('A' for Active; 'I' for Inactive)
REMARK    1  A    between atoms: C_4  and  O_5
REMARK                            x       y       z     vdW  Elec       q    Type
REMARK                         _______ _______ _______ _____ _____    ______ ____
ROOT
ATOM      1  O   UNL     1      -2.829   9.587  17.047  0.00  0.00    +0.000 OA
ATOM      2  C   UNL     1      -2.015  10.244  17.682  0.00  0.00    +0.000 C 
ATOM      3  N   UNL     1      -0.653   9.992  17.592  0.00  0.00    +0.000 N 
ATOM      4  C   UNL     1       0.207  10.872  18.325  0.00  0.00    +0.000 C 
ATOM      5  C   UNL     1      -0.788  11.713  19.002  0.00  0.00    +0.000 A 
ATOM      6  C   UNL     1      -2.114  11.339  18.612  0.00  0.00    +0.000 A 
ATOM      7  C   UNL     1      -3.212  12.057  19.158  0.00  0.00    +0.000 A 
ATOM      8  C   UNL     1      -4.573  11.868  18.921  0.00  0.00    +0.000 A 
ATOM      9  C   UNL     1      -5.412  11.028  18.163  0.00  0.00    +0.000 A 
ATOM     10  C   UNL     1      -6.805  11.188  18.224  0.00  0.00    +0.000 A 
ATOM     11  C   UNL     1      -7.378  12.170  19.025  0.00  0.00    +0.000 A 
ATOM     12  C   UNL     1      -6.573  13.018  19.786  0.00  0.00    +0.000 A 
ATOM     13 CL   UNL     1      -7.286  14.230  20.776  0.00  0.00    +0.000 Cl
ATOM     14  C   UNL     1      -5.183  12.857  19.725  0.00  0.00    +0.000 A 
ATOM     15  N   UNL     1      -4.182  13.569  20.381  0.00  0.00    +0.000 N 
ATOM     16  C   UNL     1      -2.965  13.073  20.028  0.00  0.00    +0.000 A 
ATOM     17  C   UNL     1      -1.691  13.429  20.393  0.00  0.00    +0.000 A 
ATOM     18  N   UNL     1      -1.213  14.394  21.227  0.00  0.00    +0.000 N 
ATOM     19  C   UNL     1       0.180  14.339  21.249  0.00  0.00    +0.000 A 
ATOM     20  C   UNL     1       1.091  15.130  21.962  0.00  0.00    +0.000 A 
ATOM     21 CL   UNL     1       0.550  16.389  23.000  0.00  0.00    +0.000 Cl
ATOM     22  C   UNL     1       2.453  14.873  21.815  0.00  0.00    +0.000 A 
ATOM     23  C   UNL     1       2.894  13.852  20.976  0.00  0.00    +0.000 A 
ATOM     24  C   UNL     1       1.983  13.060  20.263  0.00  0.00    +0.000 A 
ATOM     25  C   UNL     1       0.600  13.298  20.394  0.00  0.00    +0.000 A 
ATOM     26  C   UNL     1      -0.600  12.785  19.909  0.00  0.00    +0.000 A 
ATOM     27  H   UNL     1      -0.308   9.289  16.956  0.00  0.00    +0.000 HD
ATOM     28  H   UNL     1      -4.360  14.333  21.017  0.00  0.00    +0.000 HD
ATOM     29  H   UNL     1      -1.759  15.059  21.756  0.00  0.00    +0.000 HD
ENDROOT
BRANCH   4  30
ATOM     30  O   UNL     1       0.950  10.065  19.200  0.00  0.00    +0.000 OA
ATOM     31  H   UNL     1       0.733   9.151  18.956  0.00  0.00    +0.000 HD
ENDBRANCH   4  30
TORSDOF 1
ENDMDL
MODEL 6
REMARK VINA RESULT:      -6.8     10.393     12.157
REMARK  Name = 
REMARK  1 active torsions:
REMARK  status: ('A' for Active; 'I' for Inactive)
REMARK    1  A    between atoms: C_4  and  O_5
REMARK                            x       y       z     vdW  Elec       q    Type
REMARK                         _______ _______ _______ _____ _____    ______ ____
ROOT
ATOM      1  O   UNL     1       1.782  10.819  18.485  0.00  0.00    +0.000 OA
ATOM      2  C   UNL     1       0.561  10.910  18.453  0.00  0.00    +0.000 C 
ATOM      3  N   UNL     1      -0.207  10.059  17.671  0.00  0.00    +0.000 N 
ATOM      4  C   UNL     1      -1.628  10.213  17.769  0.00  0.00    +0.000 C 
ATOM      5  C   UNL     1      -1.707  11.365  18.678  0.00  0.00    +0.000 A 
ATOM      6  C   UNL     1      -0.399  11.775  19.088  0.00  0.00    +0.000 A 
ATOM      7  C   UNL     1      -0.279  12.871  19.985  0.00  0.00    +0.000 A 
ATOM      8  C   UNL     1       0.883  13.434  20.511  0.00  0.00    +0.000 A 
ATOM      9  C   UNL     1       2.278  13.250  20.445  0.00  0.00    +0.000 A 
ATOM     10  C   UNL     1       3.132  14.090  21.174  0.00  0.00    +0.000 A 
ATOM     11  C   UNL     1       2.624  15.111  21.970  0.00  0.00    +0.000 A 
ATOM     12  C   UNL     1       1.248  15.319  22.057  0.00  0.00    +0.000 A 
ATOM     13 CL   UNL     1       0.623  16.584  23.041  0.00  0.00    +0.000 Cl
ATOM     14  C   UNL     1       0.395  14.479  21.329  0.00  0.00    +0.000 A 
ATOM     15  N   UNL     1      -0.995  14.485  21.252  0.00  0.00    +0.000 N 
ATOM     16  C   UNL     1      -1.409  13.489  20.421  0.00  0.00    +0.000 A 
ATOM     17  C   UNL     1      -2.660  13.088  20.027  0.00  0.00    +0.000 A 
ATOM     18  N   UNL     1      -3.907  13.543  20.332  0.00  0.00    +0.000 N 
ATOM     19  C   UNL     1      -4.859  12.775  19.661  0.00  0.00    +0.000 A 
ATOM     20  C   UNL     1      -6.255  12.881  19.670  0.00  0.00    +0.000 A 
ATOM     21 CL   UNL     1      -7.047  14.091  20.600  0.00  0.00    +0.000 Cl
ATOM     22  C   UNL     1      -6.997  11.983  18.903  0.00  0.00    +0.000 A 
ATOM     23  C   UNL     1      -6.357  11.003  18.147  0.00  0.00    +0.000 A 
ATOM     24  C   UNL     1      -4.959  10.897  18.137  0.00  0.00    +0.000 A 
ATOM     25  C   UNL     1      -4.186  11.793  18.903  0.00  0.00    +0.000 A 
ATOM     26  C   UNL     1      -2.844  12.049  19.174  0.00  0.00    +0.000 A 
ATOM     27  H   UNL     1       0.230   9.313  17.152  0.00  0.00    +0.000 HD
ATOM     28  H   UNL     1      -1.583  15.139  21.748  0.00  0.00    +0.000 HD
ATOM     29  H   UNL     1      -4.135  14.313  20.945  0.00  0.00    +0.000 HD
ENDROOT
BRANCH   4  30
ATOM     30  O   UNL     1      -2.090  10.487  16.473  0.00  0.00    +0.000 OA
ATOM     31  H   UNL     1      -2.380   9.631  16.116  0.00  0.00    +0.000 HD
ENDBRANCH   4  30
TORSDOF 1
ENDMDL
MODEL 7
REMARK VINA RESULT:      -6.7     11.535     13.127
REMARK  Name = 
REMARK  1 active torsions:
REMARK  status: ('A' for Active; 'I' for Inactive)
REMARK    1  A    between atoms: C_4  and  O_5
REMARK                            x       y       z     vdW  Elec       q    Type
REMARK                         _______ _______ _______ _____ _____    ______ ____
ROOT
ATOM      1  O   UNL     1      -3.831  10.400  16.114  0.00  0.00    +0.000 OA
ATOM      2  C   UNL     1      -4.387  11.144  16.911  0.00  0.00    +0.000 C 
ATOM      3  N   UNL     1      -5.666  11.628  16.677  0.00  0.00    +0.000 N 
ATOM      4  C   UNL     1      -6.242  12.433  17.713  0.00  0.00    +0.000 C 
ATOM      5  C   UNL     1      -5.117  12.495  18.656  0.00  0.00    +0.000 A 
ATOM      6  C   UNL     1      -4.013  11.720  18.176  0.00  0.00    +0.000 A 
ATOM      7  C   UNL     1      -2.835  11.650  18.969  0.00  0.00    +0.000 A 
ATOM      8  C   UNL     1      -1.653  10.962  18.701  0.00  0.00    +0.000 A 
ATOM      9  C   UNL     1      -1.108  10.135  17.700  0.00  0.00    +0.000 A 
ATOM     10  C   UNL     1       0.194   9.631  17.836  0.00  0.00    +0.000 A 
ATOM     11  C   UNL     1       0.965   9.936  18.954  0.00  0.00    +0.000 A 
ATOM     12  C   UNL     1       0.454  10.751  19.962  0.00  0.00    +0.000 A 
ATOM     13 CL   UNL     1       1.412  11.126  21.341  0.00  0.00    +0.000 Cl
ATOM     14  C   UNL     1      -0.847  11.254  19.825  0.00  0.00    +0.000 A 
ATOM     15  N   UNL     1      -1.571  12.077  20.684  0.00  0.00    +0.000 N 
ATOM     16  C   UNL     1      -2.800  12.320  20.153  0.00  0.00    +0.000 A 
ATOM     17  C   UNL     1      -3.863  13.057  20.608  0.00  0.00    +0.000 A 
ATOM     18  N   UNL     1      -4.053  13.790  21.740  0.00  0.00    +0.000 N 
ATOM     19  C   UNL     1      -5.331  14.348  21.724  0.00  0.00    +0.000 A 
ATOM     20  C   UNL     1      -5.955  15.172  22.669  0.00  0.00    +0.000 A 
ATOM     21 CL   UNL     1      -5.141  15.645  24.108  0.00  0.00    +0.000 Cl
ATOM     22  C   UNL     1      -7.256  15.606  22.419  0.00  0.00    +0.000 A 
ATOM     23  C   UNL     1      -7.916  15.226  21.253  0.00  0.00    +0.000 A 
ATOM     24  C   UNL     1      -7.292  14.401  20.305  0.00  0.00    +0.000 A 
ATOM     25  C   UNL     1      -5.976  13.949  20.534  0.00  0.00    +0.000 A 
ATOM     26  C   UNL     1      -5.016  13.164  19.901  0.00  0.00    +0.000 A 
ATOM     27  H   UNL     1      -6.182  11.330  15.863  0.00  0.00    +0.000 HD
ATOM     28  H   UNL     1      -1.214  12.426  21.562  0.00  0.00    +0.000 HD
ATOM     29  H   UNL     1      -3.389  13.924  22.489  0.00  0.00    +0.000 HD
ENDROOT
BRANCH   4  30
ATOM     30  O   UNL     1      -6.554  13.670  17.129  0.00  0.00    +0.000 OA
ATOM     31  H   UNL     1      -7.266  13.484  16.495  0.00  0.00    +0.000 HD
ENDBRANCH   4  30
TORSDOF 1
ENDMDL
MODEL 8
REMARK VINA RESULT:      -6.7     11.095     13.424
REMARK  Name = 
REMARK  1 active torsions:
REMARK  status: ('A' for Active; 'I' for Inactive)
REMARK    1  A    between atoms: C_4  and  O_5
REMARK                            x       y       z     vdW  Elec       q    Type
REMARK                         _______ _______ _______ _____ _____    ______ ____
ROOT
ATOM      1  O   UNL     1       1.758  14.523  22.222  0.00  0.00    +0.000 OA
ATOM      2  C   UNL     1       1.078  13.916  21.406  0.00  0.00    +0.000 C 
ATOM      3  N   UNL     1       1.660  13.168  20.392  0.00  0.00    +0.000 N 
ATOM      4  C   UNL     1       0.766  12.444  19.540  0.00  0.00    +0.000 C 
ATOM      5  C   UNL     1      -0.528  12.886  20.078  0.00  0.00    +0.000 A 
ATOM      6  C   UNL     1      -0.338  13.760  21.194  0.00  0.00    +0.000 A 
ATOM      7  C   UNL     1      -1.484  14.278  21.857  0.00  0.00    +0.000 A 
ATOM      8  C   UNL     1      -1.535  15.136  22.954  0.00  0.00    +0.000 A 
ATOM      9  C   UNL     1      -0.650  15.811  23.817  0.00  0.00    +0.000 A 
ATOM     10  C   UNL     1      -1.153  16.620  24.846  0.00  0.00    +0.000 A 
ATOM     11  C   UNL     1      -2.523  16.770  25.034  0.00  0.00    +0.000 A 
ATOM     12  C   UNL     1      -3.425  16.114  24.197  0.00  0.00    +0.000 A 
ATOM     13 CL   UNL     1      -5.119  16.302  24.432  0.00  0.00    +0.000 Cl
ATOM     14  C   UNL     1      -2.922  15.306  23.169  0.00  0.00    +0.000 A 
ATOM     15  N   UNL     1      -3.609  14.559  22.216  0.00  0.00    +0.000 N 
ATOM     16  C   UNL     1      -2.718  13.924  21.406  0.00  0.00    +0.000 A 
ATOM     17  C   UNL     1      -2.892  13.081  20.338  0.00  0.00    +0.000 A 
ATOM     18  N   UNL     1      -4.008  12.594  19.728  0.00  0.00    +0.000 N 
ATOM     19  C   UNL     1      -3.635  11.761  18.674  0.00  0.00    +0.000 A 
ATOM     20  C   UNL     1      -4.438  11.049  17.773  0.00  0.00    +0.000 A 
ATOM     21 CL   UNL     1      -6.153  11.125  17.865  0.00  0.00    +0.000 Cl
ATOM     22  C   UNL     1      -3.817  10.277  16.793  0.00  0.00    +0.000 A 
ATOM     23  C   UNL     1      -2.427  10.216  16.716  0.00  0.00    +0.000 A 
ATOM     24  C   UNL     1      -1.622  10.928  17.617  0.00  0.00    +0.000 A 
ATOM     25  C   UNL     1      -2.225  11.718  18.617  0.00  0.00    +0.000 A 
ATOM     26  C   UNL     1      -1.841  12.552  19.664  0.00  0.00    +0.000 A 
ATOM     27  H   UNL     1       2.664  13.072  20.344  0.00  0.00    +0.000 HD
ATOM     28  H   UNL     1      -4.616  14.512  22.158  0.00  0.00    +0.000 HD
ATOM     29  H   UNL     1      -4.967  12.788  19.980  0.00  0.00    +0.000 HD
ENDROOT
BRANCH   4  30
ATOM     30  O   UNL     1       1.012  12.889  18.232  0.00  0.00    +0.000 OA
ATOM     31  H   UNL     1       0.924  12.102  17.670  0.00  0.00    +0.000 HD
ENDBRANCH   4  30
TORSDOF 1
ENDMDL
MODEL 9
REMARK VINA RESULT:      -6.7     10.869     13.561
REMARK  Name = 
REMARK  1 active torsions:
REMARK  status: ('A' for Active; 'I' for Inactive)
REMARK    1  A    between atoms: C_4  and  O_5
REMARK                            x       y       z     vdW  Elec       q    Type
REMARK                         _______ _______ _______ _____ _____    ______ ____
ROOT
ATOM      1  O   UNL     1      -5.202  10.734  17.670  0.00  0.00    +0.000 OA
ATOM      2  C   UNL     1      -4.049  11.095  17.866  0.00  0.00    +0.000 C 
ATOM      3  N   UNL     1      -3.023  10.740  17.001  0.00  0.00    +0.000 N 
ATOM      4  C   UNL     1      -1.729  11.279  17.292  0.00  0.00    +0.000 C 
ATOM      5  C   UNL     1      -2.014  11.989  18.546  0.00  0.00    +0.000 A 
ATOM      6  C   UNL     1      -3.400  11.881  18.883  0.00  0.00    +0.000 A 
ATOM      7  C   UNL     1      -3.866  12.522  20.063  0.00  0.00    +0.000 A 
ATOM      8  C   UNL     1      -5.161  12.550  20.578  0.00  0.00    +0.000 A 
ATOM      9  C   UNL     1      -6.441  12.054  20.263  0.00  0.00    +0.000 A 
ATOM     10  C   UNL     1      -7.529  12.332  21.104  0.00  0.00    +0.000 A 
ATOM     11  C   UNL     1      -7.366  13.097  22.254  0.00  0.00    +0.000 A 
ATOM     12  C   UNL     1      -6.112  13.603  22.593  0.00  0.00    +0.000 A 
ATOM     13 CL   UNL     1      -5.916  14.548  24.017  0.00  0.00    +0.000 Cl
ATOM     14  C   UNL     1      -5.026  13.325  21.753  0.00  0.00    +0.000 A 
ATOM     15  N   UNL     1      -3.694  13.711  21.874  0.00  0.00    +0.000 N 
ATOM     16  C   UNL     1      -2.979  13.214  20.828  0.00  0.00    +0.000 A 
ATOM     17  C   UNL     1      -1.652  13.317  20.496  0.00  0.00    +0.000 A 
ATOM     18  N   UNL     1      -0.604  13.949  21.094  0.00  0.00    +0.000 N 
ATOM     19  C   UNL     1       0.552  13.746  20.341  0.00  0.00    +0.000 A 
ATOM     20  C   UNL     1       1.856  14.201  20.571  0.00  0.00    +0.000 A 
ATOM     21 CL   UNL     1       2.231  15.158  21.950  0.00  0.00    +0.000 Cl
ATOM     22  C   UNL     1       2.853  13.858  19.659  0.00  0.00    +0.000 A 
ATOM     23  C   UNL     1       2.552  13.080  18.542  0.00  0.00    +0.000 A 
ATOM     24  C   UNL     1       1.246  12.624  18.311  0.00  0.00    +0.000 A 
ATOM     25  C   UNL     1       0.220  12.956  19.219  0.00  0.00    +0.000 A 
ATOM     26  C   UNL     1      -1.144  12.730  19.383  0.00  0.00    +0.000 A 
ATOM     27  H   UNL     1      -3.224  10.217  16.162  0.00  0.00    +0.000 HD
ATOM     28  H   UNL     1      -3.339  14.275  22.632  0.00  0.00    +0.000 HD
ATOM     29  H   UNL     1      -0.633  14.487  21.949  0.00  0.00    +0.000 HD
ENDROOT
BRANCH   4  30
ATOM     30  O   UNL     1      -0.867  10.183  17.450  0.00  0.00    +0.000 OA
ATOM     31  H   UNL     1      -0.698   9.856  16.551  0.00  0.00    +0.000 HD
ENDBRANCH   4  30
TORSDOF 1
ENDMDL
