MODEL 1
REMARK VINA RESULT:      -8.7      0.000      0.000
REMARK  Name = 
REMARK  5 active torsions:
REMARK  status: ('A' for Active; 'I' for Inactive)
REMARK    1  A    between atoms: C_2  and  C_3
REMARK    2  A    between atoms: C_3  and  N_4
REMARK    3  A    between atoms: N_8  and  C_9
REMARK    4  A    between atoms: C_9  and  C_10
REMARK    5  A    between atoms: N_20  and  C_21
REMARK                            x       y       z     vdW  Elec       q    Type
REMARK                         _______ _______ _______ _____ _____    ______ ____
ROOT
ATOM      1  N   UNL     1       2.493   2.265  20.230  0.00  0.00    +0.000 NA
ATOM      2  C   UNL     1       1.274   1.983  19.435  0.00  0.00    +0.000 C 
ATOM      3  C   UNL     1       1.078   3.018  18.344  0.00  0.00    +0.000 C 
ATOM      4  C   UNL     1       2.243   3.018  17.368  0.00  0.00    +0.000 C 
ATOM      5  N   UNL     1       3.525   3.327  18.060  0.00  0.00    +0.000 NA
ATOM      6  S   UNL     1       3.914   2.237  19.314  0.00  0.00    +0.000 S 
ATOM      7  O   UNL     1       4.997   2.789  20.088  0.00  0.00    +0.000 OA
ATOM      8  O   UNL     1       4.011   0.927  18.711  0.00  0.00    +0.000 OA
ENDROOT
BRANCH   1   9
ATOM      9  C   UNL     1       2.385   3.391  21.193  0.00  0.00    +0.000 C 
BRANCH   9  11
ATOM     10  O   UNL     1       0.520   4.789  20.694  0.00  0.00    +0.000 OA
ATOM     11  C   UNL     1       1.742   4.658  20.641  0.00  0.00    +0.000 C 
ATOM     12  N   UNL     1       2.626   5.564  20.065  0.00  0.00    +0.000 N 
ATOM     13  H   UNL     1       3.580   5.241  19.942  0.00  0.00    +0.000 HD
BRANCH  12  14
ATOM     14  C   UNL     1       2.316   6.879  19.637  0.00  0.00    +0.000 A 
ATOM     15  C   UNL     1       2.586   7.334  18.340  0.00  0.00    +0.000 A 
ATOM     16  C   UNL     1       2.245   8.630  17.942  0.00  0.00    +0.000 A 
ATOM     17  C   UNL     1       1.633   9.494  18.838  0.00  0.00    +0.000 A 
ATOM     18  C   UNL     1       1.327   9.050  20.127  0.00  0.00    +0.000 A 
ATOM     19  C   UNL     1       1.672   7.751  20.529  0.00  0.00    +0.000 A 
ATOM     20  O   UNL     1       0.692   9.845  21.052  0.00  0.00    +0.000 OA
ATOM     21  C   UNL     1       0.093  10.996  20.436  0.00  0.00    +0.000 C 
ATOM     22  C   UNL     1       1.050  11.648  19.450  0.00  0.00    +0.000 C 
ATOM     23  O   UNL     1       1.349  10.752  18.376  0.00  0.00    +0.000 OA
ENDBRANCH  12  14
ENDBRANCH   9  11
ENDBRANCH   1   9
BRANCH   5  24
ATOM     24  C   UNL     1       4.665   3.400  17.077  0.00  0.00    +0.000 C 
BRANCH  24  25
ATOM     25  C   UNL     1       5.392   4.730  17.052  0.00  0.00    +0.000 A 
ATOM     26  C   UNL     1       5.080   5.697  16.085  0.00  0.00    +0.000 A 
ATOM     27  C   UNL     1       5.776   6.906  16.037  0.00  0.00    +0.000 A 
ATOM     28  C   UNL     1       6.784   7.173  16.965  0.00  0.00    +0.000 A 
ATOM     29  C   UNL     1       7.079   6.229  17.948  0.00  0.00    +0.000 A 
ATOM     30 CL   UNL     1       8.308   6.566  19.106  0.00  0.00    +0.000 Cl
ATOM     31  C   UNL     1       6.392   5.020  17.997  0.00  0.00    +0.000 A 
ENDBRANCH  24  25
ENDBRANCH   5  24
TORSDOF 5
ENDMDL
MODEL 2
REMARK VINA RESULT:      -8.5      3.457      4.383
REMARK  Name = 
REMARK  5 active torsions:
REMARK  status: ('A' for Active; 'I' for Inactive)
REMARK    1  A    between atoms: C_2  and  C_3
REMARK    2  A    between atoms: C_3  and  N_4
REMARK    3  A    between atoms: N_8  and  C_9
REMARK    4  A    between atoms: C_9  and  C_10
REMARK    5  A    between atoms: N_20  and  C_21
REMARK                            x       y       z     vdW  Elec       q    Type
REMARK                         _______ _______ _______ _____ _____    ______ ____
ROOT
ATOM      1  N   UNL     1       4.045   6.152  18.497  0.00  0.00    +0.000 NA
ATOM      2  C   UNL     1       3.227   4.937  18.727  0.00  0.00    +0.000 C 
ATOM      3  C   UNL     1       3.122   4.099  17.467  0.00  0.00    +0.000 C 
ATOM      4  C   UNL     1       4.488   3.623  17.005  0.00  0.00    +0.000 C 
ATOM      5  N   UNL     1       5.388   4.772  16.710  0.00  0.00    +0.000 NA
ATOM      6  S   UNL     1       5.636   5.814  18.037  0.00  0.00    +0.000 S 
ATOM      7  O   UNL     1       6.269   7.021  17.567  0.00  0.00    +0.000 OA
ATOM      8  O   UNL     1       6.227   5.015  19.088  0.00  0.00    +0.000 OA
ENDROOT
BRANCH   1   9
ATOM      9  C   UNL     1       3.381   7.235  17.725  0.00  0.00    +0.000 C 
BRANCH   9  11
ATOM     10  O   UNL     1       2.086   7.734  19.662  0.00  0.00    +0.000 OA
ATOM     11  C   UNL     1       2.323   8.022  18.490  0.00  0.00    +0.000 C 
ATOM     12  N   UNL     1       1.667   8.999  17.751  0.00  0.00    +0.000 N 
ATOM     13  H   UNL     1       1.850   9.003  16.752  0.00  0.00    +0.000 HD
BRANCH  12  14
ATOM     14  C   UNL     1       0.774   9.976  18.260  0.00  0.00    +0.000 A 
ATOM     15  C   UNL     1       1.214  11.118  18.942  0.00  0.00    +0.000 A 
ATOM     16  C   UNL     1       0.309  12.075  19.409  0.00  0.00    +0.000 A 
ATOM     17  C   UNL     1      -1.053  11.901  19.205  0.00  0.00    +0.000 A 
ATOM     18  C   UNL     1      -1.510  10.785  18.500  0.00  0.00    +0.000 A 
ATOM     19  C   UNL     1      -0.602   9.822  18.035  0.00  0.00    +0.000 A 
ATOM     20  O   UNL     1      -2.842  10.572  18.237  0.00  0.00    +0.000 OA
ATOM     21  C   UNL     1      -3.619  11.761  18.449  0.00  0.00    +0.000 C 
ATOM     22  C   UNL     1      -3.235  12.438  19.755  0.00  0.00    +0.000 C 
ATOM     23  O   UNL     1      -1.874  12.875  19.711  0.00  0.00    +0.000 OA
ENDBRANCH  12  14
ENDBRANCH   9  11
ENDBRANCH   1   9
BRANCH   5  24
ATOM     24  C   UNL     1       6.716   4.296  16.179  0.00  0.00    +0.000 C 
BRANCH  24  25
ATOM     25  C   UNL     1       6.841   4.330  14.669  0.00  0.00    +0.000 A 
ATOM     26  C   UNL     1       7.723   5.224  14.045  0.00  0.00    +0.000 A 
ATOM     27  C   UNL     1       7.810   5.282  12.653  0.00  0.00    +0.000 A 
ATOM     28  C   UNL     1       7.027   4.438  11.864  0.00  0.00    +0.000 A 
ATOM     29  C   UNL     1       6.169   3.526  12.479  0.00  0.00    +0.000 A 
ATOM     30 CL   UNL     1       5.217   2.469  11.508  0.00  0.00    +0.000 Cl
ATOM     31  C   UNL     1       6.075   3.466  13.866  0.00  0.00    +0.000 A 
ENDBRANCH  24  25
ENDBRANCH   5  24
TORSDOF 5
ENDMDL
MODEL 3
REMARK VINA RESULT:      -8.3      3.293      4.191
REMARK  Name = 
REMARK  5 active torsions:
REMARK  status: ('A' for Active; 'I' for Inactive)
REMARK    1  A    between atoms: C_2  and  C_3
REMARK    2  A    between atoms: C_3  and  N_4
REMARK    3  A    between atoms: N_8  and  C_9
REMARK    4  A    between atoms: C_9  and  C_10
REMARK    5  A    between atoms: N_20  and  C_21
REMARK                            x       y       z     vdW  Elec       q    Type
REMARK                         _______ _______ _______ _____ _____    ______ ____
ROOT
ATOM      1  N   UNL     1       3.898   6.080  18.553  0.00  0.00    +0.000 NA
ATOM      2  C   UNL     1       3.084   4.854  18.735  0.00  0.00    +0.000 C 
ATOM      3  C   UNL     1       3.014   4.047  17.453  0.00  0.00    +0.000 C 
ATOM      4  C   UNL     1       4.394   3.591  17.011  0.00  0.00    +0.000 C 
ATOM      5  N   UNL     1       5.291   4.754  16.764  0.00  0.00    +0.000 NA
ATOM      6  S   UNL     1       5.502   5.765  18.122  0.00  0.00    +0.000 S 
ATOM      7  O   UNL     1       6.135   6.988  17.695  0.00  0.00    +0.000 OA
ATOM      8  O   UNL     1       6.075   4.945  19.166  0.00  0.00    +0.000 OA
ENDROOT
BRANCH   1   9
ATOM      9  C   UNL     1       3.243   7.177  17.793  0.00  0.00    +0.000 C 
BRANCH   9  11
ATOM     10  O   UNL     1       2.118   7.814  19.794  0.00  0.00    +0.000 OA
ATOM     11  C   UNL     1       2.244   8.011  18.587  0.00  0.00    +0.000 C 
ATOM     12  N   UNL     1       1.508   8.921  17.837  0.00  0.00    +0.000 N 
ATOM     13  H   UNL     1       1.602   8.848  16.829  0.00  0.00    +0.000 HD
BRANCH  12  14
ATOM     14  C   UNL     1       0.648   9.925  18.347  0.00  0.00    +0.000 A 
ATOM     15  C   UNL     1      -0.710   9.998  18.011  0.00  0.00    +0.000 A 
ATOM     16  C   UNL     1      -1.537  10.986  18.552  0.00  0.00    +0.000 A 
ATOM     17  C   UNL     1      -1.017  11.922  19.435  0.00  0.00    +0.000 A 
ATOM     18  C   UNL     1       0.328  11.849  19.807  0.00  0.00    +0.000 A 
ATOM     19  C   UNL     1       1.160  10.859  19.261  0.00  0.00    +0.000 A 
ATOM     20  O   UNL     1       0.897  12.724  20.700  0.00  0.00    +0.000 OA
ATOM     21  C   UNL     1      -0.101  13.451  21.434  0.00  0.00    +0.000 C 
ATOM     22  C   UNL     1      -1.195  13.962  20.511  0.00  0.00    +0.000 C 
ATOM     23  O   UNL     1      -1.889  12.868  19.904  0.00  0.00    +0.000 OA
ENDBRANCH  12  14
ENDBRANCH   9  11
ENDBRANCH   1   9
BRANCH   5  24
ATOM     24  C   UNL     1       6.635   4.301  16.253  0.00  0.00    +0.000 C 
BRANCH  24  25
ATOM     25  C   UNL     1       6.778   4.330  14.744  0.00  0.00    +0.000 A 
ATOM     26  C   UNL     1       7.693   5.198  14.130  0.00  0.00    +0.000 A 
ATOM     27  C   UNL     1       7.798   5.253  12.739  0.00  0.00    +0.000 A 
ATOM     28  C   UNL     1       6.999   4.432  11.942  0.00  0.00    +0.000 A 
ATOM     29  C   UNL     1       6.109   3.545  12.546  0.00  0.00    +0.000 A 
ATOM     30 CL   UNL     1       5.138   2.515  11.564  0.00  0.00    +0.000 Cl
ATOM     31  C   UNL     1       5.997   3.489  13.932  0.00  0.00    +0.000 A 
ENDBRANCH  24  25
ENDBRANCH   5  24
TORSDOF 5
ENDMDL
MODEL 4
REMARK VINA RESULT:      -8.3      2.806      3.997
REMARK  Name = 
REMARK  5 active torsions:
REMARK  status: ('A' for Active; 'I' for Inactive)
REMARK    1  A    between atoms: C_2  and  C_3
REMARK    2  A    between atoms: C_3  and  N_4
REMARK    3  A    between atoms: N_8  and  C_9
REMARK    4  A    between atoms: C_9  and  C_10
REMARK    5  A    between atoms: N_20  and  C_21
REMARK                            x       y       z     vdW  Elec       q    Type
REMARK                         _______ _______ _______ _____ _____    ______ ____
ROOT
ATOM      1  N   UNL     1       3.197   6.241  18.545  0.00  0.00    +0.000 NA
ATOM      2  C   UNL     1       2.238   5.138  18.789  0.00  0.00    +0.000 C 
ATOM      3  C   UNL     1       2.109   4.242  17.572  0.00  0.00    +0.000 C 
ATOM      4  C   UNL     1       3.436   3.594  17.221  0.00  0.00    +0.000 C 
ATOM      5  N   UNL     1       4.473   4.619  16.920  0.00  0.00    +0.000 NA
ATOM      6  S   UNL     1       4.764   5.706  18.202  0.00  0.00    +0.000 S 
ATOM      7  O   UNL     1       5.551   6.807  17.707  0.00  0.00    +0.000 OA
ATOM      8  O   UNL     1       5.203   4.913  19.328  0.00  0.00    +0.000 OA
ENDROOT
BRANCH   1   9
ATOM      9  C   UNL     1       2.701   7.341  17.677  0.00  0.00    +0.000 C 
BRANCH   9  11
ATOM     10  O   UNL     1       1.377   9.322  17.738  0.00  0.00    +0.000 OA
ATOM     11  C   UNL     1       1.905   8.425  18.394  0.00  0.00    +0.000 C 
ATOM     12  N   UNL     1       1.885   8.322  19.780  0.00  0.00    +0.000 N 
ATOM     13  H   UNL     1       2.507   7.629  20.186  0.00  0.00    +0.000 HD
BRANCH  12  14
ATOM     14  C   UNL     1       1.087   9.088  20.666  0.00  0.00    +0.000 A 
ATOM     15  C   UNL     1       0.443   8.529  21.777  0.00  0.00    +0.000 A 
ATOM     16  C   UNL     1      -0.317   9.318  22.646  0.00  0.00    +0.000 A 
ATOM     17  C   UNL     1      -0.448  10.679  22.413  0.00  0.00    +0.000 A 
ATOM     18  C   UNL     1       0.212  11.263  21.328  0.00  0.00    +0.000 A 
ATOM     19  C   UNL     1       0.971  10.470  20.454  0.00  0.00    +0.000 A 
ATOM     20  O   UNL     1       0.149  12.609  21.062  0.00  0.00    +0.000 OA
ATOM     21  C   UNL     1      -0.352  13.347  22.187  0.00  0.00    +0.000 C 
ATOM     22  C   UNL     1      -1.572  12.667  22.787  0.00  0.00    +0.000 C 
ATOM     23  O   UNL     1      -1.224  11.378  23.300  0.00  0.00    +0.000 OA
ENDBRANCH  12  14
ENDBRANCH   9  11
ENDBRANCH   1   9
BRANCH   5  24
ATOM     24  C   UNL     1       5.768   3.971  16.498  0.00  0.00    +0.000 C 
BRANCH  24  25
ATOM     25  C   UNL     1       6.095   4.116  15.025  0.00  0.00    +0.000 A 
ATOM     26  C   UNL     1       5.328   3.455  14.055  0.00  0.00    +0.000 A 
ATOM     27  C   UNL     1       5.653   3.556  12.700  0.00  0.00    +0.000 A 
ATOM     28  C   UNL     1       6.741   4.332  12.296  0.00  0.00    +0.000 A 
ATOM     29  C   UNL     1       7.489   5.016  13.252  0.00  0.00    +0.000 A 
ATOM     30 CL   UNL     1       8.819   5.990  12.753  0.00  0.00    +0.000 Cl
ATOM     31  C   UNL     1       7.173   4.915  14.604  0.00  0.00    +0.000 A 
ENDBRANCH  24  25
ENDBRANCH   5  24
TORSDOF 5
ENDMDL
MODEL 5
REMARK VINA RESULT:      -8.2      3.101      4.194
REMARK  Name = 
REMARK  5 active torsions:
REMARK  status: ('A' for Active; 'I' for Inactive)
REMARK    1  A    between atoms: C_2  and  C_3
REMARK    2  A    between atoms: C_3  and  N_4
REMARK    3  A    between atoms: N_8  and  C_9
REMARK    4  A    between atoms: C_9  and  C_10
REMARK    5  A    between atoms: N_20  and  C_21
REMARK                            x       y       z     vdW  Elec       q    Type
REMARK                         _______ _______ _______ _____ _____    ______ ____
ROOT
ATOM      1  N   UNL     1       3.580   5.890  18.472  0.00  0.00    +0.000 NA
ATOM      2  C   UNL     1       2.970   4.556  18.690  0.00  0.00    +0.000 C 
ATOM      3  C   UNL     1       3.051   3.704  17.438  0.00  0.00    +0.000 C 
ATOM      4  C   UNL     1       4.493   3.461  17.029  0.00  0.00    +0.000 C 
ATOM      5  N   UNL     1       5.198   4.743  16.750  0.00  0.00    +0.000 NA
ATOM      6  S   UNL     1       5.221   5.821  18.072  0.00  0.00    +0.000 S 
ATOM      7  O   UNL     1       5.658   7.114  17.608  0.00  0.00    +0.000 OA
ATOM      8  O   UNL     1       5.899   5.140  19.152  0.00  0.00    +0.000 OA
ENDROOT
BRANCH   1   9
ATOM      9  C   UNL     1       2.772   6.840  17.665  0.00  0.00    +0.000 C 
BRANCH   9  11
ATOM     10  O   UNL     1       2.262   9.160  17.860  0.00  0.00    +0.000 OA
ATOM     11  C   UNL     1       2.265   8.065  18.419  0.00  0.00    +0.000 C 
ATOM     12  N   UNL     1       1.881   7.829  19.734  0.00  0.00    +0.000 N 
ATOM     13  H   UNL     1       2.102   6.911  20.107  0.00  0.00    +0.000 HD
BRANCH  12  14
ATOM     14  C   UNL     1       1.221   8.746  20.590  0.00  0.00    +0.000 A 
ATOM     15  C   UNL     1       1.008   8.489  21.951  0.00  0.00    +0.000 A 
ATOM     16  C   UNL     1       0.376   9.424  22.774  0.00  0.00    +0.000 A 
ATOM     17  C   UNL     1      -0.059  10.632  22.247  0.00  0.00    +0.000 A 
ATOM     18  C   UNL     1       0.170  10.921  20.899  0.00  0.00    +0.000 A 
ATOM     19  C   UNL     1       0.801   9.980  20.072  0.00  0.00    +0.000 A 
ATOM     20  O   UNL     1      -0.207  12.111  20.324  0.00  0.00    +0.000 OA
ATOM     21  C   UNL     1      -0.518  13.101  21.316  0.00  0.00    +0.000 C 
ATOM     22  C   UNL     1      -1.388  12.518  22.417  0.00  0.00    +0.000 C 
ATOM     23  O   UNL     1      -0.687  11.486  23.115  0.00  0.00    +0.000 OA
ENDBRANCH  12  14
ENDBRANCH   9  11
ENDBRANCH   1   9
BRANCH   5  24
ATOM     24  C   UNL     1       6.605   4.493  16.271  0.00  0.00    +0.000 C 
BRANCH  24  25
ATOM     25  C   UNL     1       6.761   4.453  14.764  0.00  0.00    +0.000 A 
ATOM     26  C   UNL     1       7.706   5.267  14.122  0.00  0.00    +0.000 A 
ATOM     27  C   UNL     1       7.823   5.259  12.730  0.00  0.00    +0.000 A 
ATOM     28  C   UNL     1       7.007   4.427  11.962  0.00  0.00    +0.000 A 
ATOM     29  C   UNL     1       6.087   3.593  12.596  0.00  0.00    +0.000 A 
ATOM     30 CL   UNL     1       5.094   2.550  11.651  0.00  0.00    +0.000 Cl
ATOM     31  C   UNL     1       5.962   3.600  13.982  0.00  0.00    +0.000 A 
ENDBRANCH  24  25
ENDBRANCH   5  24
TORSDOF 5
ENDMDL
MODEL 6
REMARK VINA RESULT:      -8.0      3.177      4.378
REMARK  Name = 
REMARK  5 active torsions:
REMARK  status: ('A' for Active; 'I' for Inactive)
REMARK    1  A    between atoms: C_2  and  C_3
REMARK    2  A    between atoms: C_3  and  N_4
REMARK    3  A    between atoms: N_8  and  C_9
REMARK    4  A    between atoms: C_9  and  C_10
REMARK    5  A    between atoms: N_20  and  C_21
REMARK                            x       y       z     vdW  Elec       q    Type
REMARK                         _______ _______ _______ _____ _____    ______ ____
ROOT
ATOM      1  N   UNL     1       3.207   6.700  18.301  0.00  0.00    +0.000 NA
ATOM      2  C   UNL     1       2.249   5.661  18.749  0.00  0.00    +0.000 C 
ATOM      3  C   UNL     1       2.075   4.584  17.695  0.00  0.00    +0.000 C 
ATOM      4  C   UNL     1       3.386   3.873  17.411  0.00  0.00    +0.000 C 
ATOM      5  N   UNL     1       4.419   4.826  16.917  0.00  0.00    +0.000 NA
ATOM      6  S   UNL     1       4.758   6.100  17.999  0.00  0.00    +0.000 S 
ATOM      7  O   UNL     1       5.536   7.099  17.309  0.00  0.00    +0.000 OA
ATOM      8  O   UNL     1       5.230   5.492  19.223  0.00  0.00    +0.000 OA
ENDROOT
BRANCH   1   9
ATOM      9  C   UNL     1       2.690   7.653  17.284  0.00  0.00    +0.000 C 
BRANCH   9  11
ATOM     10  O   UNL     1       2.717  10.013  17.615  0.00  0.00    +0.000 OA
ATOM     11  C   UNL     1       2.130   8.956  17.842  0.00  0.00    +0.000 C 
ATOM     12  N   UNL     1       0.988   8.820  18.624  0.00  0.00    +0.000 N 
ATOM     13  H   UNL     1       0.720   7.871  18.862  0.00  0.00    +0.000 HD
BRANCH  12  14
ATOM     14  C   UNL     1       0.178   9.875  19.114  0.00  0.00    +0.000 A 
ATOM     15  C   UNL     1      -0.955  10.336  18.432  0.00  0.00    +0.000 A 
ATOM     16  C   UNL     1      -1.748  11.361  18.954  0.00  0.00    +0.000 A 
ATOM     17  C   UNL     1      -1.415  11.946  20.168  0.00  0.00    +0.000 A 
ATOM     18  C   UNL     1      -0.307  11.481  20.880  0.00  0.00    +0.000 A 
ATOM     19  C   UNL     1       0.491  10.454  20.353  0.00  0.00    +0.000 A 
ATOM     20  O   UNL     1       0.057  11.995  22.101  0.00  0.00    +0.000 OA
ATOM     21  C   UNL     1      -1.001  12.773  22.682  0.00  0.00    +0.000 C 
ATOM     22  C   UNL     1      -1.620  13.707  21.655  0.00  0.00    +0.000 C 
ATOM     23  O   UNL     1      -2.232  12.957  20.602  0.00  0.00    +0.000 OA
ENDBRANCH  12  14
ENDBRANCH   9  11
ENDBRANCH   1   9
BRANCH   5  24
ATOM     24  C   UNL     1       5.695   4.104  16.564  0.00  0.00    +0.000 C 
BRANCH  24  25
ATOM     25  C   UNL     1       6.086   4.193  15.102  0.00  0.00    +0.000 A 
ATOM     26  C   UNL     1       7.252   4.869  14.713  0.00  0.00    +0.000 A 
ATOM     27  C   UNL     1       7.592   4.984  13.364  0.00  0.00    +0.000 A 
ATOM     28  C   UNL     1       6.778   4.413  12.384  0.00  0.00    +0.000 A 
ATOM     29  C   UNL     1       5.633   3.714  12.765  0.00  0.00    +0.000 A 
ATOM     30 CL   UNL     1       4.639   2.991  11.558  0.00  0.00    +0.000 Cl
ATOM     31  C   UNL     1       5.286   3.600  14.108  0.00  0.00    +0.000 A 
ENDBRANCH  24  25
ENDBRANCH   5  24
TORSDOF 5
ENDMDL
MODEL 7
REMARK VINA RESULT:      -8.0      2.913      4.162
REMARK  Name = 
REMARK  5 active torsions:
REMARK  status: ('A' for Active; 'I' for Inactive)
REMARK    1  A    between atoms: C_2  and  C_3
REMARK    2  A    between atoms: C_3  and  N_4
REMARK    3  A    between atoms: N_8  and  C_9
REMARK    4  A    between atoms: C_9  and  C_10
REMARK    5  A    between atoms: N_20  and  C_21
REMARK                            x       y       z     vdW  Elec       q    Type
REMARK                         _______ _______ _______ _____ _____    ______ ____
ROOT
ATOM      1  N   UNL     1       3.297   6.721  18.333  0.00  0.00    +0.000 NA
ATOM      2  C   UNL     1       2.330   5.696  18.792  0.00  0.00    +0.000 C 
ATOM      3  C   UNL     1       2.124   4.624  17.739  0.00  0.00    +0.000 C 
ATOM      4  C   UNL     1       3.420   3.894  17.434  0.00  0.00    +0.000 C 
ATOM      5  N   UNL     1       4.460   4.832  16.927  0.00  0.00    +0.000 NA
ATOM      6  S   UNL     1       4.834   6.098  18.007  0.00  0.00    +0.000 S 
ATOM      7  O   UNL     1       5.616   7.087  17.309  0.00  0.00    +0.000 OA
ATOM      8  O   UNL     1       5.314   5.480  19.223  0.00  0.00    +0.000 OA
ENDROOT
BRANCH   1   9
ATOM      9  C   UNL     1       2.779   7.685  17.326  0.00  0.00    +0.000 C 
BRANCH   9  11
ATOM     10  O   UNL     1       2.608  10.054  17.521  0.00  0.00    +0.000 OA
ATOM     11  C   UNL     1       2.180   8.964  17.899  0.00  0.00    +0.000 C 
ATOM     12  N   UNL     1       1.200   8.773  18.867  0.00  0.00    +0.000 N 
ATOM     13  H   UNL     1       1.077   7.821  19.196  0.00  0.00    +0.000 HD
BRANCH  12  14
ATOM     14  C   UNL     1       0.372   9.777  19.428  0.00  0.00    +0.000 A 
ATOM     15  C   UNL     1      -0.544  10.514  18.666  0.00  0.00    +0.000 A 
ATOM     16  C   UNL     1      -1.365  11.479  19.255  0.00  0.00    +0.000 A 
ATOM     17  C   UNL     1      -1.279  11.727  20.617  0.00  0.00    +0.000 A 
ATOM     18  C   UNL     1      -0.394  10.982  21.402  0.00  0.00    +0.000 A 
ATOM     19  C   UNL     1       0.433  10.016  20.810  0.00  0.00    +0.000 A 
ATOM     20  O   UNL     1      -0.284  11.157  22.760  0.00  0.00    +0.000 OA
ATOM     21  C   UNL     1      -1.392  11.901  23.288  0.00  0.00    +0.000 C 
ATOM     22  C   UNL     1      -1.699  13.112  22.422  0.00  0.00    +0.000 C 
ATOM     23  O   UNL     1      -2.103  12.702  21.113  0.00  0.00    +0.000 OA
ENDBRANCH  12  14
ENDBRANCH   9  11
ENDBRANCH   1   9
BRANCH   5  24
ATOM     24  C   UNL     1       5.720   4.092  16.554  0.00  0.00    +0.000 C 
BRANCH  24  25
ATOM     25  C   UNL     1       6.091   4.179  15.087  0.00  0.00    +0.000 A 
ATOM     26  C   UNL     1       5.356   3.475  14.121  0.00  0.00    +0.000 A 
ATOM     27  C   UNL     1       5.722   3.524  12.775  0.00  0.00    +0.000 A 
ATOM     28  C   UNL     1       6.819   4.288  12.372  0.00  0.00    +0.000 A 
ATOM     29  C   UNL     1       7.535   5.014  13.322  0.00  0.00    +0.000 A 
ATOM     30 CL   UNL     1       8.875   5.974  12.824  0.00  0.00    +0.000 Cl
ATOM     31  C   UNL     1       7.179   4.966  14.667  0.00  0.00    +0.000 A 
ENDBRANCH  24  25
ENDBRANCH   5  24
TORSDOF 5
ENDMDL
MODEL 8
REMARK VINA RESULT:      -7.8      3.056      4.030
REMARK  Name = 
REMARK  5 active torsions:
REMARK  status: ('A' for Active; 'I' for Inactive)
REMARK    1  A    between atoms: C_2  and  C_3
REMARK    2  A    between atoms: C_3  and  N_4
REMARK    3  A    between atoms: N_8  and  C_9
REMARK    4  A    between atoms: C_9  and  C_10
REMARK    5  A    between atoms: N_20  and  C_21
REMARK                            x       y       z     vdW  Elec       q    Type
REMARK                         _______ _______ _______ _____ _____    ______ ____
ROOT
ATOM      1  N   UNL     1       3.075   5.932  18.768  0.00  0.00    +0.000 NA
ATOM      2  C   UNL     1       2.029   4.885  18.858  0.00  0.00    +0.000 C 
ATOM      3  C   UNL     1       1.902   4.123  17.553  0.00  0.00    +0.000 C 
ATOM      4  C   UNL     1       3.198   3.414  17.200  0.00  0.00    +0.000 C 
ATOM      5  N   UNL     1       4.319   4.383  17.050  0.00  0.00    +0.000 NA
ATOM      6  S   UNL     1       4.616   5.317  18.447  0.00  0.00    +0.000 S 
ATOM      7  O   UNL     1       5.504   6.399  18.100  0.00  0.00    +0.000 OA
ATOM      8  O   UNL     1       4.939   4.389  19.507  0.00  0.00    +0.000 OA
ENDROOT
BRANCH   1   9
ATOM      9  C   UNL     1       2.703   7.145  17.993  0.00  0.00    +0.000 C 
BRANCH   9  11
ATOM     10  O   UNL     1       1.919   8.126  20.018  0.00  0.00    +0.000 OA
ATOM     11  C   UNL     1       2.041   8.255  18.801  0.00  0.00    +0.000 C 
ATOM     12  N   UNL     1       1.578   9.331  18.053  0.00  0.00    +0.000 N 
ATOM     13  H   UNL     1       1.597   9.217  17.045  0.00  0.00    +0.000 HD
BRANCH  12  14
ATOM     14  C   UNL     1       1.085  10.557  18.567  0.00  0.00    +0.000 A 
ATOM     15  C   UNL     1       1.826  11.746  18.523  0.00  0.00    +0.000 A 
ATOM     16  C   UNL     1       1.301  12.944  19.016  0.00  0.00    +0.000 A 
ATOM     17  C   UNL     1       0.027  12.970  19.566  0.00  0.00    +0.000 A 
ATOM     18  C   UNL     1      -0.740  11.803  19.591  0.00  0.00    +0.000 A 
ATOM     19  C   UNL     1      -0.212  10.599  19.100  0.00  0.00    +0.000 A 
ATOM     20  O   UNL     1      -2.019  11.770  20.092  0.00  0.00    +0.000 OA
ATOM     21  C   UNL     1      -2.563  13.091  20.239  0.00  0.00    +0.000 C 
ATOM     22  C   UNL     1      -1.554  14.028  20.882  0.00  0.00    +0.000 C 
ATOM     23  O   UNL     1      -0.406  14.179  20.043  0.00  0.00    +0.000 OA
ENDBRANCH  12  14
ENDBRANCH   9  11
ENDBRANCH   1   9
BRANCH   5  24
ATOM     24  C   UNL     1       5.585   3.684  16.626  0.00  0.00    +0.000 C 
BRANCH  24  25
ATOM     25  C   UNL     1       6.013   3.965  15.199  0.00  0.00    +0.000 A 
ATOM     26  C   UNL     1       7.129   4.772  14.933  0.00  0.00    +0.000 A 
ATOM     27  C   UNL     1       7.500   5.062  13.619  0.00  0.00    +0.000 A 
ATOM     28  C   UNL     1       6.769   4.539  12.551  0.00  0.00    +0.000 A 
ATOM     29  C   UNL     1       5.677   3.712  12.808  0.00  0.00    +0.000 A 
ATOM     30 CL   UNL     1       4.786   3.048  11.491  0.00  0.00    +0.000 Cl
ATOM     31  C   UNL     1       5.299   3.422  14.116  0.00  0.00    +0.000 A 
ENDBRANCH  24  25
ENDBRANCH   5  24
TORSDOF 5
ENDMDL
MODEL 9
REMARK VINA RESULT:      -7.8      4.929      9.600
REMARK  Name = 
REMARK  5 active torsions:
REMARK  status: ('A' for Active; 'I' for Inactive)
REMARK    1  A    between atoms: C_2  and  C_3
REMARK    2  A    between atoms: C_3  and  N_4
REMARK    3  A    between atoms: N_8  and  C_9
REMARK    4  A    between atoms: C_9  and  C_10
REMARK    5  A    between atoms: N_20  and  C_21
REMARK                            x       y       z     vdW  Elec       q    Type
REMARK                         _______ _______ _______ _____ _____    ______ ____
ROOT
ATOM      1  N   UNL     1       1.248  11.229  19.625  0.00  0.00    +0.000 NA
ATOM      2  C   UNL     1       1.915  12.488  19.214  0.00  0.00    +0.000 C 
ATOM      3  C   UNL     1       1.015  13.320  18.321  0.00  0.00    +0.000 C 
ATOM      4  C   UNL     1      -0.261  13.720  19.043  0.00  0.00    +0.000 C 
ATOM      5  N   UNL     1      -1.033  12.521  19.473  0.00  0.00    +0.000 NA
ATOM      6  S   UNL     1      -0.170  11.478  20.511  0.00  0.00    +0.000 S 
ATOM      7  O   UNL     1      -0.892  10.235  20.623  0.00  0.00    +0.000 OA
ATOM      8  O   UNL     1       0.183  12.252  21.680  0.00  0.00    +0.000 OA
ENDROOT
BRANCH   1   9
ATOM      9  C   UNL     1       1.163  10.177  18.579  0.00  0.00    +0.000 C 
BRANCH   9  11
ATOM     10  O   UNL     1       1.660   8.450  20.144  0.00  0.00    +0.000 OA
ATOM     11  C   UNL     1       1.736   8.821  18.974  0.00  0.00    +0.000 C 
ATOM     12  N   UNL     1       2.357   8.121  17.945  0.00  0.00    +0.000 N 
ATOM     13  H   UNL     1       2.492   8.629  17.077  0.00  0.00    +0.000 HD
BRANCH  12  14
ATOM     14  C   UNL     1       2.813   6.781  18.001  0.00  0.00    +0.000 A 
ATOM     15  C   UNL     1       4.169   6.450  18.121  0.00  0.00    +0.000 A 
ATOM     16  C   UNL     1       4.585   5.118  18.198  0.00  0.00    +0.000 A 
ATOM     17  C   UNL     1       3.649   4.094  18.152  0.00  0.00    +0.000 A 
ATOM     18  C   UNL     1       2.289   4.403  18.064  0.00  0.00    +0.000 A 
ATOM     19  C   UNL     1       1.872   5.740  17.981  0.00  0.00    +0.000 A 
ATOM     20  O   UNL     1       1.312   3.437  18.046  0.00  0.00    +0.000 OA
ATOM     21  C   UNL     1       1.819   2.165  18.474  0.00  0.00    +0.000 C 
ATOM     22  C   UNL     1       3.155   1.859  17.816  0.00  0.00    +0.000 C 
ATOM     23  O   UNL     1       4.140   2.816  18.214  0.00  0.00    +0.000 OA
ENDBRANCH  12  14
ENDBRANCH   9  11
ENDBRANCH   1   9
BRANCH   5  24
ATOM     24  C   UNL     1      -2.334  12.922  20.121  0.00  0.00    +0.000 C 
BRANCH  24  25
ATOM     25  C   UNL     1      -3.567  12.297  19.499  0.00  0.00    +0.000 A 
ATOM     26  C   UNL     1      -3.465  11.521  18.335  0.00  0.00    +0.000 A 
ATOM     27  C   UNL     1      -4.605  10.977  17.740  0.00  0.00    +0.000 A 
ATOM     28  C   UNL     1      -5.863  11.192  18.306  0.00  0.00    +0.000 A 
ATOM     29  C   UNL     1      -5.969  11.938  19.479  0.00  0.00    +0.000 A 
ATOM     30 CL   UNL     1      -7.518  12.185  20.192  0.00  0.00    +0.000 Cl
ATOM     31  C   UNL     1      -4.836  12.486  20.075  0.00  0.00    +0.000 A 
ENDBRANCH  24  25
ENDBRANCH   5  24
TORSDOF 5
ENDMDL
