MODEL 1
REMARK VINA RESULT:      -7.8      0.000      0.000
REMARK  Name = 
REMARK  4 active torsions:
REMARK  status: ('A' for Active; 'I' for Inactive)
REMARK    1  A    between atoms: O_1  and  N_2
REMARK    2  A    between atoms: C_3  and  C_4
REMARK    3  A    between atoms: C_7  and  O_8
REMARK    4  A    between atoms: O_8  and  C_9
REMARK                            x       y       z     vdW  Elec       q    Type
REMARK                         _______ _______ _______ _____ _____    ______ ____
ROOT
ATOM      1  C   UNL     1       3.003   6.791  18.284  0.00  0.00    +0.000 A 
ATOM      2  C   UNL     1       2.799   8.024  17.656  0.00  0.00    +0.000 A 
ATOM      3  C   UNL     1       2.099   9.028  18.328  0.00  0.00    +0.000 A 
ATOM      4  C   UNL     1       1.633   8.760  19.605  0.00  0.00    +0.000 A 
ATOM      5  N   UNL     1       1.873   7.600  20.260  0.00  0.00    +0.000 NA
ATOM      6  C   UNL     1       2.535   6.638  19.580  0.00  0.00    +0.000 A 
ENDROOT
BRANCH   1   8
ATOM      7  N   UNL     1       3.070   4.553  17.531  0.00  0.00    +0.000 NA
ATOM      8  C   UNL     1       3.732   5.665  17.610  0.00  0.00    +0.000 C 
ATOM      9  N   UNL     1       5.008   5.945  17.137  0.00  0.00    +0.000 N 
ATOM     10  C   UNL     1       5.374   5.789  15.724  0.00  0.00    +0.000 C 
ATOM     11  C   UNL     1       6.374   4.644  15.515  0.00  0.00    +0.000 C 
ATOM     12  O   UNL     1       7.521   4.790  16.368  0.00  0.00    +0.000 OA
ATOM     13  C   UNL     1       7.109   4.783  17.745  0.00  0.00    +0.000 C 
ATOM     14  C   UNL     1       6.161   5.953  18.049  0.00  0.00    +0.000 C 
BRANCH   7  15
ATOM     15  O   UNL     1       3.795   3.532  16.918  0.00  0.00    +0.000 OA
ATOM     16  H   UNL     1       3.189   2.771  17.005  0.00  0.00    +0.000 HD
ENDBRANCH   7  15
ENDBRANCH   1   8
BRANCH   4  17
ATOM     17  O   UNL     1       0.839   9.721  20.223  0.00  0.00    +0.000 OA
BRANCH  17  18
ATOM     18  C   UNL     1      -0.037  10.425  19.416  0.00  0.00    +0.000 A 
ATOM     19  C   UNL     1      -1.108   9.799  18.760  0.00  0.00    +0.000 A 
ATOM     20  C   UNL     1      -1.967  10.537  17.950  0.00  0.00    +0.000 A 
ATOM     21 CL   UNL     1      -3.306   9.757  17.200  0.00  0.00    +0.000 Cl
ATOM     22  C   UNL     1      -1.752  11.897  17.748  0.00  0.00    +0.000 A 
ATOM     23  C   UNL     1      -0.668  12.523  18.370  0.00  0.00    +0.000 A 
ATOM     24  C   UNL     1       0.189  11.790  19.200  0.00  0.00    +0.000 A 
ATOM     25 CL   UNL     1       1.509  12.617  19.945  0.00  0.00    +0.000 Cl
ENDBRANCH  17  18
ENDBRANCH   4  17
TORSDOF 4
ENDMDL
MODEL 2
REMARK VINA RESULT:      -7.8      0.606      1.001
REMARK  Name = 
REMARK  4 active torsions:
REMARK  status: ('A' for Active; 'I' for Inactive)
REMARK    1  A    between atoms: O_1  and  N_2
REMARK    2  A    between atoms: C_3  and  C_4
REMARK    3  A    between atoms: C_7  and  O_8
REMARK    4  A    between atoms: O_8  and  C_9
REMARK                            x       y       z     vdW  Elec       q    Type
REMARK                         _______ _______ _______ _____ _____    ______ ____
ROOT
ATOM      1  C   UNL     1       3.054   6.635  18.343  0.00  0.00    +0.000 A 
ATOM      2  C   UNL     1       2.473   6.492  19.607  0.00  0.00    +0.000 A 
ATOM      3  C   UNL     1       1.788   7.569  20.173  0.00  0.00    +0.000 A 
ATOM      4  C   UNL     1       1.707   8.748  19.448  0.00  0.00    +0.000 A 
ATOM      5  N   UNL     1       2.203   8.891  18.197  0.00  0.00    +0.000 NA
ATOM      6  C   UNL     1       2.879   7.840  17.681  0.00  0.00    +0.000 A 
ENDROOT
BRANCH   1   8
ATOM      7  N   UNL     1       3.212   4.375  17.672  0.00  0.00    +0.000 NA
ATOM      8  C   UNL     1       3.818   5.522  17.688  0.00  0.00    +0.000 C 
ATOM      9  N   UNL     1       5.063   5.846  17.163  0.00  0.00    +0.000 N 
ATOM     10  C   UNL     1       5.394   5.654  15.745  0.00  0.00    +0.000 C 
ATOM     11  C   UNL     1       6.443   4.553  15.546  0.00  0.00    +0.000 C 
ATOM     12  O   UNL     1       7.607   4.788  16.355  0.00  0.00    +0.000 OA
ATOM     13  C   UNL     1       7.238   4.814  17.744  0.00  0.00    +0.000 C 
ATOM     14  C   UNL     1       6.243   5.947  18.035  0.00  0.00    +0.000 C 
BRANCH   7  15
ATOM     15  O   UNL     1       3.968   3.369  17.073  0.00  0.00    +0.000 OA
ATOM     16  H   UNL     1       3.932   2.660  17.744  0.00  0.00    +0.000 HD
ENDBRANCH   7  15
ENDBRANCH   1   8
BRANCH   4  17
ATOM     17  O   UNL     1       1.123   9.851  20.063  0.00  0.00    +0.000 OA
BRANCH  17  18
ATOM     18  C   UNL     1       0.144  10.522  19.353  0.00  0.00    +0.000 A 
ATOM     19  C   UNL     1      -0.994   9.866  18.857  0.00  0.00    +0.000 A 
ATOM     20  C   UNL     1      -1.958  10.570  18.141  0.00  0.00    +0.000 A 
ATOM     21 CL   UNL     1      -3.371   9.756  17.593  0.00  0.00    +0.000 Cl
ATOM     22  C   UNL     1      -1.786  11.924  17.870  0.00  0.00    +0.000 A 
ATOM     23  C   UNL     1      -0.640  12.579  18.330  0.00  0.00    +0.000 A 
ATOM     24  C   UNL     1       0.324  11.880  19.067  0.00  0.00    +0.000 A 
ATOM     25 CL   UNL     1       1.718  12.742  19.611  0.00  0.00    +0.000 Cl
ENDBRANCH  17  18
ENDBRANCH   4  17
TORSDOF 4
ENDMDL
MODEL 3
REMARK VINA RESULT:      -7.6      3.545      8.038
REMARK  Name = 
REMARK  4 active torsions:
REMARK  status: ('A' for Active; 'I' for Inactive)
REMARK    1  A    between atoms: O_1  and  N_2
REMARK    2  A    between atoms: C_3  and  C_4
REMARK    3  A    between atoms: C_7  and  O_8
REMARK    4  A    between atoms: O_8  and  C_9
REMARK                            x       y       z     vdW  Elec       q    Type
REMARK                         _______ _______ _______ _____ _____    ______ ____
ROOT
ATOM      1  C   UNL     1       0.527   9.916  18.962  0.00  0.00    +0.000 A 
ATOM      2  C   UNL     1       1.216   9.397  17.861  0.00  0.00    +0.000 A 
ATOM      3  C   UNL     1       2.068   8.304  18.039  0.00  0.00    +0.000 A 
ATOM      4  C   UNL     1       2.193   7.770  19.312  0.00  0.00    +0.000 A 
ATOM      5  N   UNL     1       1.488   8.212  20.379  0.00  0.00    +0.000 NA
ATOM      6  C   UNL     1       0.686   9.282  20.185  0.00  0.00    +0.000 A 
ENDROOT
BRANCH   1   8
ATOM      7  N   UNL     1      -1.231  11.042  17.856  0.00  0.00    +0.000 NA
ATOM      8  C   UNL     1      -0.390  11.098  18.842  0.00  0.00    +0.000 C 
ATOM      9  N   UNL     1      -0.247  12.095  19.799  0.00  0.00    +0.000 N 
ATOM     10  C   UNL     1      -1.352  12.509  20.674  0.00  0.00    +0.000 C 
ATOM     11  C   UNL     1      -1.828  13.933  20.361  0.00  0.00    +0.000 C 
ATOM     12  O   UNL     1      -0.734  14.865  20.378  0.00  0.00    +0.000 OA
ATOM     13  C   UNL     1       0.241  14.489  19.392  0.00  0.00    +0.000 C 
ATOM     14  C   UNL     1       0.822  13.097  19.685  0.00  0.00    +0.000 C 
BRANCH   7  15
ATOM     15  O   UNL     1      -2.045  12.170  17.773  0.00  0.00    +0.000 OA
ATOM     16  H   UNL     1      -2.880  11.793  17.433  0.00  0.00    +0.000 HD
ENDBRANCH   7  15
ENDBRANCH   1   8
BRANCH   4  17
ATOM     17  O   UNL     1       3.128   6.758  19.503  0.00  0.00    +0.000 OA
BRANCH  17  18
ATOM     18  C   UNL     1       2.941   5.587  18.791  0.00  0.00    +0.000 A 
ATOM     19  C   UNL     1       1.945   4.660  19.135  0.00  0.00    +0.000 A 
ATOM     20  C   UNL     1       1.789   3.488  18.400  0.00  0.00    +0.000 A 
ATOM     21 CL   UNL     1       0.524   2.393  18.807  0.00  0.00    +0.000 Cl
ATOM     22  C   UNL     1       2.644   3.200  17.341  0.00  0.00    +0.000 A 
ATOM     23  C   UNL     1       3.660   4.101  17.011  0.00  0.00    +0.000 A 
ATOM     24  C   UNL     1       3.811   5.290  17.735  0.00  0.00    +0.000 A 
ATOM     25 CL   UNL     1       5.083   6.366  17.281  0.00  0.00    +0.000 Cl
ENDBRANCH  17  18
ENDBRANCH   4  17
TORSDOF 4
ENDMDL
MODEL 4
REMARK VINA RESULT:      -7.6      2.484      3.215
REMARK  Name = 
REMARK  4 active torsions:
REMARK  status: ('A' for Active; 'I' for Inactive)
REMARK    1  A    between atoms: O_1  and  N_2
REMARK    2  A    between atoms: C_3  and  C_4
REMARK    3  A    between atoms: C_7  and  O_8
REMARK    4  A    between atoms: O_8  and  C_9
REMARK                            x       y       z     vdW  Elec       q    Type
REMARK                         _______ _______ _______ _____ _____    ______ ____
ROOT
ATOM      1  C   UNL     1       2.377   7.305  19.140  0.00  0.00    +0.000 A 
ATOM      2  C   UNL     1       2.535   8.069  17.979  0.00  0.00    +0.000 A 
ATOM      3  C   UNL     1       1.966   9.343  17.914  0.00  0.00    +0.000 A 
ATOM      4  C   UNL     1       1.264   9.805  19.017  0.00  0.00    +0.000 A 
ATOM      5  N   UNL     1       1.153   9.113  20.175  0.00  0.00    +0.000 NA
ATOM      6  C   UNL     1       1.695   7.876  20.205  0.00  0.00    +0.000 A 
ENDROOT
BRANCH   1   8
ATOM      7  N   UNL     1       4.230   5.876  19.461  0.00  0.00    +0.000 NA
ATOM      8  C   UNL     1       2.949   5.924  19.268  0.00  0.00    +0.000 C 
ATOM      9  N   UNL     1       2.049   4.868  19.183  0.00  0.00    +0.000 N 
ATOM     10  C   UNL     1       1.883   3.888  20.265  0.00  0.00    +0.000 C 
ATOM     11  C   UNL     1       2.384   2.497  19.859  0.00  0.00    +0.000 C 
ATOM     12  O   UNL     1       1.783   2.063  18.627  0.00  0.00    +0.000 OA
ATOM     13  C   UNL     1       2.110   2.986  17.575  0.00  0.00    +0.000 C 
ATOM     14  C   UNL     1       1.571   4.392  17.877  0.00  0.00    +0.000 C 
BRANCH   7  15
ATOM     15  O   UNL     1       4.718   4.573  19.552  0.00  0.00    +0.000 OA
ATOM     16  H   UNL     1       5.252   4.612  20.369  0.00  0.00    +0.000 HD
ENDBRANCH   7  15
ENDBRANCH   1   8
BRANCH   4  17
ATOM     17  O   UNL     1       0.604  11.024  18.904  0.00  0.00    +0.000 OA
BRANCH  17  18
ATOM     18  C   UNL     1      -0.732  10.984  18.546  0.00  0.00    +0.000 A 
ATOM     19  C   UNL     1      -1.168  10.342  17.376  0.00  0.00    +0.000 A 
ATOM     20  C   UNL     1      -2.520  10.327  17.044  0.00  0.00    +0.000 A 
ATOM     21 CL   UNL     1      -3.036   9.485  15.634  0.00  0.00    +0.000 Cl
ATOM     22  C   UNL     1      -3.451  10.982  17.843  0.00  0.00    +0.000 A 
ATOM     23  C   UNL     1      -3.023  11.653  18.992  0.00  0.00    +0.000 A 
ATOM     24  C   UNL     1      -1.667  11.657  19.342  0.00  0.00    +0.000 A 
ATOM     25 CL   UNL     1      -1.196  12.500  20.774  0.00  0.00    +0.000 Cl
ENDBRANCH  17  18
ENDBRANCH   4  17
TORSDOF 4
ENDMDL
MODEL 5
REMARK VINA RESULT:      -7.5      3.381      8.107
REMARK  Name = 
REMARK  4 active torsions:
REMARK  status: ('A' for Active; 'I' for Inactive)
REMARK    1  A    between atoms: O_1  and  N_2
REMARK    2  A    between atoms: C_3  and  C_4
REMARK    3  A    between atoms: C_7  and  O_8
REMARK    4  A    between atoms: O_8  and  C_9
REMARK                            x       y       z     vdW  Elec       q    Type
REMARK                         _______ _______ _______ _____ _____    ______ ____
ROOT
ATOM      1  C   UNL     1       1.486   8.721  19.969  0.00  0.00    +0.000 A 
ATOM      2  C   UNL     1       2.066   8.335  18.756  0.00  0.00    +0.000 A 
ATOM      3  C   UNL     1       2.517   7.023  18.598  0.00  0.00    +0.000 A 
ATOM      4  C   UNL     1       2.366   6.146  19.660  0.00  0.00    +0.000 A 
ATOM      5  N   UNL     1       1.750   6.476  20.820  0.00  0.00    +0.000 NA
ATOM      6  C   UNL     1       1.340   7.757  20.954  0.00  0.00    +0.000 A 
ENDROOT
BRANCH   1   8
ATOM      7  N   UNL     1       0.974  10.487  21.452  0.00  0.00    +0.000 NA
ATOM      8  C   UNL     1       0.997  10.120  20.208  0.00  0.00    +0.000 C 
ATOM      9  N   UNL     1       0.649  10.858  19.083  0.00  0.00    +0.000 N 
ATOM     10  C   UNL     1       1.290  12.137  18.752  0.00  0.00    +0.000 C 
ATOM     11  C   UNL     1       0.320  13.317  18.891  0.00  0.00    +0.000 C 
ATOM     12  O   UNL     1      -0.884  13.095  18.139  0.00  0.00    +0.000 OA
ATOM     13  C   UNL     1      -1.544  11.910  18.615  0.00  0.00    +0.000 C 
ATOM     14  C   UNL     1      -0.658  10.668  18.436  0.00  0.00    +0.000 C 
BRANCH   7  15
ATOM     15  O   UNL     1       0.493  11.784  21.625  0.00  0.00    +0.000 OA
ATOM     16  H   UNL     1       0.566  12.151  20.722  0.00  0.00    +0.000 HD
ENDBRANCH   7  15
ENDBRANCH   1   8
BRANCH   4  17
ATOM     17  O   UNL     1       2.919   4.876  19.539  0.00  0.00    +0.000 OA
BRANCH  17  18
ATOM     18  C   UNL     1       4.087   4.767  18.805  0.00  0.00    +0.000 A 
ATOM     19  C   UNL     1       5.289   5.355  19.231  0.00  0.00    +0.000 A 
ATOM     20  C   UNL     1       6.445   5.231  18.465  0.00  0.00    +0.000 A 
ATOM     21 CL   UNL     1       7.918   5.913  19.036  0.00  0.00    +0.000 Cl
ATOM     22  C   UNL     1       6.415   4.558  17.247  0.00  0.00    +0.000 A 
ATOM     23  C   UNL     1       5.216   3.998  16.798  0.00  0.00    +0.000 A 
ATOM     24  C   UNL     1       4.054   4.104  17.572  0.00  0.00    +0.000 A 
ATOM     25 CL   UNL     1       2.603   3.390  16.968  0.00  0.00    +0.000 Cl
ENDBRANCH  17  18
ENDBRANCH   4  17
TORSDOF 4
ENDMDL
MODEL 6
REMARK VINA RESULT:      -7.5      2.344      3.155
REMARK  Name = 
REMARK  4 active torsions:
REMARK  status: ('A' for Active; 'I' for Inactive)
REMARK    1  A    between atoms: O_1  and  N_2
REMARK    2  A    between atoms: C_3  and  C_4
REMARK    3  A    between atoms: C_7  and  O_8
REMARK    4  A    between atoms: O_8  and  C_9
REMARK                            x       y       z     vdW  Elec       q    Type
REMARK                         _______ _______ _______ _____ _____    ______ ____
ROOT
ATOM      1  C   UNL     1       2.521   7.092  19.170  0.00  0.00    +0.000 A 
ATOM      2  C   UNL     1       1.801   7.563  20.273  0.00  0.00    +0.000 A 
ATOM      3  C   UNL     1       1.178   8.811  20.204  0.00  0.00    +0.000 A 
ATOM      4  C   UNL     1       1.295   9.538  19.030  0.00  0.00    +0.000 A 
ATOM      5  N   UNL     1       1.930   9.077  17.926  0.00  0.00    +0.000 NA
ATOM      6  C   UNL     1       2.540   7.876  18.026  0.00  0.00    +0.000 A 
ENDROOT
BRANCH   1   8
ATOM      7  N   UNL     1       4.522   5.838  19.179  0.00  0.00    +0.000 NA
ATOM      8  C   UNL     1       3.227   5.768  19.186  0.00  0.00    +0.000 C 
ATOM      9  N   UNL     1       2.424   4.635  19.225  0.00  0.00    +0.000 N 
ATOM     10  C   UNL     1       2.517   3.643  20.305  0.00  0.00    +0.000 C 
ATOM     11  C   UNL     1       3.071   2.303  19.805  0.00  0.00    +0.000 C 
ATOM     12  O   UNL     1       2.328   1.818  18.675  0.00  0.00    +0.000 OA
ATOM     13  C   UNL     1       2.404   2.768  17.598  0.00  0.00    +0.000 C 
ATOM     14  C   UNL     1       1.794   4.119  18.002  0.00  0.00    +0.000 C 
BRANCH   7  15
ATOM     15  O   UNL     1       5.133   4.585  19.173  0.00  0.00    +0.000 OA
ATOM     16  H   UNL     1       4.373   3.989  19.025  0.00  0.00    +0.000 HD
ENDBRANCH   7  15
ENDBRANCH   1   8
BRANCH   4  17
ATOM     17  O   UNL     1       0.771  10.826  19.007  0.00  0.00    +0.000 OA
BRANCH  17  18
ATOM     18  C   UNL     1      -0.572  10.953  18.698  0.00  0.00    +0.000 A 
ATOM     19  C   UNL     1      -1.137  10.326  17.575  0.00  0.00    +0.000 A 
ATOM     20  C   UNL     1      -2.491  10.480  17.290  0.00  0.00    +0.000 A 
ATOM     21 CL   UNL     1      -3.172   9.657  15.941  0.00  0.00    +0.000 Cl
ATOM     22  C   UNL     1      -3.293  11.289  18.089  0.00  0.00    +0.000 A 
ATOM     23  C   UNL     1      -2.733  11.944  19.189  0.00  0.00    +0.000 A 
ATOM     24  C   UNL     1      -1.376  11.779  19.492  0.00  0.00    +0.000 A 
ATOM     25 CL   UNL     1      -0.739  12.610  20.865  0.00  0.00    +0.000 Cl
ENDBRANCH  17  18
ENDBRANCH   4  17
TORSDOF 4
ENDMDL
MODEL 7
REMARK VINA RESULT:      -7.5      3.548      8.026
REMARK  Name = 
REMARK  4 active torsions:
REMARK  status: ('A' for Active; 'I' for Inactive)
REMARK    1  A    between atoms: O_1  and  N_2
REMARK    2  A    between atoms: C_3  and  C_4
REMARK    3  A    between atoms: C_7  and  O_8
REMARK    4  A    between atoms: O_8  and  C_9
REMARK                            x       y       z     vdW  Elec       q    Type
REMARK                         _______ _______ _______ _____ _____    ______ ____
ROOT
ATOM      1  C   UNL     1       1.007   9.372  19.330  0.00  0.00    +0.000 A 
ATOM      2  C   UNL     1       1.393   9.311  17.987  0.00  0.00    +0.000 A 
ATOM      3  C   UNL     1       2.272   8.308  17.571  0.00  0.00    +0.000 A 
ATOM      4  C   UNL     1       2.727   7.402  18.516  0.00  0.00    +0.000 A 
ATOM      5  N   UNL     1       2.318   7.399  19.806  0.00  0.00    +0.000 NA
ATOM      6  C   UNL     1       1.484   8.391  20.187  0.00  0.00    +0.000 A 
ENDROOT
BRANCH   1   8
ATOM      7  N   UNL     1      -1.048  10.530  19.211  0.00  0.00    +0.000 NA
ATOM      8  C   UNL     1       0.080  10.434  19.844  0.00  0.00    +0.000 C 
ATOM      9  N   UNL     1       0.522  11.170  20.936  0.00  0.00    +0.000 N 
ATOM     10  C   UNL     1      -0.221  11.223  22.202  0.00  0.00    +0.000 C 
ATOM     11  C   UNL     1      -0.808  12.616  22.464  0.00  0.00    +0.000 C 
ATOM     12  O   UNL     1       0.204  13.633  22.377  0.00  0.00    +0.000 OA
ATOM     13  C   UNL     1       0.788  13.629  21.064  0.00  0.00    +0.000 C 
ATOM     14  C   UNL     1       1.465  12.284  20.759  0.00  0.00    +0.000 C 
BRANCH   7  15
ATOM     15  O   UNL     1      -1.866  11.542  19.710  0.00  0.00    +0.000 OA
ATOM     16  H   UNL     1      -1.912  11.316  20.660  0.00  0.00    +0.000 HD
ENDBRANCH   7  15
ENDBRANCH   1   8
BRANCH   4  17
ATOM     17  O   UNL     1       3.689   6.478  18.120  0.00  0.00    +0.000 OA
BRANCH  17  18
ATOM     18  C   UNL     1       3.516   5.171  18.541  0.00  0.00    +0.000 A 
ATOM     19  C   UNL     1       2.277   4.518  18.441  0.00  0.00    +0.000 A 
ATOM     20  C   UNL     1       2.137   3.204  18.879  0.00  0.00    +0.000 A 
ATOM     21 CL   UNL     1       0.623   2.406  18.695  0.00  0.00    +0.000 Cl
ATOM     22  C   UNL     1       3.210   2.535  19.460  0.00  0.00    +0.000 A 
ATOM     23  C   UNL     1       4.438   3.188  19.595  0.00  0.00    +0.000 A 
ATOM     24  C   UNL     1       4.591   4.503  19.139  0.00  0.00    +0.000 A 
ATOM     25 CL   UNL     1       6.132   5.259  19.330  0.00  0.00    +0.000 Cl
ENDBRANCH  17  18
ENDBRANCH   4  17
TORSDOF 4
ENDMDL
MODEL 8
REMARK VINA RESULT:      -7.5      3.450      8.149
REMARK  Name = 
REMARK  4 active torsions:
REMARK  status: ('A' for Active; 'I' for Inactive)
REMARK    1  A    between atoms: O_1  and  N_2
REMARK    2  A    between atoms: C_3  and  C_4
REMARK    3  A    between atoms: C_7  and  O_8
REMARK    4  A    between atoms: O_8  and  C_9
REMARK                            x       y       z     vdW  Elec       q    Type
REMARK                         _______ _______ _______ _____ _____    ______ ____
ROOT
ATOM      1  C   UNL     1       1.205   9.399  19.920  0.00  0.00    +0.000 A 
ATOM      2  C   UNL     1       1.432   9.556  18.548  0.00  0.00    +0.000 A 
ATOM      3  C   UNL     1       2.083   8.543  17.841  0.00  0.00    +0.000 A 
ATOM      4  C   UNL     1       2.476   7.409  18.534  0.00  0.00    +0.000 A 
ATOM      5  N   UNL     1       2.211   7.204  19.845  0.00  0.00    +0.000 NA
ATOM      6  C   UNL     1       1.598   8.208  20.510  0.00  0.00    +0.000 A 
ENDROOT
BRANCH   1   8
ATOM      7  N   UNL     1       0.557  10.261  22.022  0.00  0.00    +0.000 NA
ATOM      8  C   UNL     1       0.526  10.457  20.740  0.00  0.00    +0.000 C 
ATOM      9  N   UNL     1      -0.033  11.521  20.043  0.00  0.00    +0.000 N 
ATOM     10  C   UNL     1       0.368  12.914  20.280  0.00  0.00    +0.000 C 
ATOM     11  C   UNL     1      -0.758  13.733  20.924  0.00  0.00    +0.000 C 
ATOM     12  O   UNL     1      -1.976  13.632  20.167  0.00  0.00    +0.000 OA
ATOM     13  C   UNL     1      -2.397  12.260  20.101  0.00  0.00    +0.000 C 
ATOM     14  C   UNL     1      -1.346  11.388  19.396  0.00  0.00    +0.000 C 
BRANCH   7  15
ATOM     15  O   UNL     1      -0.102  11.257  22.739  0.00  0.00    +0.000 OA
ATOM     16  H   UNL     1      -0.330  11.897  22.037  0.00  0.00    +0.000 HD
ENDBRANCH   7  15
ENDBRANCH   1   8
BRANCH   4  17
ATOM     17  O   UNL     1       3.224   6.456  17.850  0.00  0.00    +0.000 OA
BRANCH  17  18
ATOM     18  C   UNL     1       3.177   5.158  18.327  0.00  0.00    +0.000 A 
ATOM     19  C   UNL     1       1.997   4.398  18.293  0.00  0.00    +0.000 A 
ATOM     20  C   UNL     1       1.983   3.096  18.788  0.00  0.00    +0.000 A 
ATOM     21 CL   UNL     1       0.540   2.165  18.684  0.00  0.00    +0.000 Cl
ATOM     22  C   UNL     1       3.126   2.547  19.361  0.00  0.00    +0.000 A 
ATOM     23  C   UNL     1       4.297   3.308  19.431  0.00  0.00    +0.000 A 
ATOM     24  C   UNL     1       4.322   4.611  18.918  0.00  0.00    +0.000 A 
ATOM     25 CL   UNL     1       5.797   5.503  19.029  0.00  0.00    +0.000 Cl
ENDBRANCH  17  18
ENDBRANCH   4  17
TORSDOF 4
ENDMDL
MODEL 9
REMARK VINA RESULT:      -7.4      0.879      2.276
REMARK  Name = 
REMARK  4 active torsions:
REMARK  status: ('A' for Active; 'I' for Inactive)
REMARK    1  A    between atoms: O_1  and  N_2
REMARK    2  A    between atoms: C_3  and  C_4
REMARK    3  A    between atoms: C_7  and  O_8
REMARK    4  A    between atoms: O_8  and  C_9
REMARK                            x       y       z     vdW  Elec       q    Type
REMARK                         _______ _______ _______ _____ _____    ______ ____
ROOT
ATOM      1  C   UNL     1       2.920   6.901  18.249  0.00  0.00    +0.000 A 
ATOM      2  C   UNL     1       2.565   8.075  17.577  0.00  0.00    +0.000 A 
ATOM      3  C   UNL     1       1.801   9.039  18.238  0.00  0.00    +0.000 A 
ATOM      4  C   UNL     1       1.426   8.793  19.550  0.00  0.00    +0.000 A 
ATOM      5  N   UNL     1       1.811   7.696  20.243  0.00  0.00    +0.000 NA
ATOM      6  C   UNL     1       2.533   6.770  19.574  0.00  0.00    +0.000 A 
ENDROOT
BRANCH   1   8
ATOM      7  N   UNL     1       3.160   4.652  17.568  0.00  0.00    +0.000 NA
ATOM      8  C   UNL     1       3.725   5.820  17.591  0.00  0.00    +0.000 C 
ATOM      9  N   UNL     1       4.959   6.191  17.070  0.00  0.00    +0.000 N 
ATOM     10  C   UNL     1       5.298   6.017  15.652  0.00  0.00    +0.000 C 
ATOM     11  C   UNL     1       6.387   4.955  15.449  0.00  0.00    +0.000 C 
ATOM     12  O   UNL     1       7.540   5.228  16.262  0.00  0.00    +0.000 OA
ATOM     13  C   UNL     1       7.168   5.234  17.650  0.00  0.00    +0.000 C 
ATOM     14  C   UNL     1       6.132   6.330  17.945  0.00  0.00    +0.000 C 
BRANCH   7  15
ATOM     15  O   UNL     1       3.953   3.677  16.966  0.00  0.00    +0.000 OA
ATOM     16  H   UNL     1       4.544   3.414  17.699  0.00  0.00    +0.000 HD
ENDBRANCH   7  15
ENDBRANCH   1   8
BRANCH   4  17
ATOM     17  O   UNL     1       0.570   9.702  20.163  0.00  0.00    +0.000 OA
BRANCH  17  18
ATOM     18  C   UNL     1       0.497  10.968  19.611  0.00  0.00    +0.000 A 
ATOM     19  C   UNL     1       1.450  11.958  19.897  0.00  0.00    +0.000 A 
ATOM     20  C   UNL     1       1.343  13.225  19.328  0.00  0.00    +0.000 A 
ATOM     21 CL   UNL     1       2.554  14.404  19.651  0.00  0.00    +0.000 Cl
ATOM     22  C   UNL     1       0.269  13.538  18.502  0.00  0.00    +0.000 A 
ATOM     23  C   UNL     1      -0.704  12.570  18.237  0.00  0.00    +0.000 A 
ATOM     24  C   UNL     1      -0.592  11.289  18.791  0.00  0.00    +0.000 A 
ATOM     25 CL   UNL     1      -1.821  10.132  18.428  0.00  0.00    +0.000 Cl
ENDBRANCH  17  18
ENDBRANCH   4  17
TORSDOF 4
ENDMDL
