MODEL 1
REMARK VINA RESULT:      -7.4      0.000      0.000
REMARK  Name = 
REMARK  9 active torsions:
REMARK  status: ('A' for Active; 'I' for Inactive)
REMARK    1  A    between atoms: C_1  and  O_2
REMARK    2  A    between atoms: O_2  and  C_3
REMARK    3  A    between atoms: C_7  and  C_8
REMARK    4  A    between atoms: C_8  and  C_10
REMARK    5  A    between atoms: C_11  and  C_12
REMARK    6  A    between atoms: C_15  and  O_16
REMARK    7  A    between atoms: O_16  and  C_17
REMARK    8  A    between atoms: C_19  and  O_20
REMARK    9  A    between atoms: O_20  and  C_21
REMARK                            x       y       z     vdW  Elec       q    Type
REMARK                         _______ _______ _______ _____ _____    ______ ____
ROOT
ATOM      1  C   UNL     1       5.645   4.644  16.617  0.00  0.00    +0.000 C 
ATOM      2  C   UNL     1       4.553   5.369  16.905  0.00  0.00    +0.000 C 
ENDROOT
BRANCH   2   3
ATOM      3  C   UNL     1       3.580   4.957  17.920  0.00  0.00    +0.000 A 
ATOM      4  C   UNL     1       3.305   3.581  18.012  0.00  0.00    +0.000 A 
ATOM      5  C   UNL     1       2.385   3.089  18.943  0.00  0.00    +0.000 A 
ATOM      6  C   UNL     1       1.723   3.958  19.806  0.00  0.00    +0.000 A 
ATOM      7  C   UNL     1       1.988   5.323  19.718  0.00  0.00    +0.000 A 
ATOM      8  C   UNL     1       2.905   5.840  18.784  0.00  0.00    +0.000 A 
BRANCH   6   9
ATOM      9  O   UNL     1       0.851   3.367  20.679  0.00  0.00    +0.000 OA
ATOM     10  C   UNL     1       1.425   2.587  21.724  0.00  0.00    +0.000 C 
ENDBRANCH   6   9
BRANCH   8  11
ATOM     11  O   UNL     1       2.985   7.204  18.886  0.00  0.00    +0.000 OA
ATOM     12  C   UNL     1       2.247   8.047  18.021  0.00  0.00    +0.000 C 
ENDBRANCH   8  11
ENDBRANCH   2   3
BRANCH   1  13
ATOM     13  C   UNL     1       6.697   5.254  15.756  0.00  0.00    +0.000 C 
ATOM     14  O   UNL     1       7.547   6.015  16.209  0.00  0.00    +0.000 OA
BRANCH  13  19
ATOM     15  C   UNL     1       6.024   3.475  12.470  0.00  0.00    +0.000 A 
ATOM     16  C   UNL     1       7.007   4.065  11.668  0.00  0.00    +0.000 A 
ATOM     17  C   UNL     1       7.863   5.036  12.187  0.00  0.00    +0.000 A 
ATOM     18  C   UNL     1       7.739   5.422  13.520  0.00  0.00    +0.000 A 
ATOM     19  C   UNL     1       6.771   4.823  14.338  0.00  0.00    +0.000 A 
ATOM     20  C   UNL     1       5.902   3.859  13.807  0.00  0.00    +0.000 A 
BRANCH  15  22
ATOM     21  C   UNL     1       4.084   3.019  11.171  0.00  0.00    +0.000 C 
ATOM     22  O   UNL     1       5.251   2.546  11.829  0.00  0.00    +0.000 OA
ENDBRANCH  15  22
ENDBRANCH  13  19
ENDBRANCH   1  13
TORSDOF 6
ENDMDL
MODEL 2
REMARK VINA RESULT:      -7.1      1.890      2.995
REMARK  Name = 
REMARK  9 active torsions:
REMARK  status: ('A' for Active; 'I' for Inactive)
REMARK    1  A    between atoms: C_1  and  O_2
REMARK    2  A    between atoms: O_2  and  C_3
REMARK    3  A    between atoms: C_7  and  C_8
REMARK    4  A    between atoms: C_8  and  C_10
REMARK    5  A    between atoms: C_11  and  C_12
REMARK    6  A    between atoms: C_15  and  O_16
REMARK    7  A    between atoms: O_16  and  C_17
REMARK    8  A    between atoms: C_19  and  O_20
REMARK    9  A    between atoms: O_20  and  C_21
REMARK                            x       y       z     vdW  Elec       q    Type
REMARK                         _______ _______ _______ _____ _____    ______ ____
ROOT
ATOM      1  C   UNL     1       6.462   4.976  14.980  0.00  0.00    +0.000 C 
ATOM      2  C   UNL     1       5.947   3.908  15.608  0.00  0.00    +0.000 C 
ENDROOT
BRANCH   2   3
ATOM      3  C   UNL     1       5.249   4.009  16.892  0.00  0.00    +0.000 A 
ATOM      4  C   UNL     1       3.861   3.782  16.878  0.00  0.00    +0.000 A 
ATOM      5  C   UNL     1       3.104   3.862  18.051  0.00  0.00    +0.000 A 
ATOM      6  C   UNL     1       3.715   4.167  19.264  0.00  0.00    +0.000 A 
ATOM      7  C   UNL     1       5.089   4.395  19.285  0.00  0.00    +0.000 A 
ATOM      8  C   UNL     1       5.869   4.326  18.115  0.00  0.00    +0.000 A 
BRANCH   6   9
ATOM      9  O   UNL     1       2.880   4.212  20.346  0.00  0.00    +0.000 OA
ATOM     10  C   UNL     1       2.482   2.961  20.899  0.00  0.00    +0.000 C 
ENDBRANCH   6   9
BRANCH   8  11
ATOM     11  O   UNL     1       7.183   4.598  18.391  0.00  0.00    +0.000 OA
ATOM     12  C   UNL     1       7.636   5.929  18.555  0.00  0.00    +0.000 C 
ENDBRANCH   8  11
ENDBRANCH   2   3
BRANCH   1  13
ATOM     13  C   UNL     1       6.932   4.817  13.575  0.00  0.00    +0.000 C 
ATOM     14  O   UNL     1       7.939   5.381  13.159  0.00  0.00    +0.000 OA
BRANCH  13  19
ATOM     15  C   UNL     1       6.114   1.828  11.379  0.00  0.00    +0.000 A 
ATOM     16  C   UNL     1       4.782   2.116  11.064  0.00  0.00    +0.000 A 
ATOM     17  C   UNL     1       4.158   3.255  11.572  0.00  0.00    +0.000 A 
ATOM     18  C   UNL     1       4.871   4.119  12.400  0.00  0.00    +0.000 A 
ATOM     19  C   UNL     1       6.212   3.852  12.707  0.00  0.00    +0.000 A 
ATOM     20  C   UNL     1       6.831   2.696  12.207  0.00  0.00    +0.000 A 
BRANCH  15  22
ATOM     21  C   UNL     1       6.056  -0.548  11.301  0.00  0.00    +0.000 C 
ATOM     22  O   UNL     1       6.595   0.676  10.820  0.00  0.00    +0.000 OA
ENDBRANCH  15  22
ENDBRANCH  13  19
ENDBRANCH   1  13
TORSDOF 6
ENDMDL
MODEL 3
REMARK VINA RESULT:      -7.0      1.144      1.354
REMARK  Name = 
REMARK  9 active torsions:
REMARK  status: ('A' for Active; 'I' for Inactive)
REMARK    1  A    between atoms: C_1  and  O_2
REMARK    2  A    between atoms: O_2  and  C_3
REMARK    3  A    between atoms: C_7  and  C_8
REMARK    4  A    between atoms: C_8  and  C_10
REMARK    5  A    between atoms: C_11  and  C_12
REMARK    6  A    between atoms: C_15  and  O_16
REMARK    7  A    between atoms: O_16  and  C_17
REMARK    8  A    between atoms: C_19  and  O_20
REMARK    9  A    between atoms: O_20  and  C_21
REMARK                            x       y       z     vdW  Elec       q    Type
REMARK                         _______ _______ _______ _____ _____    ______ ____
ROOT
ATOM      1  C   UNL     1       5.820   4.420  16.449  0.00  0.00    +0.000 C 
ATOM      2  C   UNL     1       4.619   4.982  16.655  0.00  0.00    +0.000 C 
ENDROOT
BRANCH   2   3
ATOM      3  C   UNL     1       3.717   4.544  17.723  0.00  0.00    +0.000 A 
ATOM      4  C   UNL     1       2.603   3.778  17.337  0.00  0.00    +0.000 A 
ATOM      5  C   UNL     1       1.680   3.318  18.282  0.00  0.00    +0.000 A 
ATOM      6  C   UNL     1       1.850   3.610  19.632  0.00  0.00    +0.000 A 
ATOM      7  C   UNL     1       2.949   4.371  20.021  0.00  0.00    +0.000 A 
ATOM      8  C   UNL     1       3.887   4.849  19.087  0.00  0.00    +0.000 A 
BRANCH   6   9
ATOM      9  O   UNL     1       0.891   3.105  20.466  0.00  0.00    +0.000 OA
ATOM     10  C   UNL     1       1.342   2.564  21.704  0.00  0.00    +0.000 C 
ENDBRANCH   6   9
BRANCH   8  11
ATOM     11  O   UNL     1       4.866   5.576  19.710  0.00  0.00    +0.000 OA
ATOM     12  C   UNL     1       6.237   5.299  19.489  0.00  0.00    +0.000 C 
ENDBRANCH   8  11
ENDBRANCH   2   3
BRANCH   1  13
ATOM     13  C   UNL     1       6.764   5.086  15.507  0.00  0.00    +0.000 C 
ATOM     14  O   UNL     1       7.604   5.893  15.891  0.00  0.00    +0.000 OA
BRANCH  13  19
ATOM     15  C   UNL     1       5.836   3.360  12.254  0.00  0.00    +0.000 A 
ATOM     16  C   UNL     1       6.814   3.893  11.409  0.00  0.00    +0.000 A 
ATOM     17  C   UNL     1       7.749   4.809  11.888  0.00  0.00    +0.000 A 
ATOM     18  C   UNL     1       7.710   5.198  13.225  0.00  0.00    +0.000 A 
ATOM     19  C   UNL     1       6.747   4.656  14.087  0.00  0.00    +0.000 A 
ATOM     20  C   UNL     1       5.798   3.746  13.596  0.00  0.00    +0.000 A 
BRANCH  15  22
ATOM     21  C   UNL     1       3.815   3.025  11.046  0.00  0.00    +0.000 C 
ATOM     22  O   UNL     1       4.980   2.480  11.650  0.00  0.00    +0.000 OA
ENDBRANCH  15  22
ENDBRANCH  13  19
ENDBRANCH   1  13
TORSDOF 6
ENDMDL
MODEL 4
REMARK VINA RESULT:      -6.9      1.851      2.852
REMARK  Name = 
REMARK  9 active torsions:
REMARK  status: ('A' for Active; 'I' for Inactive)
REMARK    1  A    between atoms: C_1  and  O_2
REMARK    2  A    between atoms: O_2  and  C_3
REMARK    3  A    between atoms: C_7  and  C_8
REMARK    4  A    between atoms: C_8  and  C_10
REMARK    5  A    between atoms: C_11  and  C_12
REMARK    6  A    between atoms: C_15  and  O_16
REMARK    7  A    between atoms: O_16  and  C_17
REMARK    8  A    between atoms: C_19  and  O_20
REMARK    9  A    between atoms: O_20  and  C_21
REMARK                            x       y       z     vdW  Elec       q    Type
REMARK                         _______ _______ _______ _____ _____    ______ ____
ROOT
ATOM      1  C   UNL     1       6.434   5.033  14.853  0.00  0.00    +0.000 C 
ATOM      2  C   UNL     1       6.050   3.936  15.524  0.00  0.00    +0.000 C 
ENDROOT
BRANCH   2   3
ATOM      3  C   UNL     1       5.289   4.004  16.774  0.00  0.00    +0.000 A 
ATOM      4  C   UNL     1       3.901   3.799  16.682  0.00  0.00    +0.000 A 
ATOM      5  C   UNL     1       3.087   3.850  17.817  0.00  0.00    +0.000 A 
ATOM      6  C   UNL     1       3.639   4.103  19.069  0.00  0.00    +0.000 A 
ATOM      7  C   UNL     1       5.013   4.309  19.168  0.00  0.00    +0.000 A 
ATOM      8  C   UNL     1       5.851   4.268  18.037  0.00  0.00    +0.000 A 
BRANCH   6   9
ATOM      9  O   UNL     1       2.750   4.124  20.109  0.00  0.00    +0.000 OA
ATOM     10  C   UNL     1       2.698   2.959  20.928  0.00  0.00    +0.000 C 
ENDBRANCH   6   9
BRANCH   8  11
ATOM     11  O   UNL     1       7.152   4.510  18.388  0.00  0.00    +0.000 OA
ATOM     12  C   UNL     1       7.613   5.827  18.628  0.00  0.00    +0.000 C 
ENDBRANCH   8  11
ENDBRANCH   2   3
BRANCH   1  13
ATOM     13  C   UNL     1       6.983   4.869  13.477  0.00  0.00    +0.000 C 
ATOM     14  O   UNL     1       7.982   5.473  13.100  0.00  0.00    +0.000 OA
BRANCH  13  19
ATOM     15  C   UNL     1       4.480   2.976  11.338  0.00  0.00    +0.000 A 
ATOM     16  C   UNL     1       5.263   1.880  10.961  0.00  0.00    +0.000 A 
ATOM     17  C   UNL     1       6.587   1.770  11.384  0.00  0.00    +0.000 A 
ATOM     18  C   UNL     1       7.137   2.761  12.194  0.00  0.00    +0.000 A 
ATOM     19  C   UNL     1       6.356   3.853  12.595  0.00  0.00    +0.000 A 
ATOM     20  C   UNL     1       5.030   3.969  12.154  0.00  0.00    +0.000 A 
BRANCH  15  22
ATOM     21  C   UNL     1       2.914   3.850   9.777  0.00  0.00    +0.000 C 
ATOM     22  O   UNL     1       3.204   2.960  10.845  0.00  0.00    +0.000 OA
ENDBRANCH  15  22
ENDBRANCH  13  19
ENDBRANCH   1  13
TORSDOF 6
ENDMDL
MODEL 5
REMARK VINA RESULT:      -6.9      5.708      8.317
REMARK  Name = 
REMARK  9 active torsions:
REMARK  status: ('A' for Active; 'I' for Inactive)
REMARK    1  A    between atoms: C_1  and  O_2
REMARK    2  A    between atoms: O_2  and  C_3
REMARK    3  A    between atoms: C_7  and  C_8
REMARK    4  A    between atoms: C_8  and  C_10
REMARK    5  A    between atoms: C_11  and  C_12
REMARK    6  A    between atoms: C_15  and  O_16
REMARK    7  A    between atoms: O_16  and  C_17
REMARK    8  A    between atoms: C_19  and  O_20
REMARK    9  A    between atoms: O_20  and  C_21
REMARK                            x       y       z     vdW  Elec       q    Type
REMARK                         _______ _______ _______ _____ _____    ______ ____
ROOT
ATOM      1  C   UNL     1       7.963   7.982  18.085  0.00  0.00    +0.000 C 
ATOM      2  C   UNL     1       7.869   9.260  17.687  0.00  0.00    +0.000 C 
ENDROOT
BRANCH   2   3
ATOM      3  C   UNL     1       8.626  10.341  18.324  0.00  0.00    +0.000 A 
ATOM      4  C   UNL     1       9.529   9.969  19.336  0.00  0.00    +0.000 A 
ATOM      5  C   UNL     1      10.293  10.928  20.009  0.00  0.00    +0.000 A 
ATOM      6  C   UNL     1      10.175  12.276  19.686  0.00  0.00    +0.000 A 
ATOM      7  C   UNL     1       9.280  12.651  18.687  0.00  0.00    +0.000 A 
ATOM      8  C   UNL     1       8.497  11.704  18.001  0.00  0.00    +0.000 A 
BRANCH   6   9
ATOM      9  O   UNL     1      10.974  13.124  20.404  0.00  0.00    +0.000 OA
ATOM     10  C   UNL     1      11.019  14.480  19.970  0.00  0.00    +0.000 C 
ENDBRANCH   6   9
BRANCH   8  11
ATOM     11  O   UNL     1       7.693  12.317  17.077  0.00  0.00    +0.000 OA
ATOM     12  C   UNL     1       7.171  13.613  17.305  0.00  0.00    +0.000 C 
ENDBRANCH   8  11
ENDBRANCH   2   3
BRANCH   1  13
ATOM     13  C   UNL     1       7.353   6.925  17.229  0.00  0.00    +0.000 C 
ATOM     14  O   UNL     1       7.859   6.575  16.168  0.00  0.00    +0.000 OA
BRANCH  13  19
ATOM     15  C   UNL     1       5.129   4.378  18.959  0.00  0.00    +0.000 A 
ATOM     16  C   UNL     1       3.872   4.920  18.673  0.00  0.00    +0.000 A 
ATOM     17  C   UNL     1       3.753   6.102  17.944  0.00  0.00    +0.000 A 
ATOM     18  C   UNL     1       4.900   6.750  17.492  0.00  0.00    +0.000 A 
ATOM     19  C   UNL     1       6.165   6.206  17.754  0.00  0.00    +0.000 A 
ATOM     20  C   UNL     1       6.280   5.026  18.503  0.00  0.00    +0.000 A 
BRANCH  15  22
ATOM     21  C   UNL     1       3.867   2.510  19.718  0.00  0.00    +0.000 C 
ATOM     22  O   UNL     1       5.097   3.222  19.689  0.00  0.00    +0.000 OA
ENDBRANCH  15  22
ENDBRANCH  13  19
ENDBRANCH   1  13
TORSDOF 6
ENDMDL
MODEL 6
REMARK VINA RESULT:      -6.7      2.962      5.802
REMARK  Name = 
REMARK  9 active torsions:
REMARK  status: ('A' for Active; 'I' for Inactive)
REMARK    1  A    between atoms: C_1  and  O_2
REMARK    2  A    between atoms: O_2  and  C_3
REMARK    3  A    between atoms: C_7  and  C_8
REMARK    4  A    between atoms: C_8  and  C_10
REMARK    5  A    between atoms: C_11  and  C_12
REMARK    6  A    between atoms: C_15  and  O_16
REMARK    7  A    between atoms: O_16  and  C_17
REMARK    8  A    between atoms: C_19  and  O_20
REMARK    9  A    between atoms: O_20  and  C_21
REMARK                            x       y       z     vdW  Elec       q    Type
REMARK                         _______ _______ _______ _____ _____    ______ ____
ROOT
ATOM      1  C   UNL     1       2.426   6.463  18.019  0.00  0.00    +0.000 C 
ATOM      2  C   UNL     1       2.466   7.286  19.078  0.00  0.00    +0.000 C 
ENDROOT
BRANCH   2   3
ATOM      3  C   UNL     1       1.564   8.432  19.220  0.00  0.00    +0.000 A 
ATOM      4  C   UNL     1       1.204   9.103  18.038  0.00  0.00    +0.000 A 
ATOM      5  C   UNL     1       0.353  10.213  18.069  0.00  0.00    +0.000 A 
ATOM      6  C   UNL     1      -0.160  10.674  19.277  0.00  0.00    +0.000 A 
ATOM      7  C   UNL     1       0.195  10.015  20.452  0.00  0.00    +0.000 A 
ATOM      8  C   UNL     1       1.054   8.900  20.445  0.00  0.00    +0.000 A 
BRANCH   6   9
ATOM      9  O   UNL     1      -0.985  11.761  19.188  0.00  0.00    +0.000 OA
ATOM     10  C   UNL     1      -1.600  11.994  17.924  0.00  0.00    +0.000 C 
ENDBRANCH   6   9
BRANCH   8  11
ATOM     11  O   UNL     1       1.259   8.437  21.718  0.00  0.00    +0.000 OA
ATOM     12  C   UNL     1       1.119   9.289  22.839  0.00  0.00    +0.000 C 
ENDBRANCH   8  11
ENDBRANCH   2   3
BRANCH   1  13
ATOM     13  C   UNL     1       3.204   5.193  18.075  0.00  0.00    +0.000 C 
ATOM     14  O   UNL     1       2.784   4.198  18.656  0.00  0.00    +0.000 OA
BRANCH  13  19
ATOM     15  C   UNL     1       6.586   6.037  16.567  0.00  0.00    +0.000 A 
ATOM     16  C   UNL     1       6.798   4.893  15.790  0.00  0.00    +0.000 A 
ATOM     17  C   UNL     1       5.862   3.860  15.771  0.00  0.00    +0.000 A 
ATOM     18  C   UNL     1       4.701   3.969  16.534  0.00  0.00    +0.000 A 
ATOM     19  C   UNL     1       4.468   5.119  17.300  0.00  0.00    +0.000 A 
ATOM     20  C   UNL     1       5.420   6.148  17.329  0.00  0.00    +0.000 A 
BRANCH  15  22
ATOM     21  C   UNL     1       7.828   7.746  17.660  0.00  0.00    +0.000 C 
ATOM     22  O   UNL     1       7.589   6.965  16.497  0.00  0.00    +0.000 OA
ENDBRANCH  15  22
ENDBRANCH  13  19
ENDBRANCH   1  13
TORSDOF 6
ENDMDL
MODEL 7
REMARK VINA RESULT:      -6.7      2.879      5.328
REMARK  Name = 
REMARK  9 active torsions:
REMARK  status: ('A' for Active; 'I' for Inactive)
REMARK    1  A    between atoms: C_1  and  O_2
REMARK    2  A    between atoms: O_2  and  C_3
REMARK    3  A    between atoms: C_7  and  C_8
REMARK    4  A    between atoms: C_8  and  C_10
REMARK    5  A    between atoms: C_11  and  C_12
REMARK    6  A    between atoms: C_15  and  O_16
REMARK    7  A    between atoms: O_16  and  C_17
REMARK    8  A    between atoms: C_19  and  O_20
REMARK    9  A    between atoms: O_20  and  C_21
REMARK                            x       y       z     vdW  Elec       q    Type
REMARK                         _______ _______ _______ _____ _____    ______ ____
ROOT
ATOM      1  C   UNL     1       2.442   5.677  18.932  0.00  0.00    +0.000 C 
ATOM      2  C   UNL     1       2.360   6.974  18.599  0.00  0.00    +0.000 C 
ENDROOT
BRANCH   2   3
ATOM      3  C   UNL     1       1.813   7.987  19.505  0.00  0.00    +0.000 A 
ATOM      4  C   UNL     1       1.533   7.574  20.820  0.00  0.00    +0.000 A 
ATOM      5  C   UNL     1       1.003   8.465  21.759  0.00  0.00    +0.000 A 
ATOM      6  C   UNL     1       0.743   9.786  21.408  0.00  0.00    +0.000 A 
ATOM      7  C   UNL     1       1.015  10.201  20.106  0.00  0.00    +0.000 A 
ATOM      8  C   UNL     1       1.544   9.320  19.144  0.00  0.00    +0.000 A 
BRANCH   6   9
ATOM      9  O   UNL     1       0.231  10.568  22.406  0.00  0.00    +0.000 OA
ATOM     10  C   UNL     1      -0.470  11.741  22.002  0.00  0.00    +0.000 C 
ENDBRANCH   6   9
BRANCH   8  11
ATOM     11  O   UNL     1       1.713   9.958  17.944  0.00  0.00    +0.000 OA
ATOM     12  C   UNL     1       2.188  11.290  17.883  0.00  0.00    +0.000 C 
ENDBRANCH   8  11
ENDBRANCH   2   3
BRANCH   1  13
ATOM     13  C   UNL     1       3.231   4.766  18.055  0.00  0.00    +0.000 C 
ATOM     14  O   UNL     1       2.693   3.954  17.309  0.00  0.00    +0.000 OA
BRANCH  13  19
ATOM     15  C   UNL     1       6.830   4.923  16.852  0.00  0.00    +0.000 A 
ATOM     16  C   UNL     1       7.468   5.284  18.043  0.00  0.00    +0.000 A 
ATOM     17  C   UNL     1       6.736   5.488  19.212  0.00  0.00    +0.000 A 
ATOM     18  C   UNL     1       5.353   5.328  19.194  0.00  0.00    +0.000 A 
ATOM     19  C   UNL     1       4.704   4.946  18.012  0.00  0.00    +0.000 A 
ATOM     20  C   UNL     1       5.442   4.758  16.835  0.00  0.00    +0.000 A 
BRANCH  15  22
ATOM     21  C   UNL     1       7.090   4.859  14.489  0.00  0.00    +0.000 C 
ATOM     22  O   UNL     1       7.669   4.764  15.783  0.00  0.00    +0.000 OA
ENDBRANCH  15  22
ENDBRANCH  13  19
ENDBRANCH   1  13
TORSDOF 6
ENDMDL
MODEL 8
REMARK VINA RESULT:      -6.6      2.803      5.624
REMARK  Name = 
REMARK  9 active torsions:
REMARK  status: ('A' for Active; 'I' for Inactive)
REMARK    1  A    between atoms: C_1  and  O_2
REMARK    2  A    between atoms: O_2  and  C_3
REMARK    3  A    between atoms: C_7  and  C_8
REMARK    4  A    between atoms: C_8  and  C_10
REMARK    5  A    between atoms: C_11  and  C_12
REMARK    6  A    between atoms: C_15  and  O_16
REMARK    7  A    between atoms: O_16  and  C_17
REMARK    8  A    between atoms: C_19  and  O_20
REMARK    9  A    between atoms: O_20  and  C_21
REMARK                            x       y       z     vdW  Elec       q    Type
REMARK                         _______ _______ _______ _____ _____    ______ ____
ROOT
ATOM      1  C   UNL     1       2.409   5.982  18.277  0.00  0.00    +0.000 C 
ATOM      2  C   UNL     1       2.759   7.176  18.778  0.00  0.00    +0.000 C 
ENDROOT
BRANCH   2   3
ATOM      3  C   UNL     1       1.807   8.280  18.921  0.00  0.00    +0.000 A 
ATOM      4  C   UNL     1       1.426   8.944  17.742  0.00  0.00    +0.000 A 
ATOM      5  C   UNL     1       0.527  10.015  17.774  0.00  0.00    +0.000 A 
ATOM      6  C   UNL     1      -0.012  10.446  18.983  0.00  0.00    +0.000 A 
ATOM      7  C   UNL     1       0.364   9.794  20.155  0.00  0.00    +0.000 A 
ATOM      8  C   UNL     1       1.271   8.718  20.147  0.00  0.00    +0.000 A 
BRANCH   6   9
ATOM      9  O   UNL     1      -0.884  11.496  18.895  0.00  0.00    +0.000 OA
ATOM     10  C   UNL     1      -1.091  12.254  20.084  0.00  0.00    +0.000 C 
ENDBRANCH   6   9
BRANCH   8  11
ATOM     11  O   UNL     1       1.487   8.255  21.417  0.00  0.00    +0.000 OA
ATOM     12  C   UNL     1       1.257   9.078  22.546  0.00  0.00    +0.000 C 
ENDBRANCH   8  11
ENDBRANCH   2   3
BRANCH   1  13
ATOM     13  C   UNL     1       3.372   4.850  18.396  0.00  0.00    +0.000 C 
ATOM     14  O   UNL     1       2.999   3.696  18.577  0.00  0.00    +0.000 OA
BRANCH  13  19
ATOM     15  C   UNL     1       6.707   5.552  16.722  0.00  0.00    +0.000 A 
ATOM     16  C   UNL     1       7.530   5.646  17.849  0.00  0.00    +0.000 A 
ATOM     17  C   UNL     1       7.003   5.498  19.131  0.00  0.00    +0.000 A 
ATOM     18  C   UNL     1       5.641   5.252  19.292  0.00  0.00    +0.000 A 
ATOM     19  C   UNL     1       4.810   5.136  18.170  0.00  0.00    +0.000 A 
ATOM     20  C   UNL     1       5.342   5.302  16.882  0.00  0.00    +0.000 A 
BRANCH  15  22
ATOM     21  C   UNL     1       6.983   4.865  14.461  0.00  0.00    +0.000 C 
ATOM     22  O   UNL     1       7.355   5.726  15.529  0.00  0.00    +0.000 OA
ENDBRANCH  15  22
ENDBRANCH  13  19
ENDBRANCH   1  13
TORSDOF 6
ENDMDL
MODEL 9
REMARK VINA RESULT:      -6.6      2.657      5.375
REMARK  Name = 
REMARK  9 active torsions:
REMARK  status: ('A' for Active; 'I' for Inactive)
REMARK    1  A    between atoms: C_1  and  O_2
REMARK    2  A    between atoms: O_2  and  C_3
REMARK    3  A    between atoms: C_7  and  C_8
REMARK    4  A    between atoms: C_8  and  C_10
REMARK    5  A    between atoms: C_11  and  C_12
REMARK    6  A    between atoms: C_15  and  O_16
REMARK    7  A    between atoms: O_16  and  C_17
REMARK    8  A    between atoms: C_19  and  O_20
REMARK    9  A    between atoms: O_20  and  C_21
REMARK                            x       y       z     vdW  Elec       q    Type
REMARK                         _______ _______ _______ _____ _____    ______ ____
ROOT
ATOM      1  C   UNL     1       2.401   5.308  17.634  0.00  0.00    +0.000 C 
ATOM      2  C   UNL     1       3.029   6.390  18.119  0.00  0.00    +0.000 C 
ENDROOT
BRANCH   2   3
ATOM      3  C   UNL     1       2.307   7.551  18.644  0.00  0.00    +0.000 A 
ATOM      4  C   UNL     1       2.083   8.614  17.752  0.00  0.00    +0.000 A 
ATOM      5  C   UNL     1       1.409   9.770  18.159  0.00  0.00    +0.000 A 
ATOM      6  C   UNL     1       0.940   9.888  19.464  0.00  0.00    +0.000 A 
ATOM      7  C   UNL     1       1.161   8.840  20.354  0.00  0.00    +0.000 A 
ATOM      8  C   UNL     1       1.842   7.671  19.967  0.00  0.00    +0.000 A 
BRANCH   6   9
ATOM      9  O   UNL     1       0.290  11.058  19.750  0.00  0.00    +0.000 OA
ATOM     10  C   UNL     1       1.101  12.221  19.886  0.00  0.00    +0.000 C 
ENDBRANCH   6   9
BRANCH   8  11
ATOM     11  O   UNL     1       1.942   6.797  21.017  0.00  0.00    +0.000 OA
ATOM     12  C   UNL     1       1.516   5.452  20.892  0.00  0.00    +0.000 C 
ENDBRANCH   8  11
ENDBRANCH   2   3
BRANCH   1  13
ATOM     13  C   UNL     1       3.206   4.086  17.351  0.00  0.00    +0.000 C 
ATOM     14  O   UNL     1       2.696   2.971  17.296  0.00  0.00    +0.000 OA
BRANCH  13  19
ATOM     15  C   UNL     1       6.965   4.544  17.636  0.00  0.00    +0.000 A 
ATOM     16  C   UNL     1       7.304   4.611  16.280  0.00  0.00    +0.000 A 
ATOM     17  C   UNL     1       6.327   4.494  15.293  0.00  0.00    +0.000 A 
ATOM     18  C   UNL     1       4.996   4.309  15.660  0.00  0.00    +0.000 A 
ATOM     19  C   UNL     1       4.641   4.261  17.015  0.00  0.00    +0.000 A 
ATOM     20  C   UNL     1       5.629   4.363  18.005  0.00  0.00    +0.000 A 
BRANCH  15  22
ATOM     21  C   UNL     1       7.955   5.707  19.459  0.00  0.00    +0.000 C 
ATOM     22  O   UNL     1       8.023   4.666  18.494  0.00  0.00    +0.000 OA
ENDBRANCH  15  22
ENDBRANCH  13  19
ENDBRANCH   1  13
TORSDOF 6
ENDMDL
