MODEL 1
REMARK VINA RESULT:      -7.7      0.000      0.000
REMARK  Name = 
REMARK  8 active torsions:
REMARK  status: ('A' for Active; 'I' for Inactive)
REMARK    1  A    between atoms: C_1  and  O_2
REMARK    2  A    between atoms: O_2  and  C_3
REMARK    3  A    between atoms: C_6  and  N_7
REMARK    4  A    between atoms: C_8  and  C_10
REMARK    5  A    between atoms: C_10  and  C_12
REMARK    6  A    between atoms: N_14  and  C_15
REMARK    7  A    between atoms: C_15  and  C_16
REMARK    8  A    between atoms: C_15  and  C_17
REMARK                            x       y       z     vdW  Elec       q    Type
REMARK                         _______ _______ _______ _____ _____    ______ ____
ROOT
ATOM      1  C   UNL     1       2.066   8.770  18.124  0.00  0.00    +0.000 C 
ATOM      2  O   UNL     1       2.526   9.500  17.246  0.00  0.00    +0.000 OA
ENDROOT
BRANCH   1   3
ATOM      3  C   UNL     1       2.738   7.485  18.424  0.00  0.00    +0.000 A 
ATOM      4  C   UNL     1       2.390   6.808  19.604  0.00  0.00    +0.000 A 
ATOM      5  N   UNL     1       2.795   5.503  19.404  0.00  0.00    +0.000 N 
ATOM      6  C   UNL     1       4.049   5.691  18.845  0.00  0.00    +0.000 A 
ATOM      7  C   UNL     1       5.252   5.022  19.018  0.00  0.00    +0.000 A 
ATOM      8  C   UNL     1       6.145   5.242  17.992  0.00  0.00    +0.000 A 
ATOM      9  N   UNL     1       5.859   5.948  16.869  0.00  0.00    +0.000 NA
ATOM     10  C   UNL     1       4.699   6.672  16.791  0.00  0.00    +0.000 A 
ATOM     11  C   UNL     1       3.822   6.686  17.878  0.00  0.00    +0.000 A 
BRANCH   5  12
ATOM     12  C   UNL     1       1.855   4.531  18.773  0.00  0.00    +0.000 C 
ATOM     13  C   UNL     1       2.515   3.587  17.764  0.00  0.00    +0.000 C 
ATOM     14  C   UNL     1       1.022   3.757  19.795  0.00  0.00    +0.000 C 
ENDBRANCH   5  12
ENDBRANCH   1   3
BRANCH   1  16
ATOM     15  N   UNL     1      -0.130   9.762  17.852  0.00  0.00    +0.000 N 
ATOM     16  C   UNL     1       0.825   9.354  18.806  0.00  0.00    +0.000 C 
ATOM     17  O   UNL     1       0.749   9.458  20.022  0.00  0.00    +0.000 OA
ATOM     18  H   UNL     1       0.169   9.581  16.888  0.00  0.00    +0.000 HD
BRANCH  15  22
ATOM     19  C   UNL     1      -3.813  11.648  18.484  0.00  0.00    +0.000 A 
ATOM     20  C   UNL     1      -3.792  10.508  17.693  0.00  0.00    +0.000 A 
ATOM     21  C   UNL     1      -2.575   9.851  17.468  0.00  0.00    +0.000 A 
ATOM     22  C   UNL     1      -1.406  10.342  18.040  0.00  0.00    +0.000 A 
ATOM     23  C   UNL     1      -1.544  11.486  18.837  0.00  0.00    +0.000 A 
ATOM     24  N   UNL     1      -2.713  12.153  19.071  0.00  0.00    +0.000 NA
BRANCH  19  26
ATOM     25  C   UNL     1      -5.501  12.321  19.992  0.00  0.00    +0.000 C 
ATOM     26  O   UNL     1      -5.045  12.258  18.645  0.00  0.00    +0.000 OA
ENDBRANCH  19  26
ENDBRANCH  15  22
ENDBRANCH   1  16
TORSDOF 5
ENDMDL
MODEL 2
REMARK VINA RESULT:      -7.7      3.341      4.186
REMARK  Name = 
REMARK  8 active torsions:
REMARK  status: ('A' for Active; 'I' for Inactive)
REMARK    1  A    between atoms: C_1  and  O_2
REMARK    2  A    between atoms: O_2  and  C_3
REMARK    3  A    between atoms: C_6  and  N_7
REMARK    4  A    between atoms: C_8  and  C_10
REMARK    5  A    between atoms: C_10  and  C_12
REMARK    6  A    between atoms: N_14  and  C_15
REMARK    7  A    between atoms: C_15  and  C_16
REMARK    8  A    between atoms: C_15  and  C_17
REMARK                            x       y       z     vdW  Elec       q    Type
REMARK                         _______ _______ _______ _____ _____    ______ ____
ROOT
ATOM      1  C   UNL     1       2.700   6.941  18.409  0.00  0.00    +0.000 C 
ATOM      2  O   UNL     1       3.731   7.193  17.785  0.00  0.00    +0.000 OA
ENDROOT
BRANCH   1   3
ATOM      3  C   UNL     1       2.327   5.528  18.653  0.00  0.00    +0.000 A 
ATOM      4  C   UNL     1       1.662   4.826  17.635  0.00  0.00    +0.000 A 
ATOM      5  N   UNL     1       1.848   3.491  17.936  0.00  0.00    +0.000 N 
ATOM      6  C   UNL     1       1.605   3.485  19.301  0.00  0.00    +0.000 A 
ATOM      7  C   UNL     1       0.940   2.585  20.121  0.00  0.00    +0.000 A 
ATOM      8  C   UNL     1       1.270   2.721  21.451  0.00  0.00    +0.000 A 
ATOM      9  N   UNL     1       2.221   3.568  21.920  0.00  0.00    +0.000 NA
ATOM     10  C   UNL     1       2.774   4.505  21.087  0.00  0.00    +0.000 A 
ATOM     11  C   UNL     1       2.343   4.589  19.762  0.00  0.00    +0.000 A 
BRANCH   5  12
ATOM     12  C   UNL     1       3.048   2.779  17.407  0.00  0.00    +0.000 C 
ATOM     13  C   UNL     1       4.184   3.707  16.967  0.00  0.00    +0.000 C 
ATOM     14  C   UNL     1       3.556   1.688  18.350  0.00  0.00    +0.000 C 
ENDBRANCH   5  12
ENDBRANCH   1   3
BRANCH   1  16
ATOM     15  N   UNL     1       1.601   8.102  20.232  0.00  0.00    +0.000 N 
ATOM     16  C   UNL     1       1.950   8.194  18.869  0.00  0.00    +0.000 C 
ATOM     17  O   UNL     1       1.687   9.106  18.097  0.00  0.00    +0.000 OA
ATOM     18  H   UNL     1       1.923   7.231  20.667  0.00  0.00    +0.000 HD
BRANCH  15  22
ATOM     19  C   UNL     1      -0.377  10.984  22.536  0.00  0.00    +0.000 A 
ATOM     20  C   UNL     1      -0.631   9.647  22.806  0.00  0.00    +0.000 A 
ATOM     21  C   UNL     1       0.020   8.658  22.055  0.00  0.00    +0.000 A 
ATOM     22  C   UNL     1       0.914   9.025  21.056  0.00  0.00    +0.000 A 
ATOM     23  C   UNL     1       1.114  10.400  20.881  0.00  0.00    +0.000 A 
ATOM     24  N   UNL     1       0.491  11.388  21.590  0.00  0.00    +0.000 NA
BRANCH  19  26
ATOM     25  C   UNL     1      -1.097  13.222  22.758  0.00  0.00    +0.000 C 
ATOM     26  O   UNL     1      -1.071  11.906  23.299  0.00  0.00    +0.000 OA
ENDBRANCH  19  26
ENDBRANCH  15  22
ENDBRANCH   1  16
TORSDOF 5
ENDMDL
MODEL 3
REMARK VINA RESULT:      -7.6      2.512      3.786
REMARK  Name = 
REMARK  8 active torsions:
REMARK  status: ('A' for Active; 'I' for Inactive)
REMARK    1  A    between atoms: C_1  and  O_2
REMARK    2  A    between atoms: O_2  and  C_3
REMARK    3  A    between atoms: C_6  and  N_7
REMARK    4  A    between atoms: C_8  and  C_10
REMARK    5  A    between atoms: C_10  and  C_12
REMARK    6  A    between atoms: N_14  and  C_15
REMARK    7  A    between atoms: C_15  and  C_16
REMARK    8  A    between atoms: C_15  and  C_17
REMARK                            x       y       z     vdW  Elec       q    Type
REMARK                         _______ _______ _______ _____ _____    ______ ____
ROOT
ATOM      1  C   UNL     1       2.632   7.922  18.136  0.00  0.00    +0.000 C 
ATOM      2  O   UNL     1       2.507   8.812  17.295  0.00  0.00    +0.000 OA
ENDROOT
BRANCH   1   3
ATOM      3  C   UNL     1       3.464   6.738  17.822  0.00  0.00    +0.000 A 
ATOM      4  C   UNL     1       4.404   6.837  16.784  0.00  0.00    +0.000 A 
ATOM      5  N   UNL     1       5.301   5.811  17.010  0.00  0.00    +0.000 N 
ATOM      6  C   UNL     1       4.445   4.764  17.312  0.00  0.00    +0.000 A 
ATOM      7  C   UNL     1       4.468   3.419  16.974  0.00  0.00    +0.000 A 
ATOM      8  C   UNL     1       3.684   2.642  17.798  0.00  0.00    +0.000 A 
ATOM      9  N   UNL     1       3.033   3.106  18.895  0.00  0.00    +0.000 NA
ATOM     10  C   UNL     1       2.956   4.454  19.126  0.00  0.00    +0.000 A 
ATOM     11  C   UNL     1       3.541   5.343  18.221  0.00  0.00    +0.000 A 
BRANCH   5  12
ATOM     12  C   UNL     1       6.490   6.053  17.879  0.00  0.00    +0.000 C 
ATOM     13  C   UNL     1       7.470   4.879  17.939  0.00  0.00    +0.000 C 
ATOM     14  C   UNL     1       7.210   7.362  17.553  0.00  0.00    +0.000 C 
ENDBRANCH   5  12
ENDBRANCH   1   3
BRANCH   1  16
ATOM     15  N   UNL     1       1.255   9.475  19.390  0.00  0.00    +0.000 N 
ATOM     16  C   UNL     1       1.883   8.214  19.440  0.00  0.00    +0.000 C 
ATOM     17  O   UNL     1       1.896   7.429  20.379  0.00  0.00    +0.000 OA
ATOM     18  H   UNL     1       1.398   9.955  18.495  0.00  0.00    +0.000 HD
BRANCH  15  22
ATOM     19  C   UNL     1      -0.941  11.372  22.408  0.00  0.00    +0.000 A 
ATOM     20  C   UNL     1      -1.310  11.603  21.090  0.00  0.00    +0.000 A 
ATOM     21  C   UNL     1      -0.597  10.978  20.057  0.00  0.00    +0.000 A 
ATOM     22  C   UNL     1       0.464  10.132  20.362  0.00  0.00    +0.000 A 
ATOM     23  C   UNL     1       0.738   9.952  21.724  0.00  0.00    +0.000 A 
ATOM     24  N   UNL     1       0.068  10.551  22.753  0.00  0.00    +0.000 NA
BRANCH  19  26
ATOM     25  C   UNL     1      -3.026  12.298  23.017  0.00  0.00    +0.000 C 
ATOM     26  O   UNL     1      -1.672  12.040  23.374  0.00  0.00    +0.000 OA
ENDBRANCH  19  26
ENDBRANCH  15  22
ENDBRANCH   1  16
TORSDOF 5
ENDMDL
MODEL 4
REMARK VINA RESULT:      -7.6      0.770      1.082
REMARK  Name = 
REMARK  8 active torsions:
REMARK  status: ('A' for Active; 'I' for Inactive)
REMARK    1  A    between atoms: C_1  and  O_2
REMARK    2  A    between atoms: O_2  and  C_3
REMARK    3  A    between atoms: C_6  and  N_7
REMARK    4  A    between atoms: C_8  and  C_10
REMARK    5  A    between atoms: C_10  and  C_12
REMARK    6  A    between atoms: N_14  and  C_15
REMARK    7  A    between atoms: C_15  and  C_16
REMARK    8  A    between atoms: C_15  and  C_17
REMARK                            x       y       z     vdW  Elec       q    Type
REMARK                         _______ _______ _______ _____ _____    ______ ____
ROOT
ATOM      1  C   UNL     1       1.978   8.891  18.116  0.00  0.00    +0.000 C 
ATOM      2  O   UNL     1       2.419   9.577  17.194  0.00  0.00    +0.000 OA
ENDROOT
BRANCH   1   3
ATOM      3  C   UNL     1       2.662   7.626  18.470  0.00  0.00    +0.000 A 
ATOM      4  C   UNL     1       2.325   7.000  19.681  0.00  0.00    +0.000 A 
ATOM      5  N   UNL     1       2.740   5.691  19.538  0.00  0.00    +0.000 N 
ATOM      6  C   UNL     1       3.990   5.864  18.966  0.00  0.00    +0.000 A 
ATOM      7  C   UNL     1       5.200   5.214  19.163  0.00  0.00    +0.000 A 
ATOM      8  C   UNL     1       6.086   5.394  18.124  0.00  0.00    +0.000 A 
ATOM      9  N   UNL     1       5.790   6.047  16.972  0.00  0.00    +0.000 NA
ATOM     10  C   UNL     1       4.623   6.757  16.867  0.00  0.00    +0.000 A 
ATOM     11  C   UNL     1       3.751   6.813  17.956  0.00  0.00    +0.000 A 
BRANCH   5  12
ATOM     12  C   UNL     1       1.806   4.683  18.956  0.00  0.00    +0.000 C 
ATOM     13  C   UNL     1       2.461   3.725  17.957  0.00  0.00    +0.000 C 
ATOM     14  C   UNL     1       1.013   3.921  20.018  0.00  0.00    +0.000 C 
ENDBRANCH   5  12
ENDBRANCH   1   3
BRANCH   1  16
ATOM     15  N   UNL     1      -0.223   9.867  17.831  0.00  0.00    +0.000 N 
ATOM     16  C   UNL     1       0.745   9.503  18.788  0.00  0.00    +0.000 C 
ATOM     17  O   UNL     1       0.685   9.662  20.000  0.00  0.00    +0.000 OA
ATOM     18  H   UNL     1       0.062   9.643  16.871  0.00  0.00    +0.000 HD
BRANCH  15  22
ATOM     19  C   UNL     1      -4.080  11.433  18.273  0.00  0.00    +0.000 A 
ATOM     20  C   UNL     1      -3.046  12.043  18.968  0.00  0.00    +0.000 A 
ATOM     21  C   UNL     1      -1.742  11.545  18.837  0.00  0.00    +0.000 A 
ATOM     22  C   UNL     1      -1.498  10.453  18.010  0.00  0.00    +0.000 A 
ATOM     23  C   UNL     1      -2.610   9.929  17.337  0.00  0.00    +0.000 A 
ATOM     24  N   UNL     1      -3.892  10.386  17.449  0.00  0.00    +0.000 NA
BRANCH  19  26
ATOM     25  C   UNL     1      -6.405  11.023  18.334  0.00  0.00    +0.000 C 
ATOM     26  O   UNL     1      -5.344  11.962  18.468  0.00  0.00    +0.000 OA
ENDBRANCH  19  26
ENDBRANCH  15  22
ENDBRANCH   1  16
TORSDOF 5
ENDMDL
MODEL 5
REMARK VINA RESULT:      -7.6      2.860      8.440
REMARK  Name = 
REMARK  8 active torsions:
REMARK  status: ('A' for Active; 'I' for Inactive)
REMARK    1  A    between atoms: C_1  and  O_2
REMARK    2  A    between atoms: O_2  and  C_3
REMARK    3  A    between atoms: C_6  and  N_7
REMARK    4  A    between atoms: C_8  and  C_10
REMARK    5  A    between atoms: C_10  and  C_12
REMARK    6  A    between atoms: N_14  and  C_15
REMARK    7  A    between atoms: C_15  and  C_16
REMARK    8  A    between atoms: C_15  and  C_17
REMARK                            x       y       z     vdW  Elec       q    Type
REMARK                         _______ _______ _______ _____ _____    ______ ____
ROOT
ATOM      1  C   UNL     1       1.559   8.621  19.606  0.00  0.00    +0.000 C 
ATOM      2  O   UNL     1       1.709   7.854  20.557  0.00  0.00    +0.000 OA
ENDROOT
BRANCH   1   3
ATOM      3  C   UNL     1       0.753   9.850  19.784  0.00  0.00    +0.000 A 
ATOM      4  C   UNL     1      -0.548   9.729  20.300  0.00  0.00    +0.000 A 
ATOM      5  N   UNL     1      -0.869  10.986  20.770  0.00  0.00    +0.000 N 
ATOM      6  C   UNL     1      -0.414  11.787  19.734  0.00  0.00    +0.000 A 
ATOM      7  C   UNL     1      -0.939  12.927  19.143  0.00  0.00    +0.000 A 
ATOM      8  C   UNL     1      -0.002  13.651  18.440  0.00  0.00    +0.000 A 
ATOM      9  N   UNL     1       1.323  13.357  18.405  0.00  0.00    +0.000 NA
ATOM     10  C   UNL     1       1.774  12.169  18.917  0.00  0.00    +0.000 A 
ATOM     11  C   UNL     1       0.861  11.262  19.461  0.00  0.00    +0.000 A 
BRANCH   5  12
ATOM     12  C   UNL     1      -0.530  11.354  22.177  0.00  0.00    +0.000 C 
ATOM     13  C   UNL     1      -1.317  12.551  22.718  0.00  0.00    +0.000 C 
ATOM     14  C   UNL     1      -0.598  10.165  23.136  0.00  0.00    +0.000 C 
ENDBRANCH   5  12
ENDBRANCH   1   3
BRANCH   1  16
ATOM     15  N   UNL     1       2.986   6.958  18.568  0.00  0.00    +0.000 N 
ATOM     16  C   UNL     1       2.286   8.160  18.338  0.00  0.00    +0.000 C 
ATOM     17  O   UNL     1       2.253   8.813  17.305  0.00  0.00    +0.000 OA
ATOM     18  H   UNL     1       2.870   6.606  19.524  0.00  0.00    +0.000 HD
BRANCH  15  22
ATOM     19  C   UNL     1       5.190   4.525  15.970  0.00  0.00    +0.000 A 
ATOM     20  C   UNL     1       5.497   5.878  16.013  0.00  0.00    +0.000 A 
ATOM     21  C   UNL     1       4.781   6.717  16.877  0.00  0.00    +0.000 A 
ATOM     22  C   UNL     1       3.778   6.188  17.682  0.00  0.00    +0.000 A 
ATOM     23  C   UNL     1       3.565   4.808  17.575  0.00  0.00    +0.000 A 
ATOM     24  N   UNL     1       4.240   3.965  16.740  0.00  0.00    +0.000 NA
BRANCH  19  26
ATOM     25  C   UNL     1       6.648   4.512  14.111  0.00  0.00    +0.000 C 
ATOM     26  O   UNL     1       5.921   3.760  15.078  0.00  0.00    +0.000 OA
ENDBRANCH  19  26
ENDBRANCH  15  22
ENDBRANCH   1  16
TORSDOF 5
ENDMDL
MODEL 6
REMARK VINA RESULT:      -7.6      2.504      2.857
REMARK  Name = 
REMARK  8 active torsions:
REMARK  status: ('A' for Active; 'I' for Inactive)
REMARK    1  A    between atoms: C_1  and  O_2
REMARK    2  A    between atoms: O_2  and  C_3
REMARK    3  A    between atoms: C_6  and  N_7
REMARK    4  A    between atoms: C_8  and  C_10
REMARK    5  A    between atoms: C_10  and  C_12
REMARK    6  A    between atoms: N_14  and  C_15
REMARK    7  A    between atoms: C_15  and  C_16
REMARK    8  A    between atoms: C_15  and  C_17
REMARK                            x       y       z     vdW  Elec       q    Type
REMARK                         _______ _______ _______ _____ _____    ______ ____
ROOT
ATOM      1  C   UNL     1       2.554   7.661  18.447  0.00  0.00    +0.000 C 
ATOM      2  O   UNL     1       2.440   8.503  17.556  0.00  0.00    +0.000 OA
ENDROOT
BRANCH   1   3
ATOM      3  C   UNL     1       3.434   6.490  18.229  0.00  0.00    +0.000 A 
ATOM      4  C   UNL     1       3.433   5.465  19.188  0.00  0.00    +0.000 A 
ATOM      5  N   UNL     1       3.953   4.363  18.539  0.00  0.00    +0.000 N 
ATOM      6  C   UNL     1       5.026   4.925  17.866  0.00  0.00    +0.000 A 
ATOM      7  C   UNL     1       6.315   4.470  17.629  0.00  0.00    +0.000 A 
ATOM      8  C   UNL     1       6.935   5.122  16.586  0.00  0.00    +0.000 A 
ATOM      9  N   UNL     1       6.330   6.042  15.792  0.00  0.00    +0.000 NA
ATOM     10  C   UNL     1       5.095   6.531  16.129  0.00  0.00    +0.000 A 
ATOM     11  C   UNL     1       4.473   6.086  17.297  0.00  0.00    +0.000 A 
BRANCH   5  12
ATOM     12  C   UNL     1       3.035   3.442  17.805  0.00  0.00    +0.000 C 
ATOM     13  C   UNL     1       3.397   1.961  17.938  0.00  0.00    +0.000 C 
ATOM     14  C   UNL     1       1.561   3.685  18.132  0.00  0.00    +0.000 C 
ENDBRANCH   5  12
ENDBRANCH   1   3
BRANCH   1  16
ATOM     15  N   UNL     1       1.224   9.304  19.635  0.00  0.00    +0.000 N 
ATOM     16  C   UNL     1       1.740   7.994  19.701  0.00  0.00    +0.000 C 
ATOM     17  O   UNL     1       1.620   7.196  20.621  0.00  0.00    +0.000 OA
ATOM     18  H   UNL     1       1.470   9.785  18.763  0.00  0.00    +0.000 HD
BRANCH  15  22
ATOM     19  C   UNL     1      -1.010  11.344  22.529  0.00  0.00    +0.000 A 
ATOM     20  C   UNL     1      -1.330  11.550  21.194  0.00  0.00    +0.000 A 
ATOM     21  C   UNL     1      -0.603  10.877  20.202  0.00  0.00    +0.000 A 
ATOM     22  C   UNL     1       0.422  10.010  20.563  0.00  0.00    +0.000 A 
ATOM     23  C   UNL     1       0.646   9.858  21.937  0.00  0.00    +0.000 A 
ATOM     24  N   UNL     1      -0.038  10.504  22.928  0.00  0.00    +0.000 NA
BRANCH  19  26
ATOM     25  C   UNL     1      -3.024  12.491  22.982  0.00  0.00    +0.000 C 
ATOM     26  O   UNL     1      -1.752  12.058  23.453  0.00  0.00    +0.000 OA
ENDBRANCH  19  26
ENDBRANCH  15  22
ENDBRANCH   1  16
TORSDOF 5
ENDMDL
MODEL 7
REMARK VINA RESULT:      -7.5      2.471      3.844
REMARK  Name = 
REMARK  8 active torsions:
REMARK  status: ('A' for Active; 'I' for Inactive)
REMARK    1  A    between atoms: C_1  and  O_2
REMARK    2  A    between atoms: O_2  and  C_3
REMARK    3  A    between atoms: C_6  and  N_7
REMARK    4  A    between atoms: C_8  and  C_10
REMARK    5  A    between atoms: C_10  and  C_12
REMARK    6  A    between atoms: N_14  and  C_15
REMARK    7  A    between atoms: C_15  and  C_16
REMARK    8  A    between atoms: C_15  and  C_17
REMARK                            x       y       z     vdW  Elec       q    Type
REMARK                         _______ _______ _______ _____ _____    ______ ____
ROOT
ATOM      1  C   UNL     1       2.619   7.859  18.205  0.00  0.00    +0.000 C 
ATOM      2  O   UNL     1       2.468   8.758  17.378  0.00  0.00    +0.000 OA
ENDROOT
BRANCH   1   3
ATOM      3  C   UNL     1       3.456   6.687  17.857  0.00  0.00    +0.000 A 
ATOM      4  C   UNL     1       4.374   6.809  16.802  0.00  0.00    +0.000 A 
ATOM      5  N   UNL     1       5.285   5.790  16.996  0.00  0.00    +0.000 N 
ATOM      6  C   UNL     1       4.445   4.730  17.301  0.00  0.00    +0.000 A 
ATOM      7  C   UNL     1       4.475   3.389  16.946  0.00  0.00    +0.000 A 
ATOM      8  C   UNL     1       3.715   2.594  17.775  0.00  0.00    +0.000 A 
ATOM      9  N   UNL     1       3.082   3.038  18.890  0.00  0.00    +0.000 NA
ATOM     10  C   UNL     1       2.997   4.382  19.141  0.00  0.00    +0.000 A 
ATOM     11  C   UNL     1       3.555   5.288  18.236  0.00  0.00    +0.000 A 
BRANCH   5  12
ATOM     12  C   UNL     1       6.489   6.032  17.844  0.00  0.00    +0.000 C 
ATOM     13  C   UNL     1       7.463   4.852  17.899  0.00  0.00    +0.000 C 
ATOM     14  C   UNL     1       7.212   7.333  17.494  0.00  0.00    +0.000 C 
ENDBRANCH   5  12
ENDBRANCH   1   3
BRANCH   1  16
ATOM     15  N   UNL     1       1.223   9.365  19.493  0.00  0.00    +0.000 N 
ATOM     16  C   UNL     1       1.895   8.126  19.528  0.00  0.00    +0.000 C 
ATOM     17  O   UNL     1       1.960   7.344  20.466  0.00  0.00    +0.000 OA
ATOM     18  H   UNL     1       1.326   9.849  18.595  0.00  0.00    +0.000 HD
BRANCH  15  22
ATOM     19  C   UNL     1      -1.224  11.313  22.276  0.00  0.00    +0.000 A 
ATOM     20  C   UNL     1      -0.362  10.330  22.742  0.00  0.00    +0.000 A 
ATOM     21  C   UNL     1       0.474   9.663  21.835  0.00  0.00    +0.000 A 
ATOM     22  C   UNL     1       0.436   9.996  20.485  0.00  0.00    +0.000 A 
ATOM     23  C   UNL     1      -0.454  11.017  20.127  0.00  0.00    +0.000 A 
ATOM     24  N   UNL     1      -1.286  11.680  20.983  0.00  0.00    +0.000 NA
BRANCH  19  26
ATOM     25  C   UNL     1      -1.840  13.315  23.366  0.00  0.00    +0.000 C 
ATOM     26  O   UNL     1      -2.036  11.912  23.222  0.00  0.00    +0.000 OA
ENDBRANCH  19  26
ENDBRANCH  15  22
ENDBRANCH   1  16
TORSDOF 5
ENDMDL
MODEL 8
REMARK VINA RESULT:      -7.5      2.371      8.656
REMARK  Name = 
REMARK  8 active torsions:
REMARK  status: ('A' for Active; 'I' for Inactive)
REMARK    1  A    between atoms: C_1  and  O_2
REMARK    2  A    between atoms: O_2  and  C_3
REMARK    3  A    between atoms: C_6  and  N_7
REMARK    4  A    between atoms: C_8  and  C_10
REMARK    5  A    between atoms: C_10  and  C_12
REMARK    6  A    between atoms: N_14  and  C_15
REMARK    7  A    between atoms: C_15  and  C_16
REMARK    8  A    between atoms: C_15  and  C_17
REMARK                            x       y       z     vdW  Elec       q    Type
REMARK                         _______ _______ _______ _____ _____    ______ ____
ROOT
ATOM      1  C   UNL     1       1.391   8.861  19.353  0.00  0.00    +0.000 C 
ATOM      2  O   UNL     1       1.581   8.293  20.428  0.00  0.00    +0.000 OA
ENDROOT
BRANCH   1   3
ATOM      3  C   UNL     1       0.472  10.021  19.298  0.00  0.00    +0.000 A 
ATOM      4  C   UNL     1       0.617  11.036  20.257  0.00  0.00    +0.000 A 
ATOM      5  N   UNL     1      -0.016  12.138  19.716  0.00  0.00    +0.000 N 
ATOM      6  C   UNL     1      -1.178  11.567  19.221  0.00  0.00    +0.000 A 
ATOM      7  C   UNL     1      -2.494  12.005  19.205  0.00  0.00    +0.000 A 
ATOM      8  C   UNL     1      -3.268  11.355  18.269  0.00  0.00    +0.000 A 
ATOM      9  N   UNL     1      -2.790  10.453  17.375  0.00  0.00    +0.000 NA
ATOM     10  C   UNL     1      -1.510   9.979  17.498  0.00  0.00    +0.000 A 
ATOM     11  C   UNL     1      -0.711  10.420  18.554  0.00  0.00    +0.000 A 
BRANCH   5  12
ATOM     12  C   UNL     1       0.758  13.080  18.855  0.00  0.00    +0.000 C 
ATOM     13  C   UNL     1       0.198  14.504  18.825  0.00  0.00    +0.000 C 
ATOM     14  C   UNL     1       2.255  13.077  19.164  0.00  0.00    +0.000 C 
ENDBRANCH   5  12
ENDBRANCH   1   3
BRANCH   1  16
ATOM     15  N   UNL     1       2.751   7.013  18.569  0.00  0.00    +0.000 N 
ATOM     16  C   UNL     1       2.194   8.254  18.198  0.00  0.00    +0.000 C 
ATOM     17  O   UNL     1       2.327   8.837  17.131  0.00  0.00    +0.000 OA
ATOM     18  H   UNL     1       2.507   6.737  19.526  0.00  0.00    +0.000 HD
BRANCH  15  22
ATOM     19  C   UNL     1       5.268   4.507  16.353  0.00  0.00    +0.000 A 
ATOM     20  C   UNL     1       4.112   3.959  16.890  0.00  0.00    +0.000 A 
ATOM     21  C   UNL     1       3.246   4.774  17.632  0.00  0.00    +0.000 A 
ATOM     22  C   UNL     1       3.550   6.118  17.818  0.00  0.00    +0.000 A 
ATOM     23  C   UNL     1       4.730   6.573  17.215  0.00  0.00    +0.000 A 
ATOM     24  N   UNL     1       5.597   5.804  16.493  0.00  0.00    +0.000 NA
BRANCH  19  26
ATOM     25  C   UNL     1       6.252   3.965  14.276  0.00  0.00    +0.000 C 
ATOM     26  O   UNL     1       6.088   3.640  15.652  0.00  0.00    +0.000 OA
ENDBRANCH  19  26
ENDBRANCH  15  22
ENDBRANCH   1  16
TORSDOF 5
ENDMDL
MODEL 9
REMARK VINA RESULT:      -7.5      2.259      2.926
REMARK  Name = 
REMARK  8 active torsions:
REMARK  status: ('A' for Active; 'I' for Inactive)
REMARK    1  A    between atoms: C_1  and  O_2
REMARK    2  A    between atoms: O_2  and  C_3
REMARK    3  A    between atoms: C_6  and  N_7
REMARK    4  A    between atoms: C_8  and  C_10
REMARK    5  A    between atoms: C_10  and  C_12
REMARK    6  A    between atoms: N_14  and  C_15
REMARK    7  A    between atoms: C_15  and  C_16
REMARK    8  A    between atoms: C_15  and  C_17
REMARK                            x       y       z     vdW  Elec       q    Type
REMARK                         _______ _______ _______ _____ _____    ______ ____
ROOT
ATOM      1  C   UNL     1       2.436   7.253  19.168  0.00  0.00    +0.000 C 
ATOM      2  O   UNL     1       1.824   7.077  20.221  0.00  0.00    +0.000 OA
ENDROOT
BRANCH   1   3
ATOM      3  C   UNL     1       3.400   6.227  18.708  0.00  0.00    +0.000 A 
ATOM      4  C   UNL     1       3.572   5.073  19.488  0.00  0.00    +0.000 A 
ATOM      5  N   UNL     1       4.136   4.143  18.637  0.00  0.00    +0.000 N 
ATOM      6  C   UNL     1       5.095   4.910  17.994  0.00  0.00    +0.000 A 
ATOM      7  C   UNL     1       6.397   4.633  17.603  0.00  0.00    +0.000 A 
ATOM      8  C   UNL     1       6.867   5.497  16.640  0.00  0.00    +0.000 A 
ATOM      9  N   UNL     1       6.117   6.460  16.045  0.00  0.00    +0.000 NA
ATOM     10  C   UNL     1       4.874   6.761  16.536  0.00  0.00    +0.000 A 
ATOM     11  C   UNL     1       4.393   6.081  17.657  0.00  0.00    +0.000 A 
BRANCH   5  12
ATOM     12  C   UNL     1       3.250   3.255  17.828  0.00  0.00    +0.000 C 
ATOM     13  C   UNL     1       3.505   1.760  18.034  0.00  0.00    +0.000 C 
ATOM     14  C   UNL     1       1.767   3.593  17.982  0.00  0.00    +0.000 C 
ENDBRANCH   5  12
ENDBRANCH   1   3
BRANCH   1  16
ATOM     15  N   UNL     1       1.357   9.418  19.334  0.00  0.00    +0.000 N 
ATOM     16  C   UNL     1       2.064   8.563  18.465  0.00  0.00    +0.000 C 
ATOM     17  O   UNL     1       2.342   8.764  17.291  0.00  0.00    +0.000 OA
ATOM     18  H   UNL     1       1.236   9.022  20.272  0.00  0.00    +0.000 HD
BRANCH  15  22
ATOM     19  C   UNL     1       0.000  13.310  18.598  0.00  0.00    +0.000 A 
ATOM     20  C   UNL     1      -0.946  12.305  18.737  0.00  0.00    +0.000 A 
ATOM     21  C   UNL     1      -0.523  10.992  18.989  0.00  0.00    +0.000 A 
ATOM     22  C   UNL     1       0.834  10.713  19.103  0.00  0.00    +0.000 A 
ATOM     23  C   UNL     1       1.702  11.804  18.968  0.00  0.00    +0.000 A 
ATOM     24  N   UNL     1       1.323  13.091  18.715  0.00  0.00    +0.000 NA
BRANCH  19  26
ATOM     25  C   UNL     1       0.326  15.639  18.815  0.00  0.00    +0.000 C 
ATOM     26  O   UNL     1      -0.486  14.576  18.328  0.00  0.00    +0.000 OA
ENDBRANCH  19  26
ENDBRANCH  15  22
ENDBRANCH   1  16
TORSDOF 5
ENDMDL
