MODEL 1
REMARK VINA RESULT:      -6.7      0.000      0.000
REMARK  Name = 
REMARK  6 active torsions:
REMARK  status: ('A' for Active; 'I' for Inactive)
REMARK    1  A    between atoms: C_1  and  O_2
REMARK    2  A    between atoms: O_2  and  C_3
REMARK    3  A    between atoms: C_8  and  C_9
REMARK    4  A    between atoms: C_9  and  C_10
REMARK    5  A    between atoms: C_10  and  N_11
REMARK    6  A    between atoms: C_12  and  C_14
REMARK                            x       y       z     vdW  Elec       q    Type
REMARK                         _______ _______ _______ _____ _____    ______ ____
ROOT
ATOM      1  C   UNL     1       3.988   2.411  17.410  0.00  0.00    +0.000 C 
ENDROOT
BRANCH   1   2
ATOM      2  N   UNL     1       4.873   3.542  17.201  0.00  0.00    +0.000 N 
ATOM      3  C   UNL     1       5.522   4.059  18.314  0.00  0.00    +0.000 C 
ATOM      4  O   UNL     1       5.420   3.560  19.431  0.00  0.00    +0.000 OA
ATOM      5  H   UNL     1       4.921   4.052  16.322  0.00  0.00    +0.000 HD
BRANCH   3   6
ATOM      6  C   UNL     1       6.348   5.279  18.133  0.00  0.00    +0.000 A 
ATOM      7  C   UNL     1       6.033   6.137  17.081  0.00  0.00    +0.000 A 
ATOM      8  N   UNL     1       6.721   7.278  16.835  0.00  0.00    +0.000 NA
ATOM      9  C   UNL     1       7.736   7.527  17.691  0.00  0.00    +0.000 A 
ATOM     10  C   UNL     1       8.051   6.675  18.742  0.00  0.00    +0.000 A 
ATOM     11  N   UNL     1       7.375   5.522  18.993  0.00  0.00    +0.000 NA
ENDBRANCH   3   6
ENDBRANCH   1   2
BRANCH   1  12
ATOM     12  C   UNL     1       2.492   2.711  17.405  0.00  0.00    +0.000 C 
BRANCH  12  18
ATOM     13  C   UNL     1       1.983   4.529  19.139  0.00  0.00    +0.000 A 
ATOM     14  C   UNL     1       1.571   4.897  20.426  0.00  0.00    +0.000 A 
ATOM     15  C   UNL     1       1.359   3.927  21.404  0.00  0.00    +0.000 A 
ATOM     16  C   UNL     1       1.517   2.582  21.089  0.00  0.00    +0.000 A 
ATOM     17  C   UNL     1       1.842   2.205  19.785  0.00  0.00    +0.000 A 
ATOM     18  C   UNL     1       2.061   3.170  18.787  0.00  0.00    +0.000 A 
BRANCH  13  20
ATOM     19  C   UNL     1       2.728   6.724  18.696  0.00  0.00    +0.000 C 
ATOM     20  O   UNL     1       2.330   5.450  18.183  0.00  0.00    +0.000 OA
ENDBRANCH  13  20
ENDBRANCH  12  18
ENDBRANCH   1  12
TORSDOF 5
ENDMDL
MODEL 2
REMARK VINA RESULT:      -6.5      1.005      1.017
REMARK  Name = 
REMARK  6 active torsions:
REMARK  status: ('A' for Active; 'I' for Inactive)
REMARK    1  A    between atoms: C_1  and  O_2
REMARK    2  A    between atoms: O_2  and  C_3
REMARK    3  A    between atoms: C_8  and  C_9
REMARK    4  A    between atoms: C_9  and  C_10
REMARK    5  A    between atoms: C_10  and  N_11
REMARK    6  A    between atoms: C_12  and  C_14
REMARK                            x       y       z     vdW  Elec       q    Type
REMARK                         _______ _______ _______ _____ _____    ______ ____
ROOT
ATOM      1  C   UNL     1       3.872   2.345  17.361  0.00  0.00    +0.000 C 
ENDROOT
BRANCH   1   2
ATOM      2  N   UNL     1       4.720   3.393  17.900  0.00  0.00    +0.000 N 
ATOM      3  C   UNL     1       5.422   4.177  16.994  0.00  0.00    +0.000 C 
ATOM      4  O   UNL     1       5.299   4.054  15.779  0.00  0.00    +0.000 OA
ATOM      5  H   UNL     1       4.932   3.478  18.892  0.00  0.00    +0.000 HD
BRANCH   3   6
ATOM      6  C   UNL     1       6.371   5.183  17.534  0.00  0.00    +0.000 A 
ATOM      7  C   UNL     1       6.540   6.373  16.830  0.00  0.00    +0.000 A 
ATOM      8  N   UNL     1       7.377   7.356  17.244  0.00  0.00    +0.000 NA
ATOM      9  C   UNL     1       8.036   7.097  18.393  0.00  0.00    +0.000 A 
ATOM     10  C   UNL     1       7.869   5.911  19.098  0.00  0.00    +0.000 A 
ATOM     11  N   UNL     1       7.039   4.914  18.689  0.00  0.00    +0.000 NA
ENDBRANCH   3   6
ENDBRANCH   1   2
BRANCH   1  12
ATOM     12  C   UNL     1       2.367   2.570  17.465  0.00  0.00    +0.000 C 
BRANCH  12  18
ATOM     13  C   UNL     1       1.961   4.488  19.116  0.00  0.00    +0.000 A 
ATOM     14  C   UNL     1       1.635   4.932  20.404  0.00  0.00    +0.000 A 
ATOM     15  C   UNL     1       1.502   4.022  21.452  0.00  0.00    +0.000 A 
ATOM     16  C   UNL     1       1.651   2.661  21.209  0.00  0.00    +0.000 A 
ATOM     17  C   UNL     1       1.889   2.207  19.910  0.00  0.00    +0.000 A 
ATOM     18  C   UNL     1       2.029   3.110  18.843  0.00  0.00    +0.000 A 
BRANCH  13  20
ATOM     19  C   UNL     1       2.910   6.549  18.468  0.00  0.00    +0.000 C 
ATOM     20  O   UNL     1       2.232   5.351  18.085  0.00  0.00    +0.000 OA
ENDBRANCH  13  20
ENDBRANCH  12  18
ENDBRANCH   1  12
TORSDOF 5
ENDMDL
MODEL 3
REMARK VINA RESULT:      -6.5      2.772      3.793
REMARK  Name = 
REMARK  6 active torsions:
REMARK  status: ('A' for Active; 'I' for Inactive)
REMARK    1  A    between atoms: C_1  and  O_2
REMARK    2  A    between atoms: O_2  and  C_3
REMARK    3  A    between atoms: C_8  and  C_9
REMARK    4  A    between atoms: C_9  and  C_10
REMARK    5  A    between atoms: C_10  and  N_11
REMARK    6  A    between atoms: C_12  and  C_14
REMARK                            x       y       z     vdW  Elec       q    Type
REMARK                         _______ _______ _______ _____ _____    ______ ____
ROOT
ATOM      1  C   UNL     1       6.660   4.712  18.563  0.00  0.00    +0.000 C 
ENDROOT
BRANCH   1   2
ATOM      2  N   UNL     1       6.682   4.302  17.170  0.00  0.00    +0.000 N 
ATOM      3  C   UNL     1       7.142   5.225  16.240  0.00  0.00    +0.000 C 
ATOM      4  O   UNL     1       7.578   6.327  16.561  0.00  0.00    +0.000 OA
ATOM      5  H   UNL     1       6.246   3.445  16.839  0.00  0.00    +0.000 HD
BRANCH   3   6
ATOM      6  C   UNL     1       7.072   4.858  14.803  0.00  0.00    +0.000 A 
ATOM      7  C   UNL     1       6.175   3.863  14.422  0.00  0.00    +0.000 A 
ATOM      8  N   UNL     1       6.031   3.461  13.135  0.00  0.00    +0.000 NA
ATOM      9  C   UNL     1       6.821   4.101  12.247  0.00  0.00    +0.000 A 
ATOM     10  C   UNL     1       7.715   5.095  12.624  0.00  0.00    +0.000 A 
ATOM     11  N   UNL     1       7.876   5.500  13.912  0.00  0.00    +0.000 NA
ENDBRANCH   3   6
ENDBRANCH   1   2
BRANCH   1  12
ATOM     12  C   UNL     1       5.338   5.267  19.085  0.00  0.00    +0.000 C 
BRANCH  12  18
ATOM     13  C   UNL     1       3.046   4.839  18.019  0.00  0.00    +0.000 A 
ATOM     14  C   UNL     1       2.031   3.952  17.637  0.00  0.00    +0.000 A 
ATOM     15  C   UNL     1       2.098   2.607  17.996  0.00  0.00    +0.000 A 
ATOM     16  C   UNL     1       3.198   2.134  18.702  0.00  0.00    +0.000 A 
ATOM     17  C   UNL     1       4.253   2.995  19.010  0.00  0.00    +0.000 A 
ATOM     18  C   UNL     1       4.201   4.355  18.657  0.00  0.00    +0.000 A 
BRANCH  13  20
ATOM     19  C   UNL     1       2.445   6.942  18.905  0.00  0.00    +0.000 C 
ATOM     20  O   UNL     1       2.963   6.192  17.804  0.00  0.00    +0.000 OA
ENDBRANCH  13  20
ENDBRANCH  12  18
ENDBRANCH   1  12
TORSDOF 5
ENDMDL
MODEL 4
REMARK VINA RESULT:      -6.4      2.770      3.452
REMARK  Name = 
REMARK  6 active torsions:
REMARK  status: ('A' for Active; 'I' for Inactive)
REMARK    1  A    between atoms: C_1  and  O_2
REMARK    2  A    between atoms: O_2  and  C_3
REMARK    3  A    between atoms: C_8  and  C_9
REMARK    4  A    between atoms: C_9  and  C_10
REMARK    5  A    between atoms: C_10  and  N_11
REMARK    6  A    between atoms: C_12  and  C_14
REMARK                            x       y       z     vdW  Elec       q    Type
REMARK                         _______ _______ _______ _____ _____    ______ ____
ROOT
ATOM      1  C   UNL     1       5.663   4.408  18.407  0.00  0.00    +0.000 C 
ENDROOT
BRANCH   1   2
ATOM      2  N   UNL     1       5.864   4.132  16.996  0.00  0.00    +0.000 N 
ATOM      3  C   UNL     1       6.782   4.921  16.316  0.00  0.00    +0.000 C 
ATOM      4  O   UNL     1       7.457   5.781  16.874  0.00  0.00    +0.000 OA
ATOM      5  H   UNL     1       5.268   3.502  16.465  0.00  0.00    +0.000 HD
BRANCH   3   6
ATOM      6  C   UNL     1       6.921   4.720  14.851  0.00  0.00    +0.000 A 
ATOM      7  C   UNL     1       6.084   3.795  14.232  0.00  0.00    +0.000 A 
ATOM      8  N   UNL     1       6.127   3.545  12.900  0.00  0.00    +0.000 NA
ATOM      9  C   UNL     1       7.042   4.263  12.215  0.00  0.00    +0.000 A 
ATOM     10  C   UNL     1       7.877   5.188  12.830  0.00  0.00    +0.000 A 
ATOM     11  N   UNL     1       7.850   5.441  14.166  0.00  0.00    +0.000 NA
ENDBRANCH   3   6
ENDBRANCH   1   2
BRANCH   1  12
ATOM     12  C   UNL     1       4.615   5.464  18.749  0.00  0.00    +0.000 C 
BRANCH  12  18
ATOM     13  C   UNL     1       2.399   5.541  20.035  0.00  0.00    +0.000 A 
ATOM     14  C   UNL     1       1.327   4.879  20.646  0.00  0.00    +0.000 A 
ATOM     15  C   UNL     1       1.337   3.492  20.779  0.00  0.00    +0.000 A 
ATOM     16  C   UNL     1       2.399   2.756  20.264  0.00  0.00    +0.000 A 
ATOM     17  C   UNL     1       3.427   3.403  19.576  0.00  0.00    +0.000 A 
ATOM     18  C   UNL     1       3.433   4.801  19.436  0.00  0.00    +0.000 A 
BRANCH  13  20
ATOM     19  C   UNL     1       1.427   7.604  20.643  0.00  0.00    +0.000 C 
ATOM     20  O   UNL     1       2.497   6.909  19.998  0.00  0.00    +0.000 OA
ENDBRANCH  13  20
ENDBRANCH  12  18
ENDBRANCH   1  12
TORSDOF 5
ENDMDL
MODEL 5
REMARK VINA RESULT:      -6.4      2.876      4.327
REMARK  Name = 
REMARK  6 active torsions:
REMARK  status: ('A' for Active; 'I' for Inactive)
REMARK    1  A    between atoms: C_1  and  O_2
REMARK    2  A    between atoms: O_2  and  C_3
REMARK    3  A    between atoms: C_8  and  C_9
REMARK    4  A    between atoms: C_9  and  C_10
REMARK    5  A    between atoms: C_10  and  N_11
REMARK    6  A    between atoms: C_12  and  C_14
REMARK                            x       y       z     vdW  Elec       q    Type
REMARK                         _______ _______ _______ _____ _____    ______ ____
ROOT
ATOM      1  C   UNL     1       6.472   5.014  18.577  0.00  0.00    +0.000 C 
ENDROOT
BRANCH   1   2
ATOM      2  N   UNL     1       6.526   4.524  17.212  0.00  0.00    +0.000 N 
ATOM      3  C   UNL     1       7.065   5.370  16.251  0.00  0.00    +0.000 C 
ATOM      4  O   UNL     1       7.543   6.466  16.528  0.00  0.00    +0.000 OA
ATOM      5  H   UNL     1       6.061   3.671  16.911  0.00  0.00    +0.000 HD
BRANCH   3   6
ATOM      6  C   UNL     1       7.031   4.924  14.835  0.00  0.00    +0.000 A 
ATOM      7  C   UNL     1       6.134   3.918  14.483  0.00  0.00    +0.000 A 
ATOM      8  N   UNL     1       6.020   3.448  13.217  0.00  0.00    +0.000 NA
ATOM      9  C   UNL     1       6.841   4.031  12.317  0.00  0.00    +0.000 A 
ATOM     10  C   UNL     1       7.736   5.036  12.665  0.00  0.00    +0.000 A 
ATOM     11  N   UNL     1       7.865   5.510  13.933  0.00  0.00    +0.000 NA
ENDBRANCH   3   6
ENDBRANCH   1   2
BRANCH   1  12
ATOM     12  C   UNL     1       5.082   5.269  19.152  0.00  0.00    +0.000 C 
BRANCH  12  18
ATOM     13  C   UNL     1       4.169   2.875  19.247  0.00  0.00    +0.000 A 
ATOM     14  C   UNL     1       3.268   1.901  18.798  0.00  0.00    +0.000 A 
ATOM     15  C   UNL     1       2.421   2.165  17.724  0.00  0.00    +0.000 A 
ATOM     16  C   UNL     1       2.440   3.418  17.119  0.00  0.00    +0.000 A 
ATOM     17  C   UNL     1       3.274   4.420  17.618  0.00  0.00    +0.000 A 
ATOM     18  C   UNL     1       4.137   4.170  18.699  0.00  0.00    +0.000 A 
BRANCH  13  20
ATOM     19  C   UNL     1       5.023   1.325  20.808  0.00  0.00    +0.000 C 
ATOM     20  O   UNL     1       5.112   2.620  20.210  0.00  0.00    +0.000 OA
ENDBRANCH  13  20
ENDBRANCH  12  18
ENDBRANCH   1  12
TORSDOF 5
ENDMDL
MODEL 6
REMARK VINA RESULT:      -6.2      2.811      3.741
REMARK  Name = 
REMARK  6 active torsions:
REMARK  status: ('A' for Active; 'I' for Inactive)
REMARK    1  A    between atoms: C_1  and  O_2
REMARK    2  A    between atoms: O_2  and  C_3
REMARK    3  A    between atoms: C_8  and  C_9
REMARK    4  A    between atoms: C_9  and  C_10
REMARK    5  A    between atoms: C_10  and  N_11
REMARK    6  A    between atoms: C_12  and  C_14
REMARK                            x       y       z     vdW  Elec       q    Type
REMARK                         _______ _______ _______ _____ _____    ______ ____
ROOT
ATOM      1  C   UNL     1       5.070   5.840  17.806  0.00  0.00    +0.000 C 
ENDROOT
BRANCH   1   2
ATOM      2  N   UNL     1       5.272   5.415  16.433  0.00  0.00    +0.000 N 
ATOM      3  C   UNL     1       6.576   5.170  16.025  0.00  0.00    +0.000 C 
ATOM      4  O   UNL     1       7.533   5.240  16.791  0.00  0.00    +0.000 OA
ATOM      5  H   UNL     1       4.533   5.433  15.734  0.00  0.00    +0.000 HD
BRANCH   3   6
ATOM      6  C   UNL     1       6.807   4.837  14.597  0.00  0.00    +0.000 A 
ATOM      7  C   UNL     1       6.026   3.838  14.020  0.00  0.00    +0.000 A 
ATOM      8  N   UNL     1       6.154   3.466  12.723  0.00  0.00    +0.000 NA
ATOM      9  C   UNL     1       7.096   4.139  12.027  0.00  0.00    +0.000 A 
ATOM     10  C   UNL     1       7.875   5.137  12.600  0.00  0.00    +0.000 A 
ATOM     11  N   UNL     1       7.763   5.513  13.901  0.00  0.00    +0.000 NA
ENDBRANCH   3   6
ENDBRANCH   1   2
BRANCH   1  12
ATOM     12  C   UNL     1       4.984   4.734  18.853  0.00  0.00    +0.000 C 
BRANCH  12  18
ATOM     13  C   UNL     1       2.527   4.410  19.513  0.00  0.00    +0.000 A 
ATOM     14  C   UNL     1       1.309   3.735  19.362  0.00  0.00    +0.000 A 
ATOM     15  C   UNL     1       1.223   2.609  18.545  0.00  0.00    +0.000 A 
ATOM     16  C   UNL     1       2.342   2.177  17.842  0.00  0.00    +0.000 A 
ATOM     17  C   UNL     1       3.535   2.897  17.921  0.00  0.00    +0.000 A 
ATOM     18  C   UNL     1       3.641   4.033  18.741  0.00  0.00    +0.000 A 
BRANCH  13  20
ATOM     19  C   UNL     1       1.531   6.240  20.621  0.00  0.00    +0.000 C 
ATOM     20  O   UNL     1       2.696   5.440  20.403  0.00  0.00    +0.000 OA
ENDBRANCH  13  20
ENDBRANCH  12  18
ENDBRANCH   1  12
TORSDOF 5
ENDMDL
MODEL 7
REMARK VINA RESULT:      -6.2      2.965      3.793
REMARK  Name = 
REMARK  6 active torsions:
REMARK  status: ('A' for Active; 'I' for Inactive)
REMARK    1  A    between atoms: C_1  and  O_2
REMARK    2  A    between atoms: O_2  and  C_3
REMARK    3  A    between atoms: C_8  and  C_9
REMARK    4  A    between atoms: C_9  and  C_10
REMARK    5  A    between atoms: C_10  and  N_11
REMARK    6  A    between atoms: C_12  and  C_14
REMARK                            x       y       z     vdW  Elec       q    Type
REMARK                         _______ _______ _______ _____ _____    ______ ____
ROOT
ATOM      1  C   UNL     1       4.144   4.008  17.217  0.00  0.00    +0.000 C 
ENDROOT
BRANCH   1   2
ATOM      2  N   UNL     1       4.711   4.066  15.882  0.00  0.00    +0.000 N 
ATOM      3  C   UNL     1       6.072   4.323  15.777  0.00  0.00    +0.000 C 
ATOM      4  O   UNL     1       6.801   4.435  16.758  0.00  0.00    +0.000 OA
ATOM      5  H   UNL     1       4.142   4.077  15.039  0.00  0.00    +0.000 HD
BRANCH   3   6
ATOM      6  C   UNL     1       6.645   4.489  14.417  0.00  0.00    +0.000 A 
ATOM      7  C   UNL     1       6.140   3.697  13.389  0.00  0.00    +0.000 A 
ATOM      8  N   UNL     1       6.591   3.778  12.113  0.00  0.00    +0.000 NA
ATOM      9  C   UNL     1       7.566   4.689  11.911  0.00  0.00    +0.000 A 
ATOM     10  C   UNL     1       8.071   5.482  12.934  0.00  0.00    +0.000 A 
ATOM     11  N   UNL     1       7.634   5.403  14.219  0.00  0.00    +0.000 NA
ENDBRANCH   3   6
ENDBRANCH   1   2
BRANCH   1  12
ATOM     12  C   UNL     1       3.681   2.636  17.698  0.00  0.00    +0.000 C 
BRANCH  12  18
ATOM     13  C   UNL     1       3.496   2.616  20.255  0.00  0.00    +0.000 A 
ATOM     14  C   UNL     1       2.732   2.779  21.418  0.00  0.00    +0.000 A 
ATOM     15  C   UNL     1       1.357   2.986  21.335  0.00  0.00    +0.000 A 
ATOM     16  C   UNL     1       0.744   3.074  20.090  0.00  0.00    +0.000 A 
ATOM     17  C   UNL     1       1.513   3.000  18.928  0.00  0.00    +0.000 A 
ATOM     18  C   UNL     1       2.901   2.789  18.993  0.00  0.00    +0.000 A 
BRANCH  13  20
ATOM     19  C   UNL     1       5.144   1.174  21.133  0.00  0.00    +0.000 C 
ATOM     20  O   UNL     1       4.826   2.280  20.286  0.00  0.00    +0.000 OA
ENDBRANCH  13  20
ENDBRANCH  12  18
ENDBRANCH   1  12
TORSDOF 5
ENDMDL
MODEL 8
REMARK VINA RESULT:      -6.2      1.366      2.299
REMARK  Name = 
REMARK  6 active torsions:
REMARK  status: ('A' for Active; 'I' for Inactive)
REMARK    1  A    between atoms: C_1  and  O_2
REMARK    2  A    between atoms: O_2  and  C_3
REMARK    3  A    between atoms: C_8  and  C_9
REMARK    4  A    between atoms: C_9  and  C_10
REMARK    5  A    between atoms: C_10  and  N_11
REMARK    6  A    between atoms: C_12  and  C_14
REMARK                            x       y       z     vdW  Elec       q    Type
REMARK                         _______ _______ _______ _____ _____    ______ ____
ROOT
ATOM      1  C   UNL     1       3.571   3.007  16.919  0.00  0.00    +0.000 C 
ENDROOT
BRANCH   1   2
ATOM      2  N   UNL     1       4.789   3.691  17.317  0.00  0.00    +0.000 N 
ATOM      3  C   UNL     1       4.693   5.044  17.615  0.00  0.00    +0.000 C 
ATOM      4  O   UNL     1       3.624   5.647  17.613  0.00  0.00    +0.000 OA
ATOM      5  H   UNL     1       5.711   3.267  17.242  0.00  0.00    +0.000 HD
BRANCH   3   6
ATOM      6  C   UNL     1       5.946   5.779  17.920  0.00  0.00    +0.000 A 
ATOM      7  C   UNL     1       6.238   6.920  17.177  0.00  0.00    +0.000 A 
ATOM      8  N   UNL     1       7.352   7.664  17.384  0.00  0.00    +0.000 NA
ATOM      9  C   UNL     1       8.160   7.218  18.369  0.00  0.00    +0.000 A 
ATOM     10  C   UNL     1       7.871   6.081  19.114  0.00  0.00    +0.000 A 
ATOM     11  N   UNL     1       6.762   5.321  18.910  0.00  0.00    +0.000 NA
ENDBRANCH   3   6
ENDBRANCH   1   2
BRANCH   1  12
ATOM     12  C   UNL     1       3.148   1.820  17.779  0.00  0.00    +0.000 C 
BRANCH  12  18
ATOM     13  C   UNL     1       3.422   2.451  20.249  0.00  0.00    +0.000 A 
ATOM     14  C   UNL     1       2.876   2.929  21.447  0.00  0.00    +0.000 A 
ATOM     15  C   UNL     1       1.506   3.159  21.556  0.00  0.00    +0.000 A 
ATOM     16  C   UNL     1       0.681   2.954  20.455  0.00  0.00    +0.000 A 
ATOM     17  C   UNL     1       1.232   2.562  19.234  0.00  0.00    +0.000 A 
ATOM     18  C   UNL     1       2.611   2.323  19.108  0.00  0.00    +0.000 A 
BRANCH  13  20
ATOM     19  C   UNL     1       5.212   1.214  21.163  0.00  0.00    +0.000 C 
ATOM     20  O   UNL     1       4.739   2.085  20.133  0.00  0.00    +0.000 OA
ENDBRANCH  13  20
ENDBRANCH  12  18
ENDBRANCH   1  12
TORSDOF 5
ENDMDL
MODEL 9
REMARK VINA RESULT:      -6.2      1.206      2.317
REMARK  Name = 
REMARK  6 active torsions:
REMARK  status: ('A' for Active; 'I' for Inactive)
REMARK    1  A    between atoms: C_1  and  O_2
REMARK    2  A    between atoms: O_2  and  C_3
REMARK    3  A    between atoms: C_8  and  C_9
REMARK    4  A    between atoms: C_9  and  C_10
REMARK    5  A    between atoms: C_10  and  N_11
REMARK    6  A    between atoms: C_12  and  C_14
REMARK                            x       y       z     vdW  Elec       q    Type
REMARK                         _______ _______ _______ _____ _____    ______ ____
ROOT
ATOM      1  C   UNL     1       3.014   2.509  17.822  0.00  0.00    +0.000 C 
ENDROOT
BRANCH   1   2
ATOM      2  N   UNL     1       4.094   3.443  17.561  0.00  0.00    +0.000 N 
ATOM      3  C   UNL     1       5.014   3.656  18.579  0.00  0.00    +0.000 C 
ATOM      4  O   UNL     1       4.976   3.046  19.643  0.00  0.00    +0.000 OA
ATOM      5  H   UNL     1       4.120   4.044  16.741  0.00  0.00    +0.000 HD
BRANCH   3   6
ATOM      6  C   UNL     1       6.062   4.685  18.365  0.00  0.00    +0.000 A 
ATOM      7  C   UNL     1       6.239   5.186  17.077  0.00  0.00    +0.000 A 
ATOM      8  N   UNL     1       7.164   6.132  16.780  0.00  0.00    +0.000 NA
ATOM      9  C   UNL     1       7.901   6.557  17.827  0.00  0.00    +0.000 A 
ATOM     10  C   UNL     1       7.726   6.061  19.113  0.00  0.00    +0.000 A 
ATOM     11  N   UNL     1       6.809   5.106  19.423  0.00  0.00    +0.000 NA
ENDBRANCH   3   6
ENDBRANCH   1   2
BRANCH   1  12
ATOM     12  C   UNL     1       1.650   3.120  18.130  0.00  0.00    +0.000 C 
BRANCH  12  18
ATOM     13  C   UNL     1       1.569   4.713  20.137  0.00  0.00    +0.000 A 
ATOM     14  C   UNL     1       1.769   5.987  20.684  0.00  0.00    +0.000 A 
ATOM     15  C   UNL     1       2.112   7.061  19.865  0.00  0.00    +0.000 A 
ATOM     16  C   UNL     1       2.298   6.859  18.501  0.00  0.00    +0.000 A 
ATOM     17  C   UNL     1       2.185   5.575  17.965  0.00  0.00    +0.000 A 
ATOM     18  C   UNL     1       1.838   4.481  18.776  0.00  0.00    +0.000 A 
BRANCH  13  20
ATOM     19  C   UNL     1       2.069   3.068  21.753  0.00  0.00    +0.000 C 
ATOM     20  O   UNL     1       1.104   3.657  20.878  0.00  0.00    +0.000 OA
ENDBRANCH  13  20
ENDBRANCH  12  18
ENDBRANCH   1  12
TORSDOF 5
ENDMDL
