MODEL 1
REMARK VINA RESULT:      -7.4      0.000      0.000
REMARK  Name = 
REMARK  14 active torsions:
REMARK  status: ('A' for Active; 'I' for Inactive)
REMARK    1  A    between atoms: C_1  and  C_2
REMARK    2  A    between atoms: C_6  and  C_7
REMARK    3  A    between atoms: C_8  and  N_9
REMARK    4  A    between atoms: C_10  and  C_12
REMARK    5  A    between atoms: C_12  and  S_13
REMARK    6  A    between atoms: S_13  and  C_14
REMARK    7  A    between atoms: C_14  and  C_15
REMARK    8  A    between atoms: C_19  and  C_20
REMARK    9  A    between atoms: C_20  and  S_21
REMARK   10  A    between atoms: S_21  and  C_22
REMARK   11  A    between atoms: C_22  and  C_23
REMARK   12  A    between atoms: N_25  and  C_26
REMARK   13  A    between atoms: C_27  and  C_28
REMARK   14  A    between atoms: C_32  and  C_33
REMARK                            x       y       z     vdW  Elec       q    Type
REMARK                         _______ _______ _______ _____ _____    ______ ____
ROOT
ATOM      1  C   UNL     1       1.801   3.368  18.854  0.00  0.00    +0.000 A 
ATOM      2  C   UNL     1       1.356   3.325  20.171  0.00  0.00    +0.000 A 
ATOM      3  C   UNL     1       1.173   4.520  20.858  0.00  0.00    +0.000 A 
ATOM      4  C   UNL     1       1.461   5.725  20.227  0.00  0.00    +0.000 A 
ATOM      5  C   UNL     1       1.915   5.703  18.913  0.00  0.00    +0.000 A 
ATOM      6  N   UNL     1       2.030   4.543  18.215  0.00  0.00    +0.000 NA
ENDROOT
BRANCH   1   7
ATOM      7  C   UNL     1       2.132   2.095  18.111  0.00  0.00    +0.000 C 
BRANCH   7   8
ATOM      8  S   UNL     1       3.901   1.679  18.002  0.00  0.00    +0.000 S 
BRANCH   8   9
ATOM      9  C   UNL     1       4.567   2.446  19.520  0.00  0.00    +0.000 C 
BRANCH   9  11
ATOM     10  N   UNL     1       5.986   4.194  18.289  0.00  0.00    +0.000 N 
ATOM     11  C   UNL     1       5.146   3.878  19.385  0.00  0.00    +0.000 C 
ATOM     12  O   UNL     1       4.753   4.740  20.157  0.00  0.00    +0.000 OA
ATOM     13  H   UNL     1       6.013   3.610  17.463  0.00  0.00    +0.000 HD
BRANCH  10  21
ATOM     14  C   UNL     1       8.271   5.237  20.086  0.00  0.00    +0.000 C 
ATOM     15  C   UNL     1       7.651   5.974  18.959  0.00  0.00    +0.000 A 
ATOM     16  C   UNL     1       8.303   7.202  18.721  0.00  0.00    +0.000 A 
ATOM     17  C   UNL     1       7.919   8.010  17.682  0.00  0.00    +0.000 A 
ATOM     18  C   UNL     1       6.881   7.591  16.869  0.00  0.00    +0.000 A 
ATOM     19  C   UNL     1       6.220   6.358  17.067  0.00  0.00    +0.000 A 
ATOM     20  C   UNL     1       5.071   6.084  16.139  0.00  0.00    +0.000 C 
ATOM     21  C   UNL     1       6.618   5.491  18.101  0.00  0.00    +0.000 A 
ENDBRANCH  10  21
ENDBRANCH   9  11
ENDBRANCH   8   9
ENDBRANCH   7   8
ENDBRANCH   1   7
BRANCH   5  22
ATOM     22  C   UNL     1       2.232   7.014  18.223  0.00  0.00    +0.000 C 
BRANCH  22  23
ATOM     23  S   UNL     1       1.989   8.500  19.251  0.00  0.00    +0.000 S 
BRANCH  23  24
ATOM     24  C   UNL     1       1.035   9.512  18.068  0.00  0.00    +0.000 C 
BRANCH  24  25
ATOM     25  C   UNL     1       0.000  10.419  18.774  0.00  0.00    +0.000 C 
ATOM     26  O   UNL     1      -1.102  10.637  18.284  0.00  0.00    +0.000 OA
ATOM     27  N   UNL     1       0.429  10.987  19.964  0.00  0.00    +0.000 N 
ATOM     28  H   UNL     1       1.424  11.069  20.027  0.00  0.00    +0.000 HD
BRANCH  27  29
ATOM     29  C   UNL     1      -0.351  11.581  21.007  0.00  0.00    +0.000 A 
ATOM     30  C   UNL     1      -0.945  12.871  20.936  0.00  0.00    +0.000 A 
ATOM     31  C   UNL     1      -1.000  13.839  19.771  0.00  0.00    +0.000 C 
ATOM     32  C   UNL     1      -1.740  13.324  22.016  0.00  0.00    +0.000 A 
ATOM     33  C   UNL     1      -1.997  12.545  23.129  0.00  0.00    +0.000 A 
ATOM     34  C   UNL     1      -1.486  11.270  23.180  0.00  0.00    +0.000 A 
ATOM     35  C   UNL     1      -0.680  10.774  22.143  0.00  0.00    +0.000 A 
ATOM     36  C   UNL     1      -0.289   9.344  22.360  0.00  0.00    +0.000 C 
ENDBRANCH  27  29
ENDBRANCH  24  25
ENDBRANCH  23  24
ENDBRANCH  22  23
ENDBRANCH   5  22
TORSDOF 10
ENDMDL
MODEL 2
REMARK VINA RESULT:      -7.2      3.473      6.473
REMARK  Name = 
REMARK  14 active torsions:
REMARK  status: ('A' for Active; 'I' for Inactive)
REMARK    1  A    between atoms: C_1  and  C_2
REMARK    2  A    between atoms: C_6  and  C_7
REMARK    3  A    between atoms: C_8  and  N_9
REMARK    4  A    between atoms: C_10  and  C_12
REMARK    5  A    between atoms: C_12  and  S_13
REMARK    6  A    between atoms: S_13  and  C_14
REMARK    7  A    between atoms: C_14  and  C_15
REMARK    8  A    between atoms: C_19  and  C_20
REMARK    9  A    between atoms: C_20  and  S_21
REMARK   10  A    between atoms: S_21  and  C_22
REMARK   11  A    between atoms: C_22  and  C_23
REMARK   12  A    between atoms: N_25  and  C_26
REMARK   13  A    between atoms: C_27  and  C_28
REMARK   14  A    between atoms: C_32  and  C_33
REMARK                            x       y       z     vdW  Elec       q    Type
REMARK                         _______ _______ _______ _____ _____    ______ ____
ROOT
ATOM      1  C   UNL     1       0.550  11.076  20.395  0.00  0.00    +0.000 A 
ATOM      2  C   UNL     1       0.146   9.983  21.156  0.00  0.00    +0.000 A 
ATOM      3  C   UNL     1      -0.582  10.205  22.319  0.00  0.00    +0.000 A 
ATOM      4  C   UNL     1      -0.869  11.508  22.710  0.00  0.00    +0.000 A 
ATOM      5  C   UNL     1      -0.427  12.560  21.916  0.00  0.00    +0.000 A 
ATOM      6  N   UNL     1       0.224  12.346  20.743  0.00  0.00    +0.000 NA
ENDROOT
BRANCH   1   7
ATOM      7  C   UNL     1       1.446  10.890  19.194  0.00  0.00    +0.000 C 
BRANCH   7   8
ATOM      8  S   UNL     1       1.044   9.478  18.117  0.00  0.00    +0.000 S 
BRANCH   8   9
ATOM      9  C   UNL     1       2.555   8.458  18.247  0.00  0.00    +0.000 C 
BRANCH   9  11
ATOM     10  N   UNL     1       3.201   6.059  18.887  0.00  0.00    +0.000 N 
ATOM     11  C   UNL     1       2.376   6.924  18.126  0.00  0.00    +0.000 C 
ATOM     12  O   UNL     1       1.432   6.497  17.478  0.00  0.00    +0.000 OA
ATOM     13  H   UNL     1       3.718   6.399  19.689  0.00  0.00    +0.000 HD
BRANCH  10  21
ATOM     14  C   UNL     1       1.316   4.343  20.630  0.00  0.00    +0.000 C 
ATOM     15  C   UNL     1       2.293   3.825  19.642  0.00  0.00    +0.000 A 
ATOM     16  C   UNL     1       2.198   2.425  19.504  0.00  0.00    +0.000 A 
ATOM     17  C   UNL     1       2.977   1.755  18.595  0.00  0.00    +0.000 A 
ATOM     18  C   UNL     1       3.854   2.485  17.814  0.00  0.00    +0.000 A 
ATOM     19  C   UNL     1       3.960   3.891  17.912  0.00  0.00    +0.000 A 
ATOM     20  C   UNL     1       5.008   4.522  17.040  0.00  0.00    +0.000 C 
ATOM     21  C   UNL     1       3.146   4.608  18.807  0.00  0.00    +0.000 A 
ENDBRANCH  10  21
ENDBRANCH   9  11
ENDBRANCH   8   9
ENDBRANCH   7   8
ENDBRANCH   1   7
BRANCH   5  22
ATOM     22  C   UNL     1      -0.736  13.981  22.340  0.00  0.00    +0.000 C 
BRANCH  22  23
ATOM     23  S   UNL     1      -1.832  14.127  23.791  0.00  0.00    +0.000 S 
BRANCH  23  24
ATOM     24  C   UNL     1      -3.387  14.549  22.931  0.00  0.00    +0.000 C 
BRANCH  24  25
ATOM     25  C   UNL     1      -4.044  13.313  22.272  0.00  0.00    +0.000 C 
ATOM     26  O   UNL     1      -4.360  12.327  22.928  0.00  0.00    +0.000 OA
ATOM     27  N   UNL     1      -4.205  13.394  20.898  0.00  0.00    +0.000 N 
ATOM     28  H   UNL     1      -3.560  14.023  20.460  0.00  0.00    +0.000 HD
BRANCH  27  29
ATOM     29  C   UNL     1      -5.046  12.611  20.044  0.00  0.00    +0.000 A 
ATOM     30  C   UNL     1      -6.467  12.655  20.050  0.00  0.00    +0.000 A 
ATOM     31  C   UNL     1      -7.395  13.567  20.827  0.00  0.00    +0.000 C 
ATOM     32  C   UNL     1      -7.184  11.869  19.116  0.00  0.00    +0.000 A 
ATOM     33  C   UNL     1      -6.557  11.083  18.167  0.00  0.00    +0.000 A 
ATOM     34  C   UNL     1      -5.184  11.083  18.105  0.00  0.00    +0.000 A 
ATOM     35  C   UNL     1      -4.422  11.834  19.015  0.00  0.00    +0.000 A 
ATOM     36  C   UNL     1      -2.953  11.754  18.729  0.00  0.00    +0.000 C 
ENDBRANCH  27  29
ENDBRANCH  24  25
ENDBRANCH  23  24
ENDBRANCH  22  23
ENDBRANCH   5  22
TORSDOF 10
ENDMDL
MODEL 3
REMARK VINA RESULT:      -7.2      3.675      4.901
REMARK  Name = 
REMARK  14 active torsions:
REMARK  status: ('A' for Active; 'I' for Inactive)
REMARK    1  A    between atoms: C_1  and  C_2
REMARK    2  A    between atoms: C_6  and  C_7
REMARK    3  A    between atoms: C_8  and  N_9
REMARK    4  A    between atoms: C_10  and  C_12
REMARK    5  A    between atoms: C_12  and  S_13
REMARK    6  A    between atoms: S_13  and  C_14
REMARK    7  A    between atoms: C_14  and  C_15
REMARK    8  A    between atoms: C_19  and  C_20
REMARK    9  A    between atoms: C_20  and  S_21
REMARK   10  A    between atoms: S_21  and  C_22
REMARK   11  A    between atoms: C_22  and  C_23
REMARK   12  A    between atoms: N_25  and  C_26
REMARK   13  A    between atoms: C_27  and  C_28
REMARK   14  A    between atoms: C_32  and  C_33
REMARK                            x       y       z     vdW  Elec       q    Type
REMARK                         _______ _______ _______ _____ _____    ______ ____
ROOT
ATOM      1  C   UNL     1       5.624   5.402  17.654  0.00  0.00    +0.000 A 
ATOM      2  C   UNL     1       5.232   4.080  17.467  0.00  0.00    +0.000 A 
ATOM      3  C   UNL     1       3.899   3.739  17.662  0.00  0.00    +0.000 A 
ATOM      4  C   UNL     1       2.993   4.715  18.063  0.00  0.00    +0.000 A 
ATOM      5  C   UNL     1       3.447   6.017  18.247  0.00  0.00    +0.000 A 
ATOM      6  N   UNL     1       4.734   6.369  17.991  0.00  0.00    +0.000 NA
ENDROOT
BRANCH   1   7
ATOM      7  C   UNL     1       7.081   5.793  17.574  0.00  0.00    +0.000 C 
BRANCH   7   8
ATOM      8  S   UNL     1       7.412   7.539  17.182  0.00  0.00    +0.000 S 
BRANCH   8   9
ATOM      9  C   UNL     1       8.460   8.053  18.588  0.00  0.00    +0.000 C 
BRANCH   9  11
ATOM     10  N   UNL     1       9.707  10.017  19.669  0.00  0.00    +0.000 N 
ATOM     11  C   UNL     1       8.745   9.569  18.731  0.00  0.00    +0.000 C 
ATOM     12  O   UNL     1       8.229  10.336  17.932  0.00  0.00    +0.000 OA
ATOM     13  H   UNL     1      10.393   9.383  20.060  0.00  0.00    +0.000 HD
BRANCH  10  21
ATOM     14  C   UNL     1       8.481  11.628  22.002  0.00  0.00    +0.000 C 
ATOM     15  C   UNL     1       9.411  12.160  20.977  0.00  0.00    +0.000 A 
ATOM     16  C   UNL     1       9.768  13.497  21.245  0.00  0.00    +0.000 A 
ATOM     17  C   UNL     1      10.666  14.157  20.445  0.00  0.00    +0.000 A 
ATOM     18  C   UNL     1      11.218  13.479  19.374  0.00  0.00    +0.000 A 
ATOM     19  C   UNL     1      10.898  12.132  19.089  0.00  0.00    +0.000 A 
ATOM     20  C   UNL     1      11.532  11.565  17.851  0.00  0.00    +0.000 C 
ATOM     21  C   UNL     1      10.010  11.419  19.914  0.00  0.00    +0.000 A 
ENDBRANCH  10  21
ENDBRANCH   9  11
ENDBRANCH   8   9
ENDBRANCH   7   8
ENDBRANCH   1   7
BRANCH   5  22
ATOM     22  C   UNL     1       2.463   7.082  18.686  0.00  0.00    +0.000 C 
BRANCH  22  23
ATOM     23  S   UNL     1       2.520   8.625  17.716  0.00  0.00    +0.000 S 
BRANCH  23  24
ATOM     24  C   UNL     1       0.798   9.181  17.964  0.00  0.00    +0.000 C 
BRANCH  24  25
ATOM     25  C   UNL     1       0.672  10.196  19.124  0.00  0.00    +0.000 C 
ATOM     26  O   UNL     1       1.445  11.141  19.237  0.00  0.00    +0.000 OA
ATOM     27  N   UNL     1      -0.340   9.930  20.032  0.00  0.00    +0.000 N 
ATOM     28  H   UNL     1      -0.601   8.964  20.063  0.00  0.00    +0.000 HD
BRANCH  27  29
ATOM     29  C   UNL     1      -0.933  10.805  20.997  0.00  0.00    +0.000 A 
ATOM     30  C   UNL     1      -1.795  11.890  20.680  0.00  0.00    +0.000 A 
ATOM     31  C   UNL     1      -2.365  12.304  19.338  0.00  0.00    +0.000 C 
ATOM     32  C   UNL     1      -2.362  12.650  21.732  0.00  0.00    +0.000 A 
ATOM     33  C   UNL     1      -2.142  12.356  23.065  0.00  0.00    +0.000 A 
ATOM     34  C   UNL     1      -1.367  11.268  23.387  0.00  0.00    +0.000 A 
ATOM     35  C   UNL     1      -0.769  10.487  22.384  0.00  0.00    +0.000 A 
ATOM     36  C   UNL     1      -0.029   9.311  22.944  0.00  0.00    +0.000 C 
ENDBRANCH  27  29
ENDBRANCH  24  25
ENDBRANCH  23  24
ENDBRANCH  22  23
ENDBRANCH   5  22
TORSDOF 10
ENDMDL
MODEL 4
REMARK VINA RESULT:      -7.2      2.954      9.664
REMARK  Name = 
REMARK  14 active torsions:
REMARK  status: ('A' for Active; 'I' for Inactive)
REMARK    1  A    between atoms: C_1  and  C_2
REMARK    2  A    between atoms: C_6  and  C_7
REMARK    3  A    between atoms: C_8  and  N_9
REMARK    4  A    between atoms: C_10  and  C_12
REMARK    5  A    between atoms: C_12  and  S_13
REMARK    6  A    between atoms: S_13  and  C_14
REMARK    7  A    between atoms: C_14  and  C_15
REMARK    8  A    between atoms: C_19  and  C_20
REMARK    9  A    between atoms: C_20  and  S_21
REMARK   10  A    between atoms: S_21  and  C_22
REMARK   11  A    between atoms: C_22  and  C_23
REMARK   12  A    between atoms: N_25  and  C_26
REMARK   13  A    between atoms: C_27  and  C_28
REMARK   14  A    between atoms: C_32  and  C_33
REMARK                            x       y       z     vdW  Elec       q    Type
REMARK                         _______ _______ _______ _____ _____    ______ ____
ROOT
ATOM      1  C   UNL     1       2.286   6.443  20.022  0.00  0.00    +0.000 A 
ATOM      2  C   UNL     1       1.563   5.390  20.571  0.00  0.00    +0.000 A 
ATOM      3  C   UNL     1       2.084   4.103  20.492  0.00  0.00    +0.000 A 
ATOM      4  C   UNL     1       3.297   3.893  19.846  0.00  0.00    +0.000 A 
ATOM      5  C   UNL     1       3.967   4.984  19.305  0.00  0.00    +0.000 A 
ATOM      6  N   UNL     1       3.497   6.252  19.441  0.00  0.00    +0.000 NA
ENDROOT
BRANCH   1   7
ATOM      7  C   UNL     1       1.703   7.836  19.976  0.00  0.00    +0.000 C 
BRANCH   7   8
ATOM      8  S   UNL     1       1.269   8.567  21.585  0.00  0.00    +0.000 S 
BRANCH   8   9
ATOM      9  C   UNL     1      -0.213   9.551  21.169  0.00  0.00    +0.000 C 
BRANCH   9  11
ATOM     10  N   UNL     1       1.176  11.654  20.688  0.00  0.00    +0.000 N 
ATOM     11  C   UNL     1       0.020  10.883  20.412  0.00  0.00    +0.000 C 
ATOM     12  O   UNL     1      -0.733  11.170  19.493  0.00  0.00    +0.000 OA
ATOM     13  H   UNL     1       1.975  11.250  21.161  0.00  0.00    +0.000 HD
BRANCH  10  21
ATOM     14  C   UNL     1       0.410  14.355  21.975  0.00  0.00    +0.000 C 
ATOM     15  C   UNL     1       1.071  14.179  20.659  0.00  0.00    +0.000 A 
ATOM     16  C   UNL     1       1.416  15.419  20.082  0.00  0.00    +0.000 A 
ATOM     17  C   UNL     1       2.089  15.474  18.889  0.00  0.00    +0.000 A 
ATOM     18  C   UNL     1       2.426  14.286  18.267  0.00  0.00    +0.000 A 
ATOM     19  C   UNL     1       2.115  13.027  18.827  0.00  0.00    +0.000 A 
ATOM     20  C   UNL     1       2.492  11.837  17.991  0.00  0.00    +0.000 C 
ATOM     21  C   UNL     1       1.460  12.939  20.068  0.00  0.00    +0.000 A 
ENDBRANCH  10  21
ENDBRANCH   9  11
ENDBRANCH   8   9
ENDBRANCH   7   8
ENDBRANCH   1   7
BRANCH   5  22
ATOM     22  C   UNL     1       5.288   4.759  18.599  0.00  0.00    +0.000 C 
BRANCH  22  23
ATOM     23  S   UNL     1       6.715   5.608  19.353  0.00  0.00    +0.000 S 
BRANCH  23  24
ATOM     24  C   UNL     1       7.461   6.309  17.840  0.00  0.00    +0.000 C 
BRANCH  24  25
ATOM     25  C   UNL     1       7.597   5.257  16.714  0.00  0.00    +0.000 C 
ATOM     26  O   UNL     1       8.079   4.149  16.925  0.00  0.00    +0.000 OA
ATOM     27  N   UNL     1       7.177   5.676  15.462  0.00  0.00    +0.000 N 
ATOM     28  H   UNL     1       7.206   6.670  15.346  0.00  0.00    +0.000 HD
BRANCH  27  29
ATOM     29  C   UNL     1       6.859   4.886  14.310  0.00  0.00    +0.000 A 
ATOM     30  C   UNL     1       5.728   4.032  14.205  0.00  0.00    +0.000 A 
ATOM     31  C   UNL     1       4.580   3.836  15.174  0.00  0.00    +0.000 C 
ATOM     32  C   UNL     1       5.495   3.344  12.989  0.00  0.00    +0.000 A 
ATOM     33  C   UNL     1       6.306   3.498  11.880  0.00  0.00    +0.000 A 
ATOM     34  C   UNL     1       7.363   4.374  11.945  0.00  0.00    +0.000 A 
ATOM     35  C   UNL     1       7.648   5.073  13.129  0.00  0.00    +0.000 A 
ATOM     36  C   UNL     1       8.792   6.026  12.966  0.00  0.00    +0.000 C 
ENDBRANCH  27  29
ENDBRANCH  24  25
ENDBRANCH  23  24
ENDBRANCH  22  23
ENDBRANCH   5  22
TORSDOF 10
ENDMDL
MODEL 5
REMARK VINA RESULT:      -7.1      4.616      8.773
REMARK  Name = 
REMARK  14 active torsions:
REMARK  status: ('A' for Active; 'I' for Inactive)
REMARK    1  A    between atoms: C_1  and  C_2
REMARK    2  A    between atoms: C_6  and  C_7
REMARK    3  A    between atoms: C_8  and  N_9
REMARK    4  A    between atoms: C_10  and  C_12
REMARK    5  A    between atoms: C_12  and  S_13
REMARK    6  A    between atoms: S_13  and  C_14
REMARK    7  A    between atoms: C_14  and  C_15
REMARK    8  A    between atoms: C_19  and  C_20
REMARK    9  A    between atoms: C_20  and  S_21
REMARK   10  A    between atoms: S_21  and  C_22
REMARK   11  A    between atoms: C_22  and  C_23
REMARK   12  A    between atoms: N_25  and  C_26
REMARK   13  A    between atoms: C_27  and  C_28
REMARK   14  A    between atoms: C_32  and  C_33
REMARK                            x       y       z     vdW  Elec       q    Type
REMARK                         _______ _______ _______ _____ _____    ______ ____
ROOT
ATOM      1  C   UNL     1       0.752  12.182  19.436  0.00  0.00    +0.000 A 
ATOM      2  C   UNL     1       0.255  13.132  20.323  0.00  0.00    +0.000 A 
ATOM      3  C   UNL     1       0.940  14.332  20.476  0.00  0.00    +0.000 A 
ATOM      4  C   UNL     1       2.114  14.548  19.763  0.00  0.00    +0.000 A 
ATOM      5  C   UNL     1       2.567  13.556  18.902  0.00  0.00    +0.000 A 
ATOM      6  N   UNL     1       1.865  12.410  18.696  0.00  0.00    +0.000 NA
ENDROOT
BRANCH   1   7
ATOM      7  C   UNL     1       0.111  10.818  19.330  0.00  0.00    +0.000 C 
BRANCH   7   8
ATOM      8  S   UNL     1       0.960   9.627  18.247  0.00  0.00    +0.000 S 
BRANCH   8   9
ATOM      9  C   UNL     1       1.996   8.703  19.436  0.00  0.00    +0.000 C 
BRANCH   9  11
ATOM     10  N   UNL     1       2.710   6.322  20.071  0.00  0.00    +0.000 N 
ATOM     11  C   UNL     1       2.372   7.249  19.055  0.00  0.00    +0.000 C 
ATOM     12  O   UNL     1       2.235   6.898  17.892  0.00  0.00    +0.000 OA
ATOM     13  H   UNL     1       2.468   6.494  21.039  0.00  0.00    +0.000 HD
BRANCH  10  21
ATOM     14  C   UNL     1       5.531   5.572  19.060  0.00  0.00    +0.000 C 
ATOM     15  C   UNL     1       4.421   4.622  19.315  0.00  0.00    +0.000 A 
ATOM     16  C   UNL     1       4.832   3.285  19.138  0.00  0.00    +0.000 A 
ATOM     17  C   UNL     1       3.969   2.248  19.382  0.00  0.00    +0.000 A 
ATOM     18  C   UNL     1       2.688   2.543  19.810  0.00  0.00    +0.000 A 
ATOM     19  C   UNL     1       2.250   3.870  20.018  0.00  0.00    +0.000 A 
ATOM     20  C   UNL     1       0.810   4.019  20.420  0.00  0.00    +0.000 C 
ATOM     21  C   UNL     1       3.125   4.952  19.814  0.00  0.00    +0.000 A 
ENDBRANCH  10  21
ENDBRANCH   9  11
ENDBRANCH   8   9
ENDBRANCH   7   8
ENDBRANCH   1   7
BRANCH   5  22
ATOM     22  C   UNL     1       3.847  13.787  18.124  0.00  0.00    +0.000 C 
BRANCH  22  23
ATOM     23  S   UNL     1       4.911  15.116  18.776  0.00  0.00    +0.000 S 
BRANCH  23  24
ATOM     24  C   UNL     1       6.401  14.809  17.766  0.00  0.00    +0.000 C 
BRANCH  24  25
ATOM     25  C   UNL     1       7.646  14.514  18.634  0.00  0.00    +0.000 C 
ATOM     26  O   UNL     1       7.635  14.678  19.849  0.00  0.00    +0.000 OA
ATOM     27  N   UNL     1       8.768  14.097  17.934  0.00  0.00    +0.000 N 
ATOM     28  H   UNL     1       8.773  14.397  16.979  0.00  0.00    +0.000 HD
BRANCH  27  29
ATOM     29  C   UNL     1       9.941  13.442  18.427  0.00  0.00    +0.000 A 
ATOM     30  C   UNL     1      11.042  14.107  19.033  0.00  0.00    +0.000 A 
ATOM     31  C   UNL     1      11.199  15.570  19.396  0.00  0.00    +0.000 C 
ATOM     32  C   UNL     1      12.122  13.338  19.529  0.00  0.00    +0.000 A 
ATOM     33  C   UNL     1      12.136  11.956  19.484  0.00  0.00    +0.000 A 
ATOM     34  C   UNL     1      11.047  11.298  18.964  0.00  0.00    +0.000 A 
ATOM     35  C   UNL     1       9.954  12.010  18.445  0.00  0.00    +0.000 A 
ATOM     36  C   UNL     1       8.847  11.106  17.996  0.00  0.00    +0.000 C 
ENDBRANCH  27  29
ENDBRANCH  24  25
ENDBRANCH  23  24
ENDBRANCH  22  23
ENDBRANCH   5  22
TORSDOF 10
ENDMDL
MODEL 6
REMARK VINA RESULT:      -7.1      5.222      7.796
REMARK  Name = 
REMARK  14 active torsions:
REMARK  status: ('A' for Active; 'I' for Inactive)
REMARK    1  A    between atoms: C_1  and  C_2
REMARK    2  A    between atoms: C_6  and  C_7
REMARK    3  A    between atoms: C_8  and  N_9
REMARK    4  A    between atoms: C_10  and  C_12
REMARK    5  A    between atoms: C_12  and  S_13
REMARK    6  A    between atoms: S_13  and  C_14
REMARK    7  A    between atoms: C_14  and  C_15
REMARK    8  A    between atoms: C_19  and  C_20
REMARK    9  A    between atoms: C_20  and  S_21
REMARK   10  A    between atoms: S_21  and  C_22
REMARK   11  A    between atoms: C_22  and  C_23
REMARK   12  A    between atoms: N_25  and  C_26
REMARK   13  A    between atoms: C_27  and  C_28
REMARK   14  A    between atoms: C_32  and  C_33
REMARK                            x       y       z     vdW  Elec       q    Type
REMARK                         _______ _______ _______ _____ _____    ______ ____
ROOT
ATOM      1  C   UNL     1       9.347  11.571  18.875  0.00  0.00    +0.000 A 
ATOM      2  C   UNL     1      10.232  11.204  19.883  0.00  0.00    +0.000 A 
ATOM      3  C   UNL     1      10.814  12.198  20.661  0.00  0.00    +0.000 A 
ATOM      4  C   UNL     1      10.523  13.532  20.401  0.00  0.00    +0.000 A 
ATOM      5  C   UNL     1       9.641  13.837  19.370  0.00  0.00    +0.000 A 
ATOM      6  N   UNL     1       9.016  12.868  18.653  0.00  0.00    +0.000 NA
ENDROOT
BRANCH   1   7
ATOM      7  C   UNL     1       8.787  10.537  17.927  0.00  0.00    +0.000 C 
BRANCH   7   8
ATOM      8  S   UNL     1       8.524   8.879  18.629  0.00  0.00    +0.000 S 
BRANCH   8   9
ATOM      9  C   UNL     1       7.699   8.008  17.251  0.00  0.00    +0.000 C 
BRANCH   9  11
ATOM     10  N   UNL     1       5.508   6.748  16.806  0.00  0.00    +0.000 N 
ATOM     11  C   UNL     1       6.645   6.936  17.630  0.00  0.00    +0.000 C 
ATOM     12  O   UNL     1       6.890   6.183  18.560  0.00  0.00    +0.000 OA
ATOM     13  H   UNL     1       5.485   7.096  15.856  0.00  0.00    +0.000 HD
BRANCH  10  21
ATOM     14  C   UNL     1       5.648   3.752  16.069  0.00  0.00    +0.000 C 
ATOM     15  C   UNL     1       4.504   4.429  16.726  0.00  0.00    +0.000 A 
ATOM     16  C   UNL     1       3.494   3.513  17.082  0.00  0.00    +0.000 A 
ATOM     17  C   UNL     1       2.374   3.930  17.754  0.00  0.00    +0.000 A 
ATOM     18  C   UNL     1       2.260   5.269  18.080  0.00  0.00    +0.000 A 
ATOM     19  C   UNL     1       3.264   6.211  17.756  0.00  0.00    +0.000 A 
ATOM     20  C   UNL     1       2.955   7.635  18.121  0.00  0.00    +0.000 C 
ATOM     21  C   UNL     1       4.440   5.805  17.102  0.00  0.00    +0.000 A 
ENDBRANCH  10  21
ENDBRANCH   9  11
ENDBRANCH   8   9
ENDBRANCH   7   8
ENDBRANCH   1   7
BRANCH   5  22
ATOM     22  C   UNL     1       9.322  15.290  19.083  0.00  0.00    +0.000 C 
BRANCH  22  23
ATOM     23  S   UNL     1       7.811  15.564  18.099  0.00  0.00    +0.000 S 
BRANCH  23  24
ATOM     24  C   UNL     1       7.366  17.224  18.718  0.00  0.00    +0.000 C 
BRANCH  24  25
ATOM     25  C   UNL     1       5.964  17.248  19.371  0.00  0.00    +0.000 C 
ATOM     26  O   UNL     1       5.535  18.250  19.932  0.00  0.00    +0.000 OA
ATOM     27  N   UNL     1       5.264  16.054  19.307  0.00  0.00    +0.000 N 
ATOM     28  H   UNL     1       5.856  15.252  19.212  0.00  0.00    +0.000 HD
BRANCH  27  29
ATOM     29  C   UNL     1       3.865  15.822  19.501  0.00  0.00    +0.000 A 
ATOM     30  C   UNL     1       2.848  16.212  18.588  0.00  0.00    +0.000 A 
ATOM     31  C   UNL     1       2.980  16.829  17.210  0.00  0.00    +0.000 C 
ATOM     32  C   UNL     1       1.502  15.875  18.871  0.00  0.00    +0.000 A 
ATOM     33  C   UNL     1       1.135  15.146  19.987  0.00  0.00    +0.000 A 
ATOM     34  C   UNL     1       2.115  14.703  20.842  0.00  0.00    +0.000 A 
ATOM     35  C   UNL     1       3.465  15.019  20.618  0.00  0.00    +0.000 A 
ATOM     36  C   UNL     1       4.374  14.380  21.623  0.00  0.00    +0.000 C 
ENDBRANCH  27  29
ENDBRANCH  24  25
ENDBRANCH  23  24
ENDBRANCH  22  23
ENDBRANCH   5  22
TORSDOF 10
ENDMDL
MODEL 7
REMARK VINA RESULT:      -7.0      2.486     10.912
REMARK  Name = 
REMARK  14 active torsions:
REMARK  status: ('A' for Active; 'I' for Inactive)
REMARK    1  A    between atoms: C_1  and  C_2
REMARK    2  A    between atoms: C_6  and  C_7
REMARK    3  A    between atoms: C_8  and  N_9
REMARK    4  A    between atoms: C_10  and  C_12
REMARK    5  A    between atoms: C_12  and  S_13
REMARK    6  A    between atoms: S_13  and  C_14
REMARK    7  A    between atoms: C_14  and  C_15
REMARK    8  A    between atoms: C_19  and  C_20
REMARK    9  A    between atoms: C_20  and  S_21
REMARK   10  A    between atoms: S_21  and  C_22
REMARK   11  A    between atoms: C_22  and  C_23
REMARK   12  A    between atoms: N_25  and  C_26
REMARK   13  A    between atoms: C_27  and  C_28
REMARK   14  A    between atoms: C_32  and  C_33
REMARK                            x       y       z     vdW  Elec       q    Type
REMARK                         _______ _______ _______ _____ _____    ______ ____
ROOT
ATOM      1  C   UNL     1       1.515   9.187  19.317  0.00  0.00    +0.000 A 
ATOM      2  C   UNL     1       2.060   9.002  18.051  0.00  0.00    +0.000 A 
ATOM      3  C   UNL     1       2.519   7.739  17.694  0.00  0.00    +0.000 A 
ATOM      4  C   UNL     1       2.449   6.699  18.614  0.00  0.00    +0.000 A 
ATOM      5  C   UNL     1       1.906   6.949  19.869  0.00  0.00    +0.000 A 
ATOM      6  N   UNL     1       1.392   8.163  20.198  0.00  0.00    +0.000 NA
ENDROOT
BRANCH   1   7
ATOM      7  C   UNL     1       1.118  10.566  19.792  0.00  0.00    +0.000 C 
BRANCH   7   8
ATOM      8  S   UNL     1      -0.328  10.638  20.895  0.00  0.00    +0.000 S 
BRANCH   8   9
ATOM      9  C   UNL     1      -1.491  11.666  19.931  0.00  0.00    +0.000 C 
BRANCH   9  11
ATOM     10  N   UNL     1      -2.747  12.612  21.959  0.00  0.00    +0.000 N 
ATOM     11  C   UNL     1      -2.178  12.836  20.681  0.00  0.00    +0.000 C 
ATOM     12  O   UNL     1      -2.092  13.960  20.209  0.00  0.00    +0.000 OA
ATOM     13  H   UNL     1      -2.499  11.799  22.508  0.00  0.00    +0.000 HD
BRANCH  10  21
ATOM     14  C   UNL     1      -5.780  13.123  21.678  0.00  0.00    +0.000 C 
ATOM     15  C   UNL     1      -4.852  13.877  22.556  0.00  0.00    +0.000 A 
ATOM     16  C   UNL     1      -5.540  14.816  23.351  0.00  0.00    +0.000 A 
ATOM     17  C   UNL     1      -4.870  15.577  24.275  0.00  0.00    +0.000 A 
ATOM     18  C   UNL     1      -3.505  15.397  24.413  0.00  0.00    +0.000 A 
ATOM     19  C   UNL     1      -2.789  14.450  23.647  0.00  0.00    +0.000 A 
ATOM     20  C   UNL     1      -1.304  14.428  23.871  0.00  0.00    +0.000 C 
ATOM     21  C   UNL     1      -3.456  13.629  22.720  0.00  0.00    +0.000 A 
ENDBRANCH  10  21
ENDBRANCH   9  11
ENDBRANCH   8   9
ENDBRANCH   7   8
ENDBRANCH   1   7
BRANCH   5  22
ATOM     22  C   UNL     1       1.829   5.818  20.874  0.00  0.00    +0.000 C 
BRANCH  22  23
ATOM     23  S   UNL     1       1.527   4.170  20.153  0.00  0.00    +0.000 S 
BRANCH  23  24
ATOM     24  C   UNL     1       2.897   3.258  20.946  0.00  0.00    +0.000 C 
BRANCH  24  25
ATOM     25  C   UNL     1       4.146   3.173  20.037  0.00  0.00    +0.000 C 
ATOM     26  O   UNL     1       4.818   2.150  19.965  0.00  0.00    +0.000 OA
ATOM     27  N   UNL     1       4.461   4.338  19.357  0.00  0.00    +0.000 N 
ATOM     28  H   UNL     1       4.111   5.164  19.803  0.00  0.00    +0.000 HD
BRANCH  27  29
ATOM     29  C   UNL     1       5.314   4.513  18.221  0.00  0.00    +0.000 A 
ATOM     30  C   UNL     1       6.633   5.039  18.275  0.00  0.00    +0.000 A 
ATOM     31  C   UNL     1       7.466   5.418  19.483  0.00  0.00    +0.000 C 
ATOM     32  C   UNL     1       7.396   5.109  17.084  0.00  0.00    +0.000 A 
ATOM     33  C   UNL     1       6.923   4.651  15.869  0.00  0.00    +0.000 A 
ATOM     34  C   UNL     1       5.676   4.077  15.815  0.00  0.00    +0.000 A 
ATOM     35  C   UNL     1       4.871   3.992  16.962  0.00  0.00    +0.000 A 
ATOM     36  C   UNL     1       3.585   3.268  16.703  0.00  0.00    +0.000 C 
ENDBRANCH  27  29
ENDBRANCH  24  25
ENDBRANCH  23  24
ENDBRANCH  22  23
ENDBRANCH   5  22
TORSDOF 10
ENDMDL
MODEL 8
REMARK VINA RESULT:      -7.0      2.597     10.043
REMARK  Name = 
REMARK  14 active torsions:
REMARK  status: ('A' for Active; 'I' for Inactive)
REMARK    1  A    between atoms: C_1  and  C_2
REMARK    2  A    between atoms: C_6  and  C_7
REMARK    3  A    between atoms: C_8  and  N_9
REMARK    4  A    between atoms: C_10  and  C_12
REMARK    5  A    between atoms: C_12  and  S_13
REMARK    6  A    between atoms: S_13  and  C_14
REMARK    7  A    between atoms: C_14  and  C_15
REMARK    8  A    between atoms: C_19  and  C_20
REMARK    9  A    between atoms: C_20  and  S_21
REMARK   10  A    between atoms: S_21  and  C_22
REMARK   11  A    between atoms: C_22  and  C_23
REMARK   12  A    between atoms: N_25  and  C_26
REMARK   13  A    between atoms: C_27  and  C_28
REMARK   14  A    between atoms: C_32  and  C_33
REMARK                            x       y       z     vdW  Elec       q    Type
REMARK                         _______ _______ _______ _____ _____    ______ ____
ROOT
ATOM      1  C   UNL     1       1.021   9.220  19.764  0.00  0.00    +0.000 A 
ATOM      2  C   UNL     1       1.437   9.444  18.456  0.00  0.00    +0.000 A 
ATOM      3  C   UNL     1       2.227   8.487  17.828  0.00  0.00    +0.000 A 
ATOM      4  C   UNL     1       2.604   7.345  18.524  0.00  0.00    +0.000 A 
ATOM      5  C   UNL     1       2.167   7.183  19.834  0.00  0.00    +0.000 A 
ATOM      6  N   UNL     1       1.339   8.081  20.429  0.00  0.00    +0.000 NA
ENDROOT
BRANCH   1   7
ATOM      7  C   UNL     1       0.268  10.285  20.526  0.00  0.00    +0.000 C 
BRANCH   7   8
ATOM      8  S   UNL     1       1.228  11.765  20.975  0.00  0.00    +0.000 S 
BRANCH   8   9
ATOM      9  C   UNL     1       0.817  12.913  19.614  0.00  0.00    +0.000 C 
BRANCH   9  11
ATOM     10  N   UNL     1      -1.605  12.065  19.620  0.00  0.00    +0.000 N 
ATOM     11  C   UNL     1      -0.557  12.718  18.924  0.00  0.00    +0.000 C 
ATOM     12  O   UNL     1      -0.747  13.254  17.843  0.00  0.00    +0.000 OA
ATOM     13  H   UNL     1      -1.578  11.955  20.626  0.00  0.00    +0.000 HD
BRANCH  10  21
ATOM     14  C   UNL     1      -2.050  10.030  17.339  0.00  0.00    +0.000 C 
ATOM     15  C   UNL     1      -3.099  10.871  17.967  0.00  0.00    +0.000 A 
ATOM     16  C   UNL     1      -4.380  10.561  17.467  0.00  0.00    +0.000 A 
ATOM     17  C   UNL     1      -5.496  11.187  17.961  0.00  0.00    +0.000 A 
ATOM     18  C   UNL     1      -5.336  12.125  18.964  0.00  0.00    +0.000 A 
ATOM     19  C   UNL     1      -4.069  12.444  19.503  0.00  0.00    +0.000 A 
ATOM     20  C   UNL     1      -4.063  13.531  20.539  0.00  0.00    +0.000 C 
ATOM     21  C   UNL     1      -2.912  11.790  19.043  0.00  0.00    +0.000 A 
ENDBRANCH  10  21
ENDBRANCH   9  11
ENDBRANCH   8   9
ENDBRANCH   7   8
ENDBRANCH   1   7
BRANCH   5  22
ATOM     22  C   UNL     1       2.578   5.940  20.597  0.00  0.00    +0.000 C 
BRANCH  22  23
ATOM     23  S   UNL     1       1.582   4.455  20.236  0.00  0.00    +0.000 S 
BRANCH  23  24
ATOM     24  C   UNL     1       2.752   3.180  20.819  0.00  0.00    +0.000 C 
BRANCH  24  25
ATOM     25  C   UNL     1       4.050   3.150  19.978  0.00  0.00    +0.000 C 
ATOM     26  O   UNL     1       4.811   2.189  20.006  0.00  0.00    +0.000 OA
ATOM     27  N   UNL     1       4.299   4.295  19.238  0.00  0.00    +0.000 N 
ATOM     28  H   UNL     1       3.857   5.112  19.611  0.00  0.00    +0.000 HD
BRANCH  27  29
ATOM     29  C   UNL     1       5.193   4.473  18.134  0.00  0.00    +0.000 A 
ATOM     30  C   UNL     1       6.497   5.032  18.233  0.00  0.00    +0.000 A 
ATOM     31  C   UNL     1       7.271   5.449  19.468  0.00  0.00    +0.000 C 
ATOM     32  C   UNL     1       7.305   5.104  17.073  0.00  0.00    +0.000 A 
ATOM     33  C   UNL     1       6.894   4.617  15.847  0.00  0.00    +0.000 A 
ATOM     34  C   UNL     1       5.664   4.011  15.751  0.00  0.00    +0.000 A 
ATOM     35  C   UNL     1       4.815   3.924  16.866  0.00  0.00    +0.000 A 
ATOM     36  C   UNL     1       3.558   3.165  16.567  0.00  0.00    +0.000 C 
ENDBRANCH  27  29
ENDBRANCH  24  25
ENDBRANCH  23  24
ENDBRANCH  22  23
ENDBRANCH   5  22
TORSDOF 10
ENDMDL
MODEL 9
REMARK VINA RESULT:      -7.0      3.451     10.717
REMARK  Name = 
REMARK  14 active torsions:
REMARK  status: ('A' for Active; 'I' for Inactive)
REMARK    1  A    between atoms: C_1  and  C_2
REMARK    2  A    between atoms: C_6  and  C_7
REMARK    3  A    between atoms: C_8  and  N_9
REMARK    4  A    between atoms: C_10  and  C_12
REMARK    5  A    between atoms: C_12  and  S_13
REMARK    6  A    between atoms: S_13  and  C_14
REMARK    7  A    between atoms: C_14  and  C_15
REMARK    8  A    between atoms: C_19  and  C_20
REMARK    9  A    between atoms: C_20  and  S_21
REMARK   10  A    between atoms: S_21  and  C_22
REMARK   11  A    between atoms: C_22  and  C_23
REMARK   12  A    between atoms: N_25  and  C_26
REMARK   13  A    between atoms: C_27  and  C_28
REMARK   14  A    between atoms: C_32  and  C_33
REMARK                            x       y       z     vdW  Elec       q    Type
REMARK                         _______ _______ _______ _____ _____    ______ ____
ROOT
ATOM      1  C   UNL     1      -0.519  11.948  22.136  0.00  0.00    +0.000 A 
ATOM      2  C   UNL     1      -1.138  11.256  23.172  0.00  0.00    +0.000 A 
ATOM      3  C   UNL     1      -0.952   9.881  23.269  0.00  0.00    +0.000 A 
ATOM      4  C   UNL     1      -0.178   9.226  22.318  0.00  0.00    +0.000 A 
ATOM      5  C   UNL     1       0.405   9.970  21.298  0.00  0.00    +0.000 A 
ATOM      6  N   UNL     1       0.284  11.322  21.240  0.00  0.00    +0.000 NA
ENDROOT
BRANCH   1   7
ATOM      7  C   UNL     1      -0.791  13.418  21.921  0.00  0.00    +0.000 C 
BRANCH   7   8
ATOM      8  S   UNL     1      -1.592  14.286  23.305  0.00  0.00    +0.000 S 
BRANCH   8   9
ATOM      9  C   UNL     1      -3.204  14.753  22.580  0.00  0.00    +0.000 C 
BRANCH   9  11
ATOM     10  N   UNL     1      -4.300  13.766  20.481  0.00  0.00    +0.000 N 
ATOM     11  C   UNL     1      -3.997  13.634  21.858  0.00  0.00    +0.000 C 
ATOM     12  O   UNL     1      -4.224  12.597  22.465  0.00  0.00    +0.000 OA
ATOM     13  H   UNL     1      -3.804  14.426  19.895  0.00  0.00    +0.000 HD
BRANCH  10  21
ATOM     14  C   UNL     1      -7.383  13.618  20.601  0.00  0.00    +0.000 C 
ATOM     15  C   UNL     1      -6.503  12.719  19.817  0.00  0.00    +0.000 A 
ATOM     16  C   UNL     1      -7.251  11.823  19.026  0.00  0.00    +0.000 A 
ATOM     17  C   UNL     1      -6.624  10.943  18.180  0.00  0.00    +0.000 A 
ATOM     18  C   UNL     1      -5.243  10.959  18.117  0.00  0.00    +0.000 A 
ATOM     19  C   UNL     1      -4.464  11.858  18.880  0.00  0.00    +0.000 A 
ATOM     20  C   UNL     1      -2.977  11.700  18.745  0.00  0.00    +0.000 C 
ATOM     21  C   UNL     1      -5.080  12.797  19.726  0.00  0.00    +0.000 A 
ENDBRANCH  10  21
ENDBRANCH   9  11
ENDBRANCH   8   9
ENDBRANCH   7   8
ENDBRANCH   1   7
BRANCH   5  22
ATOM     22  C   UNL     1       1.248   9.258  20.260  0.00  0.00    +0.000 C 
BRANCH  22  23
ATOM     23  S   UNL     1       1.440  10.153  18.683  0.00  0.00    +0.000 S 
BRANCH  23  24
ATOM     24  C   UNL     1       1.390   8.729  17.540  0.00  0.00    +0.000 C 
BRANCH  24  25
ATOM     25  C   UNL     1       2.539   7.727  17.804  0.00  0.00    +0.000 C 
ATOM     26  O   UNL     1       3.695   8.104  17.963  0.00  0.00    +0.000 OA
ATOM     27  N   UNL     1       2.168   6.392  17.803  0.00  0.00    +0.000 N 
ATOM     28  H   UNL     1       1.339   6.211  17.272  0.00  0.00    +0.000 HD
BRANCH  27  29
ATOM     29  C   UNL     1       2.877   5.263  18.324  0.00  0.00    +0.000 A 
ATOM     30  C   UNL     1       3.989   4.644  17.689  0.00  0.00    +0.000 A 
ATOM     31  C   UNL     1       4.734   5.062  16.438  0.00  0.00    +0.000 C 
ATOM     32  C   UNL     1       4.638   3.565  18.336  0.00  0.00    +0.000 A 
ATOM     33  C   UNL     1       4.260   3.109  19.585  0.00  0.00    +0.000 A 
ATOM     34  C   UNL     1       3.232   3.743  20.241  0.00  0.00    +0.000 A 
ATOM     35  C   UNL     1       2.544   4.809  19.642  0.00  0.00    +0.000 A 
ATOM     36  C   UNL     1       1.512   5.404  20.551  0.00  0.00    +0.000 C 
ENDBRANCH  27  29
ENDBRANCH  24  25
ENDBRANCH  23  24
ENDBRANCH  22  23
ENDBRANCH   5  22
TORSDOF 10
ENDMDL
