MODEL 1
REMARK VINA RESULT:      -7.9      0.000      0.000
REMARK  Name = 
REMARK  4 active torsions:
REMARK  status: ('A' for Active; 'I' for Inactive)
REMARK    1  A    between atoms: C_1  and  C_2
REMARK    2  A    between atoms: C_5  and  C_6
REMARK    3  A    between atoms: N_15  and  N_16
REMARK    4  A    between atoms: C_17  and  C_18
REMARK                            x       y       z     vdW  Elec       q    Type
REMARK                         _______ _______ _______ _____ _____    ______ ____
ROOT
ATOM      1  N   UNL     1      -0.506  11.676  19.909  0.00  0.00    +0.000 N 
ATOM      2  C   UNL     1      -1.816  11.624  19.367  0.00  0.00    +0.000 A 
ATOM      3  N   UNL     1      -2.845  12.078  20.033  0.00  0.00    +0.000 NA
ATOM      4  C   UNL     1      -2.674  12.621  21.309  0.00  0.00    +0.000 A 
ATOM      5  C   UNL     1      -3.782  13.052  22.041  0.00  0.00    +0.000 A 
ATOM      6  C   UNL     1      -3.634  13.586  23.325  0.00  0.00    +0.000 A 
ATOM      7  C   UNL     1      -2.365  13.724  23.886  0.00  0.00    +0.000 A 
ATOM      8  C   UNL     1      -1.255  13.286  23.172  0.00  0.00    +0.000 A 
ATOM      9  C   UNL     1      -1.419  12.713  21.910  0.00  0.00    +0.000 A 
ATOM     10  C   UNL     1      -0.278  12.116  21.212  0.00  0.00    +0.000 A 
ATOM     11  O   UNL     1       0.789  12.001  21.816  0.00  0.00    +0.000 OA
ENDROOT
BRANCH   1  19
ATOM     12  C   UNL     1       1.586  13.023  18.065  0.00  0.00    +0.000 C 
ATOM     13  C   UNL     1       1.508  11.574  18.443  0.00  0.00    +0.000 C 
ATOM     14  N   UNL     1       2.386  10.735  17.974  0.00  0.00    +0.000 NA
ATOM     15  C   UNL     1       2.062   9.526  18.561  0.00  0.00    +0.000 C 
ATOM     16  C   UNL     1       2.586   8.358  18.156  0.00  0.00    +0.000 C 
ATOM     17  C   UNL     1       0.984   9.752  19.582  0.00  0.00    +0.000 C 
ATOM     18  O   UNL     1       0.582   8.994  20.442  0.00  0.00    +0.000 OA
ATOM     19  N   UNL     1       0.592  11.034  19.285  0.00  0.00    +0.000 N 
BRANCH  16  20
ATOM     20  C   UNL     1       2.176   7.048  18.653  0.00  0.00    +0.000 A 
ATOM     21  C   UNL     1       2.208   6.772  20.025  0.00  0.00    +0.000 A 
ATOM     22  C   UNL     1       1.944   5.480  20.491  0.00  0.00    +0.000 A 
ATOM     23  C   UNL     1       1.619   4.477  19.582  0.00  0.00    +0.000 A 
ATOM     24 CL   UNL     1       1.357   2.870  20.145  0.00  0.00    +0.000 Cl
ATOM     25  C   UNL     1       1.519   4.759  18.223  0.00  0.00    +0.000 A 
ATOM     26  C   UNL     1       1.793   6.044  17.758  0.00  0.00    +0.000 A 
ENDBRANCH  16  20
ENDBRANCH   1  19
BRANCH   2  27
ATOM     27  C   UNL     1      -2.095  10.954  18.061  0.00  0.00    +0.000 A 
ATOM     28  C   UNL     1      -2.104  11.756  16.910  0.00  0.00    +0.000 A 
ATOM     29  C   UNL     1      -2.659  11.280  15.720  0.00  0.00    +0.000 A 
ATOM     30  C   UNL     1      -3.189   9.996  15.673  0.00  0.00    +0.000 A 
ATOM     31  C   UNL     1      -3.068   9.152  16.779  0.00  0.00    +0.000 A 
ATOM     32  C   UNL     1      -2.480   9.616  17.959  0.00  0.00    +0.000 A 
ENDBRANCH   2  27
TORSDOF 3
ENDMDL
MODEL 2
REMARK VINA RESULT:      -7.8      4.012      7.334
REMARK  Name = 
REMARK  4 active torsions:
REMARK  status: ('A' for Active; 'I' for Inactive)
REMARK    1  A    between atoms: C_1  and  C_2
REMARK    2  A    between atoms: C_5  and  C_6
REMARK    3  A    between atoms: N_15  and  N_16
REMARK    4  A    between atoms: C_17  and  C_18
REMARK                            x       y       z     vdW  Elec       q    Type
REMARK                         _______ _______ _______ _____ _____    ______ ____
ROOT
ATOM      1  N   UNL     1       0.773  12.558  20.451  0.00  0.00    +0.000 N 
ATOM      2  C   UNL     1       0.481  12.370  19.076  0.00  0.00    +0.000 A 
ATOM      3  N   UNL     1       1.196  12.946  18.145  0.00  0.00    +0.000 NA
ATOM      4  C   UNL     1       2.265  13.775  18.491  0.00  0.00    +0.000 A 
ATOM      5  C   UNL     1       2.990  14.435  17.496  0.00  0.00    +0.000 A 
ATOM      6  C   UNL     1       4.057  15.279  17.821  0.00  0.00    +0.000 A 
ATOM      7  C   UNL     1       4.434  15.453  19.153  0.00  0.00    +0.000 A 
ATOM      8  C   UNL     1       3.711  14.811  20.153  0.00  0.00    +0.000 A 
ATOM      9  C   UNL     1       2.621  14.007  19.820  0.00  0.00    +0.000 A 
ATOM     10  C   UNL     1       1.764  13.445  20.867  0.00  0.00    +0.000 A 
ATOM     11  O   UNL     1       1.938  13.811  22.030  0.00  0.00    +0.000 OA
ENDROOT
BRANCH   1  19
ATOM     12  C   UNL     1       1.024   9.862  21.955  0.00  0.00    +0.000 C 
ATOM     13  C   UNL     1      -0.039  10.904  22.132  0.00  0.00    +0.000 C 
ATOM     14  N   UNL     1      -0.994  10.714  22.995  0.00  0.00    +0.000 NA
ATOM     15  C   UNL     1      -1.747  11.872  22.945  0.00  0.00    +0.000 C 
ATOM     16  C   UNL     1      -2.956  11.979  23.517  0.00  0.00    +0.000 C 
ATOM     17  C   UNL     1      -1.045  12.872  22.072  0.00  0.00    +0.000 C 
ATOM     18  O   UNL     1      -1.271  14.059  21.944  0.00  0.00    +0.000 OA
ATOM     19  N   UNL     1      -0.088  12.089  21.474  0.00  0.00    +0.000 N 
BRANCH  16  20
ATOM     20  C   UNL     1      -3.842  13.130  23.378  0.00  0.00    +0.000 A 
ATOM     21  C   UNL     1      -3.721  14.223  24.246  0.00  0.00    +0.000 A 
ATOM     22  C   UNL     1      -4.651  15.266  24.200  0.00  0.00    +0.000 A 
ATOM     23  C   UNL     1      -5.681  15.226  23.265  0.00  0.00    +0.000 A 
ATOM     24 CL   UNL     1      -6.866  16.476  23.248  0.00  0.00    +0.000 Cl
ATOM     25  C   UNL     1      -5.769  14.177  22.353  0.00  0.00    +0.000 A 
ATOM     26  C   UNL     1      -4.848  13.132  22.407  0.00  0.00    +0.000 A 
ENDBRANCH  16  20
ENDBRANCH   1  19
BRANCH   2  27
ATOM     27  C   UNL     1      -0.716  11.594  18.631  0.00  0.00    +0.000 A 
ATOM     28  C   UNL     1      -0.503  10.292  18.152  0.00  0.00    +0.000 A 
ATOM     29  C   UNL     1      -1.501   9.631  17.433  0.00  0.00    +0.000 A 
ATOM     30  C   UNL     1      -2.719  10.262  17.207  0.00  0.00    +0.000 A 
ATOM     31  C   UNL     1      -2.978  11.504  17.789  0.00  0.00    +0.000 A 
ATOM     32  C   UNL     1      -1.992  12.151  18.540  0.00  0.00    +0.000 A 
ENDBRANCH   2  27
TORSDOF 3
ENDMDL
MODEL 3
REMARK VINA RESULT:      -7.8      4.456      7.881
REMARK  Name = 
REMARK  4 active torsions:
REMARK  status: ('A' for Active; 'I' for Inactive)
REMARK    1  A    between atoms: C_1  and  C_2
REMARK    2  A    between atoms: C_5  and  C_6
REMARK    3  A    between atoms: N_15  and  N_16
REMARK    4  A    between atoms: C_17  and  C_18
REMARK                            x       y       z     vdW  Elec       q    Type
REMARK                         _______ _______ _______ _____ _____    ______ ____
ROOT
ATOM      1  N   UNL     1      -0.418  12.601  20.921  0.00  0.00    +0.000 N 
ATOM      2  C   UNL     1      -0.569  12.197  19.569  0.00  0.00    +0.000 A 
ATOM      3  N   UNL     1       0.338  12.482  18.671  0.00  0.00    +0.000 NA
ATOM      4  C   UNL     1       1.479  13.205  19.027  0.00  0.00    +0.000 A 
ATOM      5  C   UNL     1       2.416  13.558  18.053  0.00  0.00    +0.000 A 
ATOM      6  C   UNL     1       3.559  14.292  18.385  0.00  0.00    +0.000 A 
ATOM      7  C   UNL     1       3.795  14.662  19.710  0.00  0.00    +0.000 A 
ATOM      8  C   UNL     1       2.862  14.328  20.685  0.00  0.00    +0.000 A 
ATOM      9  C   UNL     1       1.704  13.634  20.335  0.00  0.00    +0.000 A 
ATOM     10  C   UNL     1       0.647  13.405  21.323  0.00  0.00    +0.000 A 
ATOM     11  O   UNL     1       0.736  13.957  22.420  0.00  0.00    +0.000 OA
ENDROOT
BRANCH   1  19
ATOM     12  C   UNL     1      -0.671  10.348  23.032  0.00  0.00    +0.000 C 
ATOM     13  C   UNL     1      -1.633  11.472  22.784  0.00  0.00    +0.000 C 
ATOM     14  N   UNL     1      -2.716  11.565  23.499  0.00  0.00    +0.000 NA
ATOM     15  C   UNL     1      -3.327  12.724  23.057  0.00  0.00    +0.000 C 
ATOM     16  C   UNL     1      -4.587  13.051  23.382  0.00  0.00    +0.000 C 
ATOM     17  C   UNL     1      -2.406  13.428  22.103  0.00  0.00    +0.000 C 
ATOM     18  O   UNL     1      -2.484  14.559  21.667  0.00  0.00    +0.000 OA
ATOM     19  N   UNL     1      -1.461  12.459  21.870  0.00  0.00    +0.000 N 
BRANCH  16  20
ATOM     20  C   UNL     1      -5.317  14.190  22.835  0.00  0.00    +0.000 A 
ATOM     21  C   UNL     1      -5.958  14.089  21.594  0.00  0.00    +0.000 A 
ATOM     22  C   UNL     1      -6.543  15.215  21.009  0.00  0.00    +0.000 A 
ATOM     23  C   UNL     1      -6.511  16.433  21.682  0.00  0.00    +0.000 A 
ATOM     24 CL   UNL     1      -7.174  17.838  20.936  0.00  0.00    +0.000 Cl
ATOM     25  C   UNL     1      -5.936  16.528  22.947  0.00  0.00    +0.000 A 
ATOM     26  C   UNL     1      -5.343  15.407  23.524  0.00  0.00    +0.000 A 
ENDBRANCH  16  20
ENDBRANCH   1  19
BRANCH   2  27
ATOM     27  C   UNL     1      -1.813  11.524  19.090  0.00  0.00    +0.000 A 
ATOM     28  C   UNL     1      -1.674  10.279  18.458  0.00  0.00    +0.000 A 
ATOM     29  C   UNL     1      -2.726   9.743  17.711  0.00  0.00    +0.000 A 
ATOM     30  C   UNL     1      -3.923  10.442  17.609  0.00  0.00    +0.000 A 
ATOM     31  C   UNL     1      -4.107  11.618  18.338  0.00  0.00    +0.000 A 
ATOM     32  C   UNL     1      -3.067  12.136  19.115  0.00  0.00    +0.000 A 
ENDBRANCH   2  27
TORSDOF 3
ENDMDL
MODEL 4
REMARK VINA RESULT:      -7.7      2.185      3.569
REMARK  Name = 
REMARK  4 active torsions:
REMARK  status: ('A' for Active; 'I' for Inactive)
REMARK    1  A    between atoms: C_1  and  C_2
REMARK    2  A    between atoms: C_5  and  C_6
REMARK    3  A    between atoms: N_15  and  N_16
REMARK    4  A    between atoms: C_17  and  C_18
REMARK                            x       y       z     vdW  Elec       q    Type
REMARK                         _______ _______ _______ _____ _____    ______ ____
ROOT
ATOM      1  N   UNL     1       0.654  11.871  19.639  0.00  0.00    +0.000 N 
ATOM      2  C   UNL     1      -0.425  12.377  18.868  0.00  0.00    +0.000 A 
ATOM      3  N   UNL     1      -0.468  13.631  18.501  0.00  0.00    +0.000 NA
ATOM      4  C   UNL     1       0.553  14.508  18.873  0.00  0.00    +0.000 A 
ATOM      5  C   UNL     1       0.475  15.860  18.529  0.00  0.00    +0.000 A 
ATOM      6  C   UNL     1       1.480  16.758  18.902  0.00  0.00    +0.000 A 
ATOM      7  C   UNL     1       2.598  16.308  19.604  0.00  0.00    +0.000 A 
ATOM      8  C   UNL     1       2.680  14.967  19.964  0.00  0.00    +0.000 A 
ATOM      9  C   UNL     1       1.650  14.089  19.625  0.00  0.00    +0.000 A 
ATOM     10  C   UNL     1       1.655  12.711  20.123  0.00  0.00    +0.000 A 
ATOM     11  O   UNL     1       2.502  12.388  20.956  0.00  0.00    +0.000 OA
ENDROOT
BRANCH   1  19
ATOM     12  C   UNL     1      -0.540  11.072  22.383  0.00  0.00    +0.000 C 
ATOM     13  C   UNL     1       0.160  10.178  21.403  0.00  0.00    +0.000 C 
ATOM     14  N   UNL     1       0.320   8.916  21.677  0.00  0.00    +0.000 NA
ATOM     15  C   UNL     1       0.933   8.390  20.556  0.00  0.00    +0.000 C 
ATOM     16  C   UNL     1       1.479   7.164  20.533  0.00  0.00    +0.000 C 
ATOM     17  C   UNL     1       0.979   9.442  19.485  0.00  0.00    +0.000 C 
ATOM     18  O   UNL     1       1.243   9.315  18.306  0.00  0.00    +0.000 OA
ATOM     19  N   UNL     1       0.636  10.568  20.194  0.00  0.00    +0.000 N 
BRANCH  16  20
ATOM     20  C   UNL     1       2.250   6.618  19.421  0.00  0.00    +0.000 A 
ATOM     21  C   UNL     1       1.851   5.428  18.802  0.00  0.00    +0.000 A 
ATOM     22  C   UNL     1       2.659   4.835  17.827  0.00  0.00    +0.000 A 
ATOM     23  C   UNL     1       3.849   5.452  17.454  0.00  0.00    +0.000 A 
ATOM     24 CL   UNL     1       4.880   4.693  16.301  0.00  0.00    +0.000 Cl
ATOM     25  C   UNL     1       4.221   6.671  18.016  0.00  0.00    +0.000 A 
ATOM     26  C   UNL     1       3.420   7.256  18.996  0.00  0.00    +0.000 A 
ENDBRANCH  16  20
ENDBRANCH   1  19
BRANCH   2  27
ATOM     27  C   UNL     1      -1.608  11.529  18.532  0.00  0.00    +0.000 A 
ATOM     28  C   UNL     1      -1.456  10.578  17.511  0.00  0.00    +0.000 A 
ATOM     29  C   UNL     1      -2.575   9.981  16.927  0.00  0.00    +0.000 A 
ATOM     30  C   UNL     1      -3.848  10.319  17.375  0.00  0.00    +0.000 A 
ATOM     31  C   UNL     1      -3.996  11.168  18.472  0.00  0.00    +0.000 A 
ATOM     32  C   UNL     1      -2.875  11.739  19.081  0.00  0.00    +0.000 A 
ENDBRANCH   2  27
TORSDOF 3
ENDMDL
MODEL 5
REMARK VINA RESULT:      -7.7      3.156      6.364
REMARK  Name = 
REMARK  4 active torsions:
REMARK  status: ('A' for Active; 'I' for Inactive)
REMARK    1  A    between atoms: C_1  and  C_2
REMARK    2  A    between atoms: C_5  and  C_6
REMARK    3  A    between atoms: N_15  and  N_16
REMARK    4  A    between atoms: C_17  and  C_18
REMARK                            x       y       z     vdW  Elec       q    Type
REMARK                         _______ _______ _______ _____ _____    ______ ____
ROOT
ATOM      1  N   UNL     1      -0.088  13.532  20.810  0.00  0.00    +0.000 N 
ATOM      2  C   UNL     1       0.929  12.564  21.010  0.00  0.00    +0.000 A 
ATOM      3  N   UNL     1       2.191  12.902  21.037  0.00  0.00    +0.000 NA
ATOM      4  C   UNL     1       2.568  14.235  20.856  0.00  0.00    +0.000 A 
ATOM      5  C   UNL     1       3.920  14.583  20.826  0.00  0.00    +0.000 A 
ATOM      6  C   UNL     1       4.319  15.909  20.635  0.00  0.00    +0.000 A 
ATOM      7  C   UNL     1       3.363  16.916  20.497  0.00  0.00    +0.000 A 
ATOM      8  C   UNL     1       2.014  16.580  20.512  0.00  0.00    +0.000 A 
ATOM      9  C   UNL     1       1.629  15.247  20.659  0.00  0.00    +0.000 A 
ATOM     10  C   UNL     1       0.221  14.862  20.530  0.00  0.00    +0.000 A 
ATOM     11  O   UNL     1      -0.589  15.708  20.148  0.00  0.00    +0.000 OA
ENDROOT
BRANCH   1  19
ATOM     12  C   UNL     1      -2.395  13.850  22.853  0.00  0.00    +0.000 C 
ATOM     13  C   UNL     1      -2.475  13.255  21.478  0.00  0.00    +0.000 C 
ATOM     14  N   UNL     1      -3.611  12.799  21.036  0.00  0.00    +0.000 NA
ATOM     15  C   UNL     1      -3.343  12.389  19.743  0.00  0.00    +0.000 C 
ATOM     16  C   UNL     1      -4.199  11.645  19.025  0.00  0.00    +0.000 C 
ATOM     17  C   UNL     1      -1.947  12.803  19.379  0.00  0.00    +0.000 C 
ATOM     18  O   UNL     1      -1.419  12.815  18.285  0.00  0.00    +0.000 OA
ATOM     19  N   UNL     1      -1.443  13.169  20.603  0.00  0.00    +0.000 N 
BRANCH  16  20
ATOM     20  C   UNL     1      -3.906  11.079  17.712  0.00  0.00    +0.000 A 
ATOM     21  C   UNL     1      -3.040   9.985  17.592  0.00  0.00    +0.000 A 
ATOM     22  C   UNL     1      -2.654   9.526  16.329  0.00  0.00    +0.000 A 
ATOM     23  C   UNL     1      -3.162  10.144  15.190  0.00  0.00    +0.000 A 
ATOM     24 CL   UNL     1      -2.640   9.624  13.633  0.00  0.00    +0.000 Cl
ATOM     25  C   UNL     1      -4.076  11.188  15.300  0.00  0.00    +0.000 A 
ATOM     26  C   UNL     1      -4.451  11.653  16.559  0.00  0.00    +0.000 A 
ENDBRANCH  16  20
ENDBRANCH   1  19
BRANCH   2  27
ATOM     27  C   UNL     1       0.613  11.106  21.094  0.00  0.00    +0.000 A 
ATOM     28  C   UNL     1       0.102  10.622  22.308  0.00  0.00    +0.000 A 
ATOM     29  C   UNL     1       0.083   9.251  22.571  0.00  0.00    +0.000 A 
ATOM     30  C   UNL     1       0.558   8.360  21.615  0.00  0.00    +0.000 A 
ATOM     31  C   UNL     1       0.949   8.829  20.360  0.00  0.00    +0.000 A 
ATOM     32  C   UNL     1       0.934  10.199  20.082  0.00  0.00    +0.000 A 
ENDBRANCH   2  27
TORSDOF 3
ENDMDL
MODEL 6
REMARK VINA RESULT:      -7.7      3.717      6.811
REMARK  Name = 
REMARK  4 active torsions:
REMARK  status: ('A' for Active; 'I' for Inactive)
REMARK    1  A    between atoms: C_1  and  C_2
REMARK    2  A    between atoms: C_5  and  C_6
REMARK    3  A    between atoms: N_15  and  N_16
REMARK    4  A    between atoms: C_17  and  C_18
REMARK                            x       y       z     vdW  Elec       q    Type
REMARK                         _______ _______ _______ _____ _____    ______ ____
ROOT
ATOM      1  N   UNL     1       0.508  12.362  19.336  0.00  0.00    +0.000 N 
ATOM      2  C   UNL     1       0.892  12.240  20.697  0.00  0.00    +0.000 A 
ATOM      3  N   UNL     1       1.741  13.072  21.239  0.00  0.00    +0.000 NA
ATOM      4  C   UNL     1       2.301  14.102  20.479  0.00  0.00    +0.000 A 
ATOM      5  C   UNL     1       3.252  14.953  21.046  0.00  0.00    +0.000 A 
ATOM      6  C   UNL     1       3.834  15.983  20.300  0.00  0.00    +0.000 A 
ATOM      7  C   UNL     1       3.449  16.194  18.976  0.00  0.00    +0.000 A 
ATOM      8  C   UNL     1       2.513  15.344  18.397  0.00  0.00    +0.000 A 
ATOM      9  C   UNL     1       1.972  14.293  19.137  0.00  0.00    +0.000 A 
ATOM     10  C   UNL     1       1.099  13.306  18.498  0.00  0.00    +0.000 A 
ATOM     11  O   UNL     1       0.969  13.339  17.274  0.00  0.00    +0.000 OA
ENDROOT
BRANCH   1  19
ATOM     12  C   UNL     1       1.585   9.802  17.963  0.00  0.00    +0.000 C 
ATOM     13  C   UNL     1       0.159  10.261  18.037  0.00  0.00    +0.000 C 
ATOM     14  N   UNL     1      -0.778   9.551  17.479  0.00  0.00    +0.000 NA
ATOM     15  C   UNL     1      -1.950  10.218  17.787  0.00  0.00    +0.000 C 
ATOM     16  C   UNL     1      -3.123   9.935  17.199  0.00  0.00    +0.000 C 
ATOM     17  C   UNL     1      -1.641  11.331  18.747  0.00  0.00    +0.000 C 
ATOM     18  O   UNL     1      -2.411  12.001  19.405  0.00  0.00    +0.000 OA
ATOM     19  N   UNL     1      -0.270  11.374  18.683  0.00  0.00    +0.000 N 
BRANCH  16  20
ATOM     20  C   UNL     1      -4.353  10.696  17.392  0.00  0.00    +0.000 A 
ATOM     21  C   UNL     1      -4.629  11.808  16.587  0.00  0.00    +0.000 A 
ATOM     22  C   UNL     1      -5.738  12.615  16.855  0.00  0.00    +0.000 A 
ATOM     23  C   UNL     1      -6.585  12.288  17.911  0.00  0.00    +0.000 A 
ATOM     24 CL   UNL     1      -7.916  13.315  18.286  0.00  0.00    +0.000 Cl
ATOM     25  C   UNL     1      -6.357  11.146  18.673  0.00  0.00    +0.000 A 
ATOM     26  C   UNL     1      -5.244  10.348  18.412  0.00  0.00    +0.000 A 
ENDBRANCH  16  20
ENDBRANCH   1  19
BRANCH   2  27
ATOM     27  C   UNL     1       0.427  11.097  21.539  0.00  0.00    +0.000 A 
ATOM     28  C   UNL     1      -0.705  11.303  22.344  0.00  0.00    +0.000 A 
ATOM     29  C   UNL     1      -1.008  10.416  23.378  0.00  0.00    +0.000 A 
ATOM     30  C   UNL     1      -0.193   9.311  23.600  0.00  0.00    +0.000 A 
ATOM     31  C   UNL     1       0.859   9.036  22.723  0.00  0.00    +0.000 A 
ATOM     32  C   UNL     1       1.141   9.905  21.665  0.00  0.00    +0.000 A 
ENDBRANCH   2  27
TORSDOF 3
ENDMDL
MODEL 7
REMARK VINA RESULT:      -7.6      3.549      7.674
REMARK  Name = 
REMARK  4 active torsions:
REMARK  status: ('A' for Active; 'I' for Inactive)
REMARK    1  A    between atoms: C_1  and  C_2
REMARK    2  A    between atoms: C_5  and  C_6
REMARK    3  A    between atoms: N_15  and  N_16
REMARK    4  A    between atoms: C_17  and  C_18
REMARK                            x       y       z     vdW  Elec       q    Type
REMARK                         _______ _______ _______ _____ _____    ______ ____
ROOT
ATOM      1  N   UNL     1       0.371  12.403  20.491  0.00  0.00    +0.000 N 
ATOM      2  C   UNL     1       0.787  12.767  19.184  0.00  0.00    +0.000 A 
ATOM      3  N   UNL     1       1.303  11.888  18.366  0.00  0.00    +0.000 NA
ATOM      4  C   UNL     1       1.467  10.561  18.771  0.00  0.00    +0.000 A 
ATOM      5  C   UNL     1       2.073   9.638  17.916  0.00  0.00    +0.000 A 
ATOM      6  C   UNL     1       2.258   8.307  18.306  0.00  0.00    +0.000 A 
ATOM      7  C   UNL     1       1.810   7.873  19.554  0.00  0.00    +0.000 A 
ATOM      8  C   UNL     1       1.218   8.787  20.419  0.00  0.00    +0.000 A 
ATOM      9  C   UNL     1       1.079  10.121  20.037  0.00  0.00    +0.000 A 
ATOM     10  C   UNL     1       0.592  11.121  20.991  0.00  0.00    +0.000 A 
ATOM     11  O   UNL     1       0.447  10.790  22.168  0.00  0.00    +0.000 OA
ENDROOT
BRANCH   1  19
ATOM     12  C   UNL     1       2.194  14.543  21.791  0.00  0.00    +0.000 C 
ATOM     13  C   UNL     1       0.742  14.295  22.073  0.00  0.00    +0.000 C 
ATOM     14  N   UNL     1       0.120  15.024  22.954  0.00  0.00    +0.000 NA
ATOM     15  C   UNL     1      -1.188  14.577  22.916  0.00  0.00    +0.000 C 
ATOM     16  C   UNL     1      -2.098  14.915  23.842  0.00  0.00    +0.000 C 
ATOM     17  C   UNL     1      -1.338  13.601  21.784  0.00  0.00    +0.000 C 
ATOM     18  O   UNL     1      -2.357  13.153  21.298  0.00  0.00    +0.000 OA
ATOM     19  N   UNL     1      -0.026  13.367  21.450  0.00  0.00    +0.000 N 
BRANCH  16  20
ATOM     20  C   UNL     1      -3.448  14.365  23.920  0.00  0.00    +0.000 A 
ATOM     21  C   UNL     1      -3.678  13.149  24.575  0.00  0.00    +0.000 A 
ATOM     22  C   UNL     1      -4.943  12.555  24.536  0.00  0.00    +0.000 A 
ATOM     23  C   UNL     1      -5.981  13.197  23.866  0.00  0.00    +0.000 A 
ATOM     24 CL   UNL     1      -7.525  12.439  23.760  0.00  0.00    +0.000 Cl
ATOM     25  C   UNL     1      -5.778  14.439  23.270  0.00  0.00    +0.000 A 
ATOM     26  C   UNL     1      -4.514  15.024  23.300  0.00  0.00    +0.000 A 
ENDBRANCH  16  20
ENDBRANCH   1  19
BRANCH   2  27
ATOM     27  C   UNL     1       0.751  14.187  18.721  0.00  0.00    +0.000 A 
ATOM     28  C   UNL     1       1.979  14.817  18.469  0.00  0.00    +0.000 A 
ATOM     29  C   UNL     1       2.049  16.207  18.346  0.00  0.00    +0.000 A 
ATOM     30  C   UNL     1       0.890  16.967  18.458  0.00  0.00    +0.000 A 
ATOM     31  C   UNL     1      -0.347  16.334  18.583  0.00  0.00    +0.000 A 
ATOM     32  C   UNL     1      -0.422  14.941  18.669  0.00  0.00    +0.000 A 
ENDBRANCH   2  27
TORSDOF 3
ENDMDL
MODEL 8
REMARK VINA RESULT:      -7.6      2.108      3.641
REMARK  Name = 
REMARK  4 active torsions:
REMARK  status: ('A' for Active; 'I' for Inactive)
REMARK    1  A    between atoms: C_1  and  C_2
REMARK    2  A    between atoms: C_5  and  C_6
REMARK    3  A    between atoms: N_15  and  N_16
REMARK    4  A    between atoms: C_17  and  C_18
REMARK                            x       y       z     vdW  Elec       q    Type
REMARK                         _______ _______ _______ _____ _____    ______ ____
ROOT
ATOM      1  N   UNL     1       0.376  12.212  19.955  0.00  0.00    +0.000 N 
ATOM      2  C   UNL     1      -0.631  12.734  19.103  0.00  0.00    +0.000 A 
ATOM      3  N   UNL     1      -0.538  13.937  18.600  0.00  0.00    +0.000 NA
ATOM      4  C   UNL     1       0.560  14.744  18.903  0.00  0.00    +0.000 A 
ATOM      5  C   UNL     1       0.627  16.049  18.411  0.00  0.00    +0.000 A 
ATOM      6  C   UNL     1       1.712  16.878  18.713  0.00  0.00    +0.000 A 
ATOM      7  C   UNL     1       2.766  16.400  19.493  0.00  0.00    +0.000 A 
ATOM      8  C   UNL     1       2.703  15.106  19.999  0.00  0.00    +0.000 A 
ATOM      9  C   UNL     1       1.595  14.304  19.729  0.00  0.00    +0.000 A 
ATOM     10  C   UNL     1       1.449  12.997  20.374  0.00  0.00    +0.000 A 
ATOM     11  O   UNL     1       2.243  12.686  21.262  0.00  0.00    +0.000 OA
ENDROOT
BRANCH   1  19
ATOM     12  C   UNL     1      -1.086  11.824  22.659  0.00  0.00    +0.000 C 
ATOM     13  C   UNL     1      -0.383  10.776  21.848  0.00  0.00    +0.000 C 
ATOM     14  N   UNL     1      -0.343   9.547  22.275  0.00  0.00    +0.000 NA
ATOM     15  C   UNL     1       0.314   8.852  21.276  0.00  0.00    +0.000 C 
ATOM     16  C   UNL     1       0.763   7.598  21.438  0.00  0.00    +0.000 C 
ATOM     17  C   UNL     1       0.524   9.765  20.103  0.00  0.00    +0.000 C 
ATOM     18  O   UNL     1       0.868   9.483  18.973  0.00  0.00    +0.000 OA
ATOM     19  N   UNL     1       0.214  10.987  20.649  0.00  0.00    +0.000 N 
BRANCH  16  20
ATOM     20  C   UNL     1       1.575   6.874  20.465  0.00  0.00    +0.000 A 
ATOM     21  C   UNL     1       2.383   7.574  19.561  0.00  0.00    +0.000 A 
ATOM     22  C   UNL     1       3.058   6.892  18.543  0.00  0.00    +0.000 A 
ATOM     23  C   UNL     1       2.944   5.508  18.454  0.00  0.00    +0.000 A 
ATOM     24 CL   UNL     1       3.721   4.669  17.164  0.00  0.00    +0.000 Cl
ATOM     25  C   UNL     1       2.197   4.797  19.390  0.00  0.00    +0.000 A 
ATOM     26  C   UNL     1       1.516   5.479  20.397  0.00  0.00    +0.000 A 
ENDBRANCH  16  20
ENDBRANCH   1  19
BRANCH   2  27
ATOM     27  C   UNL     1      -1.889  11.976  18.827  0.00  0.00    +0.000 A 
ATOM     28  C   UNL     1      -1.876  11.063  17.761  0.00  0.00    +0.000 A 
ATOM     29  C   UNL     1      -3.072  10.562  17.243  0.00  0.00    +0.000 A 
ATOM     30  C   UNL     1      -4.283  10.959  17.801  0.00  0.00    +0.000 A 
ATOM     31  C   UNL     1      -4.293  11.767  18.939  0.00  0.00    +0.000 A 
ATOM     32  C   UNL     1      -3.094  12.240  19.480  0.00  0.00    +0.000 A 
ENDBRANCH   2  27
TORSDOF 3
ENDMDL
MODEL 9
REMARK VINA RESULT:      -7.4      1.548      2.118
REMARK  Name = 
REMARK  4 active torsions:
REMARK  status: ('A' for Active; 'I' for Inactive)
REMARK    1  A    between atoms: C_1  and  C_2
REMARK    2  A    between atoms: C_5  and  C_6
REMARK    3  A    between atoms: N_15  and  N_16
REMARK    4  A    between atoms: C_17  and  C_18
REMARK                            x       y       z     vdW  Elec       q    Type
REMARK                         _______ _______ _______ _____ _____    ______ ____
ROOT
ATOM      1  N   UNL     1      -2.340  12.277  19.736  0.00  0.00    +0.000 N 
ATOM      2  C   UNL     1      -3.389  11.844  18.883  0.00  0.00    +0.000 A 
ATOM      3  N   UNL     1      -4.636  11.868  19.276  0.00  0.00    +0.000 NA
ATOM      4  C   UNL     1      -4.962  12.314  20.559  0.00  0.00    +0.000 A 
ATOM      5  C   UNL     1      -6.288  12.283  20.995  0.00  0.00    +0.000 A 
ATOM      6  C   UNL     1      -6.635  12.714  22.279  0.00  0.00    +0.000 A 
ATOM      7  C   UNL     1      -5.657  13.212  23.140  0.00  0.00    +0.000 A 
ATOM      8  C   UNL     1      -4.331  13.235  22.721  0.00  0.00    +0.000 A 
ATOM      9  C   UNL     1      -3.991  12.761  21.455  0.00  0.00    +0.000 A 
ATOM     10  C   UNL     1      -2.586  12.644  21.057  0.00  0.00    +0.000 A 
ATOM     11  O   UNL     1      -1.715  12.834  21.908  0.00  0.00    +0.000 OA
ENDROOT
BRANCH   1  19
ATOM     12  C   UNL     1      -0.426  14.458  18.652  0.00  0.00    +0.000 C 
ATOM     13  C   UNL     1      -0.112  13.010  18.888  0.00  0.00    +0.000 C 
ATOM     14  N   UNL     1       1.078  12.555  18.625  0.00  0.00    +0.000 NA
ATOM     15  C   UNL     1       1.038  11.228  19.011  0.00  0.00    +0.000 C 
ATOM     16  C   UNL     1       1.997  10.347  18.686  0.00  0.00    +0.000 C 
ATOM     17  C   UNL     1      -0.268  10.960  19.702  0.00  0.00    +0.000 C 
ATOM     18  O   UNL     1      -0.595   9.992  20.359  0.00  0.00    +0.000 OA
ATOM     19  N   UNL     1      -0.975  12.098  19.400  0.00  0.00    +0.000 N 
BRANCH  16  20
ATOM     20  C   UNL     1       1.934   8.914  18.954  0.00  0.00    +0.000 A 
ATOM     21  C   UNL     1       1.726   8.448  20.258  0.00  0.00    +0.000 A 
ATOM     22  C   UNL     1       1.797   7.079  20.537  0.00  0.00    +0.000 A 
ATOM     23  C   UNL     1       2.045   6.181  19.503  0.00  0.00    +0.000 A 
ATOM     24 CL   UNL     1       2.197   4.500  19.853  0.00  0.00    +0.000 Cl
ATOM     25  C   UNL     1       2.184   6.630  18.193  0.00  0.00    +0.000 A 
ATOM     26  C   UNL     1       2.125   7.995  17.918  0.00  0.00    +0.000 A 
ENDBRANCH  16  20
ENDBRANCH   1  19
BRANCH   2  27
ATOM     27  C   UNL     1      -3.109  11.246  17.544  0.00  0.00    +0.000 A 
ATOM     28  C   UNL     1      -3.950  11.612  16.481  0.00  0.00    +0.000 A 
ATOM     29  C   UNL     1      -3.958  10.870  15.298  0.00  0.00    +0.000 A 
ATOM     30  C   UNL     1      -3.114   9.773  15.167  0.00  0.00    +0.000 A 
ATOM     31  C   UNL     1      -2.188   9.484  16.171  0.00  0.00    +0.000 A 
ATOM     32  C   UNL     1      -2.154  10.247  17.341  0.00  0.00    +0.000 A 
ENDBRANCH   2  27
TORSDOF 3
ENDMDL
