MODEL 1
REMARK VINA RESULT:      -8.0      0.000      0.000
REMARK  Name = 
REMARK  7 active torsions:
REMARK  status: ('A' for Active; 'I' for Inactive)
REMARK    1  A    between atoms: C_1  and  N_2
REMARK    2  A    between atoms: C_6  and  S_7
REMARK    3  A    between atoms: S_7  and  C_8
REMARK    4  A    between atoms: C_8  and  N_9
REMARK    5  A    between atoms: C_12  and  C_13
REMARK    6  A    between atoms: C_15  and  N_16
REMARK    7  A    between atoms: C_20  and  N_21
REMARK                            x       y       z     vdW  Elec       q    Type
REMARK                         _______ _______ _______ _____ _____    ______ ____
ROOT
ATOM      1  N   UNL     1       3.145   6.437  18.819  0.00  0.00    +0.000 N 
ATOM      2  N   UNL     1       3.290   7.124  17.671  0.00  0.00    +0.000 NA
ATOM      3  N   UNL     1       2.560   8.221  17.833  0.00  0.00    +0.000 NA
ATOM      4  C   UNL     1       1.973   8.133  19.071  0.00  0.00    +0.000 A 
ATOM      5  N   UNL     1       2.309   7.003  19.719  0.00  0.00    +0.000 NA
ENDROOT
BRANCH   4   6
ATOM      6  C   UNL     1       1.092   9.159  19.627  0.00  0.00    +0.000 A 
ATOM      7  C   UNL     1       0.808   9.215  21.003  0.00  0.00    +0.000 A 
ATOM      8  C   UNL     1      -0.075  10.194  21.502  0.00  0.00    +0.000 A 
ATOM      9  C   UNL     1      -0.677  11.127  20.648  0.00  0.00    +0.000 A 
ATOM     10  C   UNL     1      -0.384  11.072  19.283  0.00  0.00    +0.000 A 
ATOM     11  C   UNL     1       0.493  10.103  18.774  0.00  0.00    +0.000 A 
BRANCH   8  12
ATOM     12  N   UNL     1      -0.388  10.234  22.939  0.00  0.00    +0.000 N 
ATOM     13  O   UNL     1       0.381   9.646  23.712  0.00  0.00    +0.000 OA
ATOM     14  O   UNL     1      -1.403  10.849  23.287  0.00  0.00    +0.000 OA
ENDBRANCH   8  12
BRANCH  10  15
ATOM     15  N   UNL     1      -1.015  12.032  18.366  0.00  0.00    +0.000 N 
ATOM     16  O   UNL     1      -0.378  13.055  18.081  0.00  0.00    +0.000 OA
ATOM     17  O   UNL     1      -2.143  11.760  17.937  0.00  0.00    +0.000 OA
ENDBRANCH  10  15
ENDBRANCH   4   6
BRANCH   1  18
ATOM     18  C   UNL     1       3.706   5.105  19.013  0.00  0.00    +0.000 C 
BRANCH  18  19
ATOM     19  S   UNL     1       4.129   4.246  17.459  0.00  0.00    +0.000 S 
BRANCH  19  25
ATOM     20  C   UNL     1       6.388   4.206  15.033  0.00  0.00    +0.000 C 
ATOM     21  N   UNL     1       6.682   4.333  16.434  0.00  0.00    +0.000 N 
ATOM     22  N   UNL     1       7.958   4.451  16.846  0.00  0.00    +0.000 NA
ATOM     23  N   UNL     1       7.891   4.543  18.167  0.00  0.00    +0.000 NA
ATOM     24  N   UNL     1       6.587   4.485  18.600  0.00  0.00    +0.000 NA
ATOM     25  C   UNL     1       5.854   4.358  17.520  0.00  0.00    +0.000 A 
ENDBRANCH  19  25
ENDBRANCH  18  19
ENDBRANCH   1  18
TORSDOF 6
ENDMDL
MODEL 2
REMARK VINA RESULT:      -7.8      4.564      8.577
REMARK  Name = 
REMARK  7 active torsions:
REMARK  status: ('A' for Active; 'I' for Inactive)
REMARK    1  A    between atoms: C_1  and  N_2
REMARK    2  A    between atoms: C_6  and  S_7
REMARK    3  A    between atoms: S_7  and  C_8
REMARK    4  A    between atoms: C_8  and  N_9
REMARK    5  A    between atoms: C_12  and  C_13
REMARK    6  A    between atoms: C_15  and  N_16
REMARK    7  A    between atoms: C_20  and  N_21
REMARK                            x       y       z     vdW  Elec       q    Type
REMARK                         _______ _______ _______ _____ _____    ______ ____
ROOT
ATOM      1  N   UNL     1       1.428   9.045  18.403  0.00  0.00    +0.000 N 
ATOM      2  N   UNL     1       2.159   9.588  17.411  0.00  0.00    +0.000 NA
ATOM      3  N   UNL     1       3.080   8.674  17.126  0.00  0.00    +0.000 NA
ATOM      4  C   UNL     1       2.884   7.623  17.987  0.00  0.00    +0.000 A 
ATOM      5  N   UNL     1       1.852   7.833  18.825  0.00  0.00    +0.000 NA
ENDROOT
BRANCH   4   6
ATOM      6  C   UNL     1       3.698   6.408  17.985  0.00  0.00    +0.000 A 
ATOM      7  C   UNL     1       3.201   5.192  18.485  0.00  0.00    +0.000 A 
ATOM      8  C   UNL     1       4.023   4.048  18.503  0.00  0.00    +0.000 A 
ATOM      9  C   UNL     1       5.337   4.095  18.021  0.00  0.00    +0.000 A 
ATOM     10  C   UNL     1       5.823   5.305  17.516  0.00  0.00    +0.000 A 
ATOM     11  C   UNL     1       5.014   6.450  17.493  0.00  0.00    +0.000 A 
BRANCH   8  12
ATOM     12  N   UNL     1       3.507   2.783  19.049  0.00  0.00    +0.000 N 
ATOM     13  O   UNL     1       3.509   2.644  20.279  0.00  0.00    +0.000 OA
ATOM     14  O   UNL     1       3.106   1.933  18.244  0.00  0.00    +0.000 OA
ENDBRANCH   8  12
BRANCH  10  15
ATOM     15  N   UNL     1       7.204   5.382  17.018  0.00  0.00    +0.000 N 
ATOM     16  O   UNL     1       7.534   6.404  16.402  0.00  0.00    +0.000 OA
ATOM     17  O   UNL     1       7.950   4.420  17.242  0.00  0.00    +0.000 OA
ENDBRANCH  10  15
ENDBRANCH   4   6
BRANCH   1  18
ATOM     18  C   UNL     1       0.367   9.776  19.086  0.00  0.00    +0.000 C 
BRANCH  18  19
ATOM     19  S   UNL     1       0.960  11.194  20.071  0.00  0.00    +0.000 S 
BRANCH  19  25
ATOM     20  C   UNL     1      -1.720  12.106  21.795  0.00  0.00    +0.000 C 
ATOM     21  N   UNL     1      -0.730  11.167  22.244  0.00  0.00    +0.000 N 
ATOM     22  N   UNL     1      -0.854  10.580  23.448  0.00  0.00    +0.000 NA
ATOM     23  N   UNL     1       0.202   9.788  23.562  0.00  0.00    +0.000 NA
ATOM     24  N   UNL     1       0.998   9.862  22.443  0.00  0.00    +0.000 NA
ATOM     25  C   UNL     1       0.410  10.715  21.639  0.00  0.00    +0.000 A 
ENDBRANCH  19  25
ENDBRANCH  18  19
ENDBRANCH   1  18
TORSDOF 6
ENDMDL
MODEL 3
REMARK VINA RESULT:      -7.8      5.020      8.476
REMARK  Name = 
REMARK  7 active torsions:
REMARK  status: ('A' for Active; 'I' for Inactive)
REMARK    1  A    between atoms: C_1  and  N_2
REMARK    2  A    between atoms: C_6  and  S_7
REMARK    3  A    between atoms: S_7  and  C_8
REMARK    4  A    between atoms: C_8  and  N_9
REMARK    5  A    between atoms: C_12  and  C_13
REMARK    6  A    between atoms: C_15  and  N_16
REMARK    7  A    between atoms: C_20  and  N_21
REMARK                            x       y       z     vdW  Elec       q    Type
REMARK                         _______ _______ _______ _____ _____    ______ ____
ROOT
ATOM      1  N   UNL     1       1.587   9.000  19.060  0.00  0.00    +0.000 N 
ATOM      2  N   UNL     1       1.942   9.569  17.893  0.00  0.00    +0.000 NA
ATOM      3  N   UNL     1       2.691   8.659  17.282  0.00  0.00    +0.000 NA
ATOM      4  C   UNL     1       2.785   7.582  18.128  0.00  0.00    +0.000 A 
ATOM      5  N   UNL     1       2.109   7.771  19.276  0.00  0.00    +0.000 NA
ENDROOT
BRANCH   4   6
ATOM      6  C   UNL     1       3.525   6.361  17.810  0.00  0.00    +0.000 A 
ATOM      7  C   UNL     1       2.918   5.095  17.883  0.00  0.00    +0.000 A 
ATOM      8  C   UNL     1       3.669   3.935  17.606  0.00  0.00    +0.000 A 
ATOM      9  C   UNL     1       5.021   4.018  17.251  0.00  0.00    +0.000 A 
ATOM     10  C   UNL     1       5.618   5.280  17.171  0.00  0.00    +0.000 A 
ATOM     11  C   UNL     1       4.880   6.442  17.444  0.00  0.00    +0.000 A 
BRANCH   8  12
ATOM     12  N   UNL     1       3.036   2.611  17.706  0.00  0.00    +0.000 N 
ATOM     13  O   UNL     1       3.772   1.636  17.909  0.00  0.00    +0.000 OA
ATOM     14  O   UNL     1       1.807   2.553  17.577  0.00  0.00    +0.000 OA
ENDBRANCH   8  12
BRANCH  10  15
ATOM     15  N   UNL     1       7.039   5.390  16.814  0.00  0.00    +0.000 N 
ATOM     16  O   UNL     1       7.768   4.420  17.057  0.00  0.00    +0.000 OA
ATOM     17  O   UNL     1       7.420   6.447  16.294  0.00  0.00    +0.000 OA
ENDBRANCH  10  15
ENDBRANCH   4   6
BRANCH   1  18
ATOM     18  C   UNL     1       0.841   9.716  20.088  0.00  0.00    +0.000 C 
BRANCH  18  19
ATOM     19  S   UNL     1       0.074  11.266  19.502  0.00  0.00    +0.000 S 
BRANCH  19  25
ATOM     20  C   UNL     1       2.557  12.963  18.107  0.00  0.00    +0.000 C 
ATOM     21  N   UNL     1       2.166  13.056  19.487  0.00  0.00    +0.000 N 
ATOM     22  N   UNL     1       2.824  13.883  20.319  0.00  0.00    +0.000 NA
ATOM     23  N   UNL     1       2.233  13.735  21.497  0.00  0.00    +0.000 NA
ATOM     24  N   UNL     1       1.207  12.822  21.424  0.00  0.00    +0.000 NA
ATOM     25  C   UNL     1       1.176  12.414  20.178  0.00  0.00    +0.000 A 
ENDBRANCH  19  25
ENDBRANCH  18  19
ENDBRANCH   1  18
TORSDOF 6
ENDMDL
MODEL 4
REMARK VINA RESULT:      -7.7      4.766      9.099
REMARK  Name = 
REMARK  7 active torsions:
REMARK  status: ('A' for Active; 'I' for Inactive)
REMARK    1  A    between atoms: C_1  and  N_2
REMARK    2  A    between atoms: C_6  and  S_7
REMARK    3  A    between atoms: S_7  and  C_8
REMARK    4  A    between atoms: C_8  and  N_9
REMARK    5  A    between atoms: C_12  and  C_13
REMARK    6  A    between atoms: C_15  and  N_16
REMARK    7  A    between atoms: C_20  and  N_21
REMARK                            x       y       z     vdW  Elec       q    Type
REMARK                         _______ _______ _______ _____ _____    ______ ____
ROOT
ATOM      1  N   UNL     1       1.584   8.980  18.875  0.00  0.00    +0.000 N 
ATOM      2  N   UNL     1       1.962   9.508  17.695  0.00  0.00    +0.000 NA
ATOM      3  N   UNL     1       2.747   8.589  17.145  0.00  0.00    +0.000 NA
ATOM      4  C   UNL     1       2.836   7.550  18.038  0.00  0.00    +0.000 A 
ATOM      5  N   UNL     1       2.123   7.772  19.156  0.00  0.00    +0.000 NA
ENDROOT
BRANCH   4   6
ATOM      6  C   UNL     1       3.610   6.333  17.793  0.00  0.00    +0.000 A 
ATOM      7  C   UNL     1       4.955   6.389  17.389  0.00  0.00    +0.000 A 
ATOM      8  C   UNL     1       5.663   5.199  17.126  0.00  0.00    +0.000 A 
ATOM      9  C   UNL     1       5.049   3.948  17.265  0.00  0.00    +0.000 A 
ATOM     10  C   UNL     1       3.714   3.898  17.676  0.00  0.00    +0.000 A 
ATOM     11  C   UNL     1       3.000   5.075  17.942  0.00  0.00    +0.000 A 
BRANCH   8  12
ATOM     12  N   UNL     1       7.064   5.262  16.680  0.00  0.00    +0.000 N 
ATOM     13  O   UNL     1       7.349   6.081  15.796  0.00  0.00    +0.000 OA
ATOM     14  O   UNL     1       7.870   4.490  17.214  0.00  0.00    +0.000 OA
ENDBRANCH   8  12
BRANCH  10  15
ATOM     15  N   UNL     1       3.045   2.597  17.817  0.00  0.00    +0.000 N 
ATOM     16  O   UNL     1       3.698   1.667  18.308  0.00  0.00    +0.000 OA
ATOM     17  O   UNL     1       1.872   2.510  17.433  0.00  0.00    +0.000 OA
ENDBRANCH  10  15
ENDBRANCH   4   6
BRANCH   1  18
ATOM     18  C   UNL     1       0.792   9.722  19.849  0.00  0.00    +0.000 C 
BRANCH  18  19
ATOM     19  S   UNL     1       0.451  11.449  19.365  0.00  0.00    +0.000 S 
BRANCH  19  25
ATOM     20  C   UNL     1      -2.424  12.831  20.267  0.00  0.00    +0.000 C 
ATOM     21  N   UNL     1      -2.258  11.903  19.183  0.00  0.00    +0.000 N 
ATOM     22  N   UNL     1      -3.319  11.534  18.443  0.00  0.00    +0.000 NA
ATOM     23  N   UNL     1      -2.841  10.683  17.546  0.00  0.00    +0.000 NA
ATOM     24  N   UNL     1      -1.488  10.505  17.706  0.00  0.00    +0.000 NA
ATOM     25  C   UNL     1      -1.142  11.265  18.718  0.00  0.00    +0.000 A 
ENDBRANCH  19  25
ENDBRANCH  18  19
ENDBRANCH   1  18
TORSDOF 6
ENDMDL
MODEL 5
REMARK VINA RESULT:      -7.7      4.823      9.156
REMARK  Name = 
REMARK  7 active torsions:
REMARK  status: ('A' for Active; 'I' for Inactive)
REMARK    1  A    between atoms: C_1  and  N_2
REMARK    2  A    between atoms: C_6  and  S_7
REMARK    3  A    between atoms: S_7  and  C_8
REMARK    4  A    between atoms: C_8  and  N_9
REMARK    5  A    between atoms: C_12  and  C_13
REMARK    6  A    between atoms: C_15  and  N_16
REMARK    7  A    between atoms: C_20  and  N_21
REMARK                            x       y       z     vdW  Elec       q    Type
REMARK                         _______ _______ _______ _____ _____    ______ ____
ROOT
ATOM      1  N   UNL     1       1.450   8.986  19.183  0.00  0.00    +0.000 N 
ATOM      2  N   UNL     1       1.752   9.606  18.027  0.00  0.00    +0.000 NA
ATOM      3  N   UNL     1       2.546   8.759  17.381  0.00  0.00    +0.000 NA
ATOM      4  C   UNL     1       2.717   7.668  18.197  0.00  0.00    +0.000 A 
ATOM      5  N   UNL     1       2.048   7.786  19.358  0.00  0.00    +0.000 NA
ENDROOT
BRANCH   4   6
ATOM      6  C   UNL     1       3.526   6.503  17.837  0.00  0.00    +0.000 A 
ATOM      7  C   UNL     1       4.855   6.640  17.401  0.00  0.00    +0.000 A 
ATOM      8  C   UNL     1       5.596   5.502  17.025  0.00  0.00    +0.000 A 
ATOM      9  C   UNL     1       5.031   4.221  17.085  0.00  0.00    +0.000 A 
ATOM     10  C   UNL     1       3.712   4.090  17.528  0.00  0.00    +0.000 A 
ATOM     11  C   UNL     1       2.965   5.216  17.904  0.00  0.00    +0.000 A 
BRANCH   8  12
ATOM     12  N   UNL     1       6.978   5.652  16.547  0.00  0.00    +0.000 N 
ATOM     13  O   UNL     1       7.570   4.631  16.171  0.00  0.00    +0.000 OA
ATOM     14  O   UNL     1       7.467   6.788  16.554  0.00  0.00    +0.000 OA
ENDBRANCH   8  12
BRANCH  10  15
ATOM     15  N   UNL     1       3.094   2.757  17.585  0.00  0.00    +0.000 N 
ATOM     16  O   UNL     1       3.827   1.797  17.858  0.00  0.00    +0.000 OA
ATOM     17  O   UNL     1       1.881   2.677  17.355  0.00  0.00    +0.000 OA
ENDBRANCH  10  15
ENDBRANCH   4   6
BRANCH   1  18
ATOM     18  C   UNL     1       0.676   9.628  20.239  0.00  0.00    +0.000 C 
BRANCH  18  19
ATOM     19  S   UNL     1       0.843  11.446  20.278  0.00  0.00    +0.000 S 
BRANCH  19  25
ATOM     20  C   UNL     1      -2.330  12.210  19.692  0.00  0.00    +0.000 C 
ATOM     21  N   UNL     1      -1.725  12.132  20.994  0.00  0.00    +0.000 N 
ATOM     22  N   UNL     1      -2.460  12.377  22.094  0.00  0.00    +0.000 NA
ATOM     23  N   UNL     1      -1.624  12.230  23.112  0.00  0.00    +0.000 NA
ATOM     24  N   UNL     1      -0.365  11.895  22.674  0.00  0.00    +0.000 NA
ATOM     25  C   UNL     1      -0.443  11.837  21.366  0.00  0.00    +0.000 A 
ENDBRANCH  19  25
ENDBRANCH  18  19
ENDBRANCH   1  18
TORSDOF 6
ENDMDL
MODEL 6
REMARK VINA RESULT:      -7.7      4.987      8.664
REMARK  Name = 
REMARK  7 active torsions:
REMARK  status: ('A' for Active; 'I' for Inactive)
REMARK    1  A    between atoms: C_1  and  N_2
REMARK    2  A    between atoms: C_6  and  S_7
REMARK    3  A    between atoms: S_7  and  C_8
REMARK    4  A    between atoms: C_8  and  N_9
REMARK    5  A    between atoms: C_12  and  C_13
REMARK    6  A    between atoms: C_15  and  N_16
REMARK    7  A    between atoms: C_20  and  N_21
REMARK                            x       y       z     vdW  Elec       q    Type
REMARK                         _______ _______ _______ _____ _____    ______ ____
ROOT
ATOM      1  N   UNL     1       1.480   8.973  19.087  0.00  0.00    +0.000 N 
ATOM      2  N   UNL     1       1.689   9.481  17.858  0.00  0.00    +0.000 NA
ATOM      3  N   UNL     1       2.488   8.606  17.258  0.00  0.00    +0.000 NA
ATOM      4  C   UNL     1       2.756   7.615  18.170  0.00  0.00    +0.000 A 
ATOM      5  N   UNL     1       2.145   7.825  19.350  0.00  0.00    +0.000 NA
ENDROOT
BRANCH   4   6
ATOM      6  C   UNL     1       3.601   6.456  17.885  0.00  0.00    +0.000 A 
ATOM      7  C   UNL     1       4.868   6.600  17.295  0.00  0.00    +0.000 A 
ATOM      8  C   UNL     1       5.643   5.460  16.998  0.00  0.00    +0.000 A 
ATOM      9  C   UNL     1       5.174   4.173  17.289  0.00  0.00    +0.000 A 
ATOM     10  C   UNL     1       3.917   4.036  17.885  0.00  0.00    +0.000 A 
ATOM     11  C   UNL     1       3.137   5.163  18.185  0.00  0.00    +0.000 A 
BRANCH   8  12
ATOM     12  N   UNL     1       6.959   5.614  16.359  0.00  0.00    +0.000 N 
ATOM     13  O   UNL     1       7.558   6.685  16.525  0.00  0.00    +0.000 OA
ATOM     14  O   UNL     1       7.384   4.664  15.689  0.00  0.00    +0.000 OA
ENDBRANCH   8  12
BRANCH  10  15
ATOM     15  N   UNL     1       3.398   2.694  18.186  0.00  0.00    +0.000 N 
ATOM     16  O   UNL     1       3.864   2.108  19.172  0.00  0.00    +0.000 OA
ATOM     17  O   UNL     1       2.529   2.232  17.436  0.00  0.00    +0.000 OA
ENDBRANCH  10  15
ENDBRANCH   4   6
BRANCH   1  18
ATOM     18  C   UNL     1       0.732   9.688  20.115  0.00  0.00    +0.000 C 
BRANCH  18  19
ATOM     19  S   UNL     1      -0.036  11.237  19.529  0.00  0.00    +0.000 S 
BRANCH  19  25
ATOM     20  C   UNL     1       2.510  12.886  18.192  0.00  0.00    +0.000 C 
ATOM     21  N   UNL     1       2.072  13.007  19.555  0.00  0.00    +0.000 N 
ATOM     22  N   UNL     1       2.708  13.843  20.395  0.00  0.00    +0.000 NA
ATOM     23  N   UNL     1       2.076  13.722  21.554  0.00  0.00    +0.000 NA
ATOM     24  N   UNL     1       1.044  12.818  21.462  0.00  0.00    +0.000 NA
ATOM     25  C   UNL     1       1.053  12.387  20.223  0.00  0.00    +0.000 A 
ENDBRANCH  19  25
ENDBRANCH  18  19
ENDBRANCH   1  18
TORSDOF 6
ENDMDL
MODEL 7
REMARK VINA RESULT:      -7.6      1.045      1.461
REMARK  Name = 
REMARK  7 active torsions:
REMARK  status: ('A' for Active; 'I' for Inactive)
REMARK    1  A    between atoms: C_1  and  N_2
REMARK    2  A    between atoms: C_6  and  S_7
REMARK    3  A    between atoms: S_7  and  C_8
REMARK    4  A    between atoms: C_8  and  N_9
REMARK    5  A    between atoms: C_12  and  C_13
REMARK    6  A    between atoms: C_15  and  N_16
REMARK    7  A    between atoms: C_20  and  N_21
REMARK                            x       y       z     vdW  Elec       q    Type
REMARK                         _______ _______ _______ _____ _____    ______ ____
ROOT
ATOM      1  N   UNL     1       3.246   6.604  18.641  0.00  0.00    +0.000 N 
ATOM      2  N   UNL     1       3.459   7.386  17.566  0.00  0.00    +0.000 NA
ATOM      3  N   UNL     1       2.712   8.464  17.773  0.00  0.00    +0.000 NA
ATOM      4  C   UNL     1       2.047   8.270  18.958  0.00  0.00    +0.000 A 
ATOM      5  N   UNL     1       2.350   7.090  19.529  0.00  0.00    +0.000 NA
ENDROOT
BRANCH   4   6
ATOM      6  C   UNL     1       1.124   9.244  19.541  0.00  0.00    +0.000 A 
ATOM      7  C   UNL     1       0.860   9.269  20.921  0.00  0.00    +0.000 A 
ATOM      8  C   UNL     1      -0.063  10.195  21.446  0.00  0.00    +0.000 A 
ATOM      9  C   UNL     1      -0.725  11.107  20.614  0.00  0.00    +0.000 A 
ATOM     10  C   UNL     1      -0.451  11.084  19.243  0.00  0.00    +0.000 A 
ATOM     11  C   UNL     1       0.466  10.167  18.709  0.00  0.00    +0.000 A 
BRANCH   8  12
ATOM     12  N   UNL     1      -0.355  10.203  22.888  0.00  0.00    +0.000 N 
ATOM     13  O   UNL     1      -1.395  10.760  23.261  0.00  0.00    +0.000 OA
ATOM     14  O   UNL     1       0.460   9.654  23.640  0.00  0.00    +0.000 OA
ENDBRANCH   8  12
BRANCH  10  15
ATOM     15  N   UNL     1      -1.144  12.022  18.348  0.00  0.00    +0.000 N 
ATOM     16  O   UNL     1      -0.694  13.173  18.265  0.00  0.00    +0.000 OA
ATOM     17  O   UNL     1      -2.134  11.605  17.734  0.00  0.00    +0.000 OA
ENDBRANCH  10  15
ENDBRANCH   4   6
BRANCH   1  18
ATOM     18  C   UNL     1       3.803   5.261  18.758  0.00  0.00    +0.000 C 
BRANCH  18  19
ATOM     19  S   UNL     1       5.581   5.231  19.173  0.00  0.00    +0.000 S 
BRANCH  19  25
ATOM     20  C   UNL     1       7.520   7.379  17.556  0.00  0.00    +0.000 C 
ATOM     21  N   UNL     1       7.052   6.127  17.027  0.00  0.00    +0.000 N 
ATOM     22  N   UNL     1       7.402   5.749  15.784  0.00  0.00    +0.000 NA
ATOM     23  N   UNL     1       6.817   4.574  15.599  0.00  0.00    +0.000 NA
ATOM     24  N   UNL     1       6.098   4.200  16.710  0.00  0.00    +0.000 NA
ATOM     25  C   UNL     1       6.254   5.166  17.582  0.00  0.00    +0.000 A 
ENDBRANCH  19  25
ENDBRANCH  18  19
ENDBRANCH   1  18
TORSDOF 6
ENDMDL
MODEL 8
REMARK VINA RESULT:      -7.6      4.864      9.031
REMARK  Name = 
REMARK  7 active torsions:
REMARK  status: ('A' for Active; 'I' for Inactive)
REMARK    1  A    between atoms: C_1  and  N_2
REMARK    2  A    between atoms: C_6  and  S_7
REMARK    3  A    between atoms: S_7  and  C_8
REMARK    4  A    between atoms: C_8  and  N_9
REMARK    5  A    between atoms: C_12  and  C_13
REMARK    6  A    between atoms: C_15  and  N_16
REMARK    7  A    between atoms: C_20  and  N_21
REMARK                            x       y       z     vdW  Elec       q    Type
REMARK                         _______ _______ _______ _____ _____    ______ ____
ROOT
ATOM      1  N   UNL     1       1.528   8.983  19.153  0.00  0.00    +0.000 N 
ATOM      2  N   UNL     1       1.824   9.605  17.996  0.00  0.00    +0.000 NA
ATOM      3  N   UNL     1       2.567   8.736  17.321  0.00  0.00    +0.000 NA
ATOM      4  C   UNL     1       2.717   7.630  18.120  0.00  0.00    +0.000 A 
ATOM      5  N   UNL     1       2.084   7.760  19.299  0.00  0.00    +0.000 NA
ENDROOT
BRANCH   4   6
ATOM      6  C   UNL     1       3.471   6.440  17.726  0.00  0.00    +0.000 A 
ATOM      7  C   UNL     1       2.919   5.152  17.839  0.00  0.00    +0.000 A 
ATOM      8  C   UNL     1       3.684   4.022  17.486  0.00  0.00    +0.000 A 
ATOM      9  C   UNL     1       4.996   4.158  17.014  0.00  0.00    +0.000 A 
ATOM     10  C   UNL     1       5.537   5.441  16.895  0.00  0.00    +0.000 A 
ATOM     11  C   UNL     1       4.785   6.573  17.243  0.00  0.00    +0.000 A 
BRANCH   8  12
ATOM     12  N   UNL     1       3.111   2.675  17.628  0.00  0.00    +0.000 N 
ATOM     13  O   UNL     1       1.880   2.562  17.546  0.00  0.00    +0.000 OA
ATOM     14  O   UNL     1       3.893   1.738  17.824  0.00  0.00    +0.000 OA
ENDBRANCH   8  12
BRANCH  10  15
ATOM     15  N   UNL     1       6.916   5.607  16.415  0.00  0.00    +0.000 N 
ATOM     16  O   UNL     1       7.481   6.682  16.654  0.00  0.00    +0.000 OA
ATOM     17  O   UNL     1       7.427   4.663  15.799  0.00  0.00    +0.000 OA
ENDBRANCH  10  15
ENDBRANCH   4   6
BRANCH   1  18
ATOM     18  C   UNL     1       0.808   9.642  20.236  0.00  0.00    +0.000 C 
BRANCH  18  19
ATOM     19  S   UNL     1       0.831  11.466  20.140  0.00  0.00    +0.000 S 
BRANCH  19  25
ATOM     20  C   UNL     1       0.287  14.373  21.638  0.00  0.00    +0.000 C 
ATOM     21  N   UNL     1      -0.216  13.104  22.088  0.00  0.00    +0.000 N 
ATOM     22  N   UNL     1      -0.974  13.035  23.198  0.00  0.00    +0.000 NA
ATOM     23  N   UNL     1      -1.267  11.751  23.342  0.00  0.00    +0.000 NA
ATOM     24  N   UNL     1      -0.704  11.000  22.337  0.00  0.00    +0.000 NA
ATOM     25  C   UNL     1      -0.061  11.848  21.570  0.00  0.00    +0.000 A 
ENDBRANCH  19  25
ENDBRANCH  18  19
ENDBRANCH   1  18
TORSDOF 6
ENDMDL
MODEL 9
REMARK VINA RESULT:      -7.6      1.081      3.271
REMARK  Name = 
REMARK  7 active torsions:
REMARK  status: ('A' for Active; 'I' for Inactive)
REMARK    1  A    between atoms: C_1  and  N_2
REMARK    2  A    between atoms: C_6  and  S_7
REMARK    3  A    between atoms: S_7  and  C_8
REMARK    4  A    between atoms: C_8  and  N_9
REMARK    5  A    between atoms: C_12  and  C_13
REMARK    6  A    between atoms: C_15  and  N_16
REMARK    7  A    between atoms: C_20  and  N_21
REMARK                            x       y       z     vdW  Elec       q    Type
REMARK                         _______ _______ _______ _____ _____    ______ ____
ROOT
ATOM      1  N   UNL     1       3.214   6.659  18.482  0.00  0.00    +0.000 N 
ATOM      2  N   UNL     1       3.425   7.462  17.422  0.00  0.00    +0.000 NA
ATOM      3  N   UNL     1       2.663   8.527  17.642  0.00  0.00    +0.000 NA
ATOM      4  C   UNL     1       1.993   8.306  18.820  0.00  0.00    +0.000 A 
ATOM      5  N   UNL     1       2.306   7.120  19.373  0.00  0.00    +0.000 NA
ENDROOT
BRANCH   4   6
ATOM      6  C   UNL     1       1.056   9.259  19.413  0.00  0.00    +0.000 A 
ATOM      7  C   UNL     1       0.332  10.165  18.619  0.00  0.00    +0.000 A 
ATOM      8  C   UNL     1      -0.536  11.096  19.224  0.00  0.00    +0.000 A 
ATOM      9  C   UNL     1      -0.700  11.134  20.614  0.00  0.00    +0.000 A 
ATOM     10  C   UNL     1       0.015  10.224  21.398  0.00  0.00    +0.000 A 
ATOM     11  C   UNL     1       0.882   9.292  20.808  0.00  0.00    +0.000 A 
BRANCH   8  12
ATOM     12  N   UNL     1      -1.274  12.059  18.391  0.00  0.00    +0.000 N 
ATOM     13  O   UNL     1      -0.660  13.052  17.979  0.00  0.00    +0.000 OA
ATOM     14  O   UNL     1      -2.465  11.819  18.158  0.00  0.00    +0.000 OA
ENDBRANCH   8  12
BRANCH  10  15
ATOM     15  N   UNL     1      -0.130  10.254  22.861  0.00  0.00    +0.000 N 
ATOM     16  O   UNL     1      -1.062  10.920  23.330  0.00  0.00    +0.000 OA
ATOM     17  O   UNL     1       0.689   9.614  23.532  0.00  0.00    +0.000 OA
ENDBRANCH  10  15
ENDBRANCH   4   6
BRANCH   1  18
ATOM     18  C   UNL     1       3.786   5.322  18.580  0.00  0.00    +0.000 C 
BRANCH  18  19
ATOM     19  S   UNL     1       5.542   5.303  19.081  0.00  0.00    +0.000 S 
BRANCH  19  25
ATOM     20  C   UNL     1       7.531   7.465  17.543  0.00  0.00    +0.000 C 
ATOM     21  N   UNL     1       7.104   6.204  17.001  0.00  0.00    +0.000 N 
ATOM     22  N   UNL     1       7.517   5.822  15.779  0.00  0.00    +0.000 NA
ATOM     23  N   UNL     1       6.956   4.639  15.574  0.00  0.00    +0.000 NA
ATOM     24  N   UNL     1       6.189   4.263  16.652  0.00  0.00    +0.000 NA
ATOM     25  C   UNL     1       6.292   5.237  17.524  0.00  0.00    +0.000 A 
ENDBRANCH  19  25
ENDBRANCH  18  19
ENDBRANCH   1  18
TORSDOF 6
ENDMDL
