MODEL 1
REMARK VINA RESULT:      -7.7      0.000      0.000
REMARK  Name = 
REMARK  5 active torsions:
REMARK  status: ('A' for Active; 'I' for Inactive)
REMARK    1  A    between atoms: S_2  and  C_4
REMARK    2  A    between atoms: S_2  and  N_11
REMARK    3  A    between atoms: C_4  and  C_5
REMARK    4  A    between atoms: N_11  and  C_12
REMARK    5  A    between atoms: C_18  and  N_19
REMARK                            x       y       z     vdW  Elec       q    Type
REMARK                         _______ _______ _______ _____ _____    ______ ____
ROOT
ATOM      1  N   UNL     1       2.808   5.161  17.720  0.00  0.00    +0.000 N 
ATOM      2  H   UNL     1       2.231   4.304  17.770  0.00  0.00    +0.000 HD
ENDROOT
BRANCH   1   3
ATOM      3  C   UNL     1       2.361   6.141  18.688  0.00  0.00    +0.000 A 
ATOM      4  C   UNL     1       2.441   7.499  18.357  0.00  0.00    +0.000 A 
ATOM      5  F   UNL     1       2.919   7.874  17.161  0.00  0.00    +0.000 F 
ATOM      6  C   UNL     1       1.998   8.495  19.228  0.00  0.00    +0.000 A 
ATOM      7  C   UNL     1       1.486   8.148  20.473  0.00  0.00    +0.000 A 
ATOM      8  C   UNL     1       1.447   6.806  20.853  0.00  0.00    +0.000 A 
ATOM      9  C   UNL     1       1.890   5.795  19.973  0.00  0.00    +0.000 A 
BRANCH   9  10
ATOM     10  N   UNL     1       1.823   4.444  20.407  0.00  0.00    +0.000 N 
ATOM     11  C   UNL     1       2.272   3.925  21.603  0.00  0.00    +0.000 A 
ATOM     12  C   UNL     1       1.968   2.586  21.607  0.00  0.00    +0.000 A 
ATOM     13  C   UNL     1       1.318   2.374  20.381  0.00  0.00    +0.000 A 
ATOM     14  N   UNL     1       1.228   3.484  19.647  0.00  0.00    +0.000 NA
ENDBRANCH   9  10
ENDBRANCH   1   3
BRANCH   1  16
ATOM     15  O   UNL     1       4.501   3.489  16.932  0.00  0.00    +0.000 OA
ATOM     16  S   UNL     1       4.422   4.645  17.802  0.00  0.00    +0.000 S 
ATOM     17  O   UNL     1       4.813   4.564  19.189  0.00  0.00    +0.000 OA
BRANCH  16  18
ATOM     18  C   UNL     1       5.326   5.975  17.023  0.00  0.00    +0.000 C 
BRANCH  18  19
ATOM     19  C   UNL     1       6.813   5.644  16.825  0.00  0.00    +0.000 C 
ATOM     20  C   UNL     1       7.548   4.991  18.001  0.00  0.00    +0.000 C 
ATOM     21  C   UNL     1       7.782   5.951  19.161  0.00  0.00    +0.000 C 
ATOM     22  C   UNL     1       8.369   7.276  18.689  0.00  0.00    +0.000 C 
ATOM     23  C   UNL     1       7.683   7.812  17.441  0.00  0.00    +0.000 C 
ATOM     24  O   UNL     1       7.549   6.820  16.425  0.00  0.00    +0.000 OA
ENDBRANCH  18  19
ENDBRANCH  16  18
ENDBRANCH   1  16
TORSDOF 5
ENDMDL
MODEL 2
REMARK VINA RESULT:      -7.3      2.753      6.030
REMARK  Name = 
REMARK  5 active torsions:
REMARK  status: ('A' for Active; 'I' for Inactive)
REMARK    1  A    between atoms: S_2  and  C_4
REMARK    2  A    between atoms: S_2  and  N_11
REMARK    3  A    between atoms: C_4  and  C_5
REMARK    4  A    between atoms: N_11  and  C_12
REMARK    5  A    between atoms: C_18  and  N_19
REMARK                            x       y       z     vdW  Elec       q    Type
REMARK                         _______ _______ _______ _____ _____    ______ ____
ROOT
ATOM      1  N   UNL     1       6.758   3.981  18.349  0.00  0.00    +0.000 N 
ATOM      2  H   UNL     1       7.010   3.366  17.556  0.00  0.00    +0.000 HD
ENDROOT
BRANCH   1   3
ATOM      3  C   UNL     1       7.196   5.340  18.109  0.00  0.00    +0.000 A 
ATOM      4  C   UNL     1       7.721   6.076  19.179  0.00  0.00    +0.000 A 
ATOM      5  F   UNL     1       7.817   5.520  20.396  0.00  0.00    +0.000 F 
ATOM      6  C   UNL     1       8.192   7.379  19.012  0.00  0.00    +0.000 A 
ATOM      7  C   UNL     1       8.121   7.986  17.764  0.00  0.00    +0.000 A 
ATOM      8  C   UNL     1       7.550   7.298  16.693  0.00  0.00    +0.000 A 
ATOM      9  C   UNL     1       7.076   5.978  16.856  0.00  0.00    +0.000 A 
BRANCH   9  10
ATOM     10  N   UNL     1       6.510   5.320  15.732  0.00  0.00    +0.000 N 
ATOM     11  C   UNL     1       5.281   5.557  15.153  0.00  0.00    +0.000 A 
ATOM     12  C   UNL     1       5.167   4.715  14.075  0.00  0.00    +0.000 A 
ATOM     13  C   UNL     1       6.380   4.009  14.057  0.00  0.00    +0.000 A 
ATOM     14  N   UNL     1       7.196   4.361  15.052  0.00  0.00    +0.000 NA
ENDBRANCH   9  10
ENDBRANCH   1   3
BRANCH   1  16
ATOM     15  O   UNL     1       5.045   2.976  19.879  0.00  0.00    +0.000 OA
ATOM     16  S   UNL     1       5.106   3.719  18.637  0.00  0.00    +0.000 S 
ATOM     17  O   UNL     1       4.501   3.208  17.430  0.00  0.00    +0.000 OA
BRANCH  16  18
ATOM     18  C   UNL     1       4.472   5.359  18.952  0.00  0.00    +0.000 C 
BRANCH  18  19
ATOM     19  C   UNL     1       3.030   5.543  18.454  0.00  0.00    +0.000 C 
ATOM     20  C   UNL     1       2.480   6.973  18.417  0.00  0.00    +0.000 C 
ATOM     21  C   UNL     1       2.211   7.541  19.805  0.00  0.00    +0.000 C 
ATOM     22  C   UNL     1       1.420   6.567  20.671  0.00  0.00    +0.000 C 
ATOM     23  C   UNL     1       1.932   5.139  20.567  0.00  0.00    +0.000 C 
ATOM     24  O   UNL     1       2.118   4.723  19.215  0.00  0.00    +0.000 OA
ENDBRANCH  18  19
ENDBRANCH  16  18
ENDBRANCH   1  16
TORSDOF 5
ENDMDL
MODEL 3
REMARK VINA RESULT:      -7.2      2.964      5.803
REMARK  Name = 
REMARK  5 active torsions:
REMARK  status: ('A' for Active; 'I' for Inactive)
REMARK    1  A    between atoms: S_2  and  C_4
REMARK    2  A    between atoms: S_2  and  N_11
REMARK    3  A    between atoms: C_4  and  C_5
REMARK    4  A    between atoms: N_11  and  C_12
REMARK    5  A    between atoms: C_18  and  N_19
REMARK                            x       y       z     vdW  Elec       q    Type
REMARK                         _______ _______ _______ _____ _____    ______ ____
ROOT
ATOM      1  N   UNL     1       3.211   6.190  19.643  0.00  0.00    +0.000 N 
ATOM      2  H   UNL     1       2.820   6.687  20.463  0.00  0.00    +0.000 HD
ENDROOT
BRANCH   1   3
ATOM      3  C   UNL     1       2.830   4.794  19.656  0.00  0.00    +0.000 A 
ATOM      4  C   UNL     1       1.676   4.417  20.354  0.00  0.00    +0.000 A 
ATOM      5  F   UNL     1       0.941   5.343  20.989  0.00  0.00    +0.000 F 
ATOM      6  C   UNL     1       1.232   3.094  20.381  0.00  0.00    +0.000 A 
ATOM      7  C   UNL     1       1.958   2.107  19.725  0.00  0.00    +0.000 A 
ATOM      8  C   UNL     1       3.144   2.443  19.070  0.00  0.00    +0.000 A 
ATOM      9  C   UNL     1       3.594   3.781  19.036  0.00  0.00    +0.000 A 
BRANCH   9  10
ATOM     10  N   UNL     1       4.803   4.070  18.350  0.00  0.00    +0.000 N 
ATOM     11  C   UNL     1       5.021   4.044  16.989  0.00  0.00    +0.000 A 
ATOM     12  C   UNL     1       6.322   4.425  16.775  0.00  0.00    +0.000 A 
ATOM     13  C   UNL     1       6.824   4.682  18.061  0.00  0.00    +0.000 A 
ATOM     14  N   UNL     1       5.920   4.468  19.018  0.00  0.00    +0.000 NA
ENDBRANCH   9  10
ENDBRANCH   1   3
BRANCH   1  16
ATOM     15  O   UNL     1       1.806   6.322  17.571  0.00  0.00    +0.000 OA
ATOM     16  S   UNL     1       2.784   7.117  18.287  0.00  0.00    +0.000 S 
ATOM     17  O   UNL     1       3.990   7.576  17.642  0.00  0.00    +0.000 OA
BRANCH  16  18
ATOM     18  C   UNL     1       1.933   8.521  18.992  0.00  0.00    +0.000 C 
BRANCH  18  19
ATOM     19  C   UNL     1       1.535   9.564  17.937  0.00  0.00    +0.000 C 
ATOM     20  C   UNL     1       2.090  10.982  18.110  0.00  0.00    +0.000 C 
ATOM     21  C   UNL     1       1.455  11.729  19.276  0.00  0.00    +0.000 C 
ATOM     22  C   UNL     1      -0.066  11.629  19.251  0.00  0.00    +0.000 C 
ATOM     23  C   UNL     1      -0.558  10.223  18.946  0.00  0.00    +0.000 C 
ATOM     24  O   UNL     1       0.099   9.648  17.818  0.00  0.00    +0.000 OA
ENDBRANCH  18  19
ENDBRANCH  16  18
ENDBRANCH   1  16
TORSDOF 5
ENDMDL
MODEL 4
REMARK VINA RESULT:      -7.1      1.669      2.289
REMARK  Name = 
REMARK  5 active torsions:
REMARK  status: ('A' for Active; 'I' for Inactive)
REMARK    1  A    between atoms: S_2  and  C_4
REMARK    2  A    between atoms: S_2  and  N_11
REMARK    3  A    between atoms: C_4  and  C_5
REMARK    4  A    between atoms: N_11  and  C_12
REMARK    5  A    between atoms: C_18  and  N_19
REMARK                            x       y       z     vdW  Elec       q    Type
REMARK                         _______ _______ _______ _____ _____    ______ ____
ROOT
ATOM      1  N   UNL     1       3.346   4.956  17.840  0.00  0.00    +0.000 N 
ATOM      2  H   UNL     1       2.686   4.166  17.739  0.00  0.00    +0.000 HD
ENDROOT
BRANCH   1   3
ATOM      3  C   UNL     1       2.744   6.038  18.590  0.00  0.00    +0.000 A 
ATOM      4  C   UNL     1       2.889   7.348  18.116  0.00  0.00    +0.000 A 
ATOM      5  F   UNL     1       3.569   7.583  16.984  0.00  0.00    +0.000 F 
ATOM      6  C   UNL     1       2.309   8.435  18.771  0.00  0.00    +0.000 A 
ATOM      7  C   UNL     1       1.586   8.232  19.941  0.00  0.00    +0.000 A 
ATOM      8  C   UNL     1       1.473   6.945  20.468  0.00  0.00    +0.000 A 
ATOM      9  C   UNL     1       2.056   5.842  19.807  0.00  0.00    +0.000 A 
BRANCH   9  10
ATOM     10  N   UNL     1       1.905   4.553  20.383  0.00  0.00    +0.000 N 
ATOM     11  C   UNL     1       2.412   4.108  21.586  0.00  0.00    +0.000 A 
ATOM     12  C   UNL     1       1.990   2.813  21.754  0.00  0.00    +0.000 A 
ATOM     13  C   UNL     1       1.215   2.550  20.614  0.00  0.00    +0.000 A 
ATOM     14  N   UNL     1       1.160   3.588  19.777  0.00  0.00    +0.000 NA
ENDBRANCH   9  10
ENDBRANCH   1   3
BRANCH   1  16
ATOM     15  O   UNL     1       4.438   2.960  18.891  0.00  0.00    +0.000 OA
ATOM     16  S   UNL     1       4.790   4.288  18.430  0.00  0.00    +0.000 S 
ATOM     17  O   UNL     1       5.415   5.243  19.313  0.00  0.00    +0.000 OA
BRANCH  16  18
ATOM     18  C   UNL     1       5.796   4.108  16.966  0.00  0.00    +0.000 C 
BRANCH  18  19
ATOM     19  C   UNL     1       5.403   5.090  15.852  0.00  0.00    +0.000 C 
ATOM     20  C   UNL     1       4.891   4.490  14.538  0.00  0.00    +0.000 C 
ATOM     21  C   UNL     1       5.988   3.810  13.729  0.00  0.00    +0.000 C 
ATOM     22  C   UNL     1       7.224   4.692  13.597  0.00  0.00    +0.000 C 
ATOM     23  C   UNL     1       7.610   5.363  14.907  0.00  0.00    +0.000 C 
ATOM     24  O   UNL     1       6.497   5.983  15.549  0.00  0.00    +0.000 OA
ENDBRANCH  18  19
ENDBRANCH  16  18
ENDBRANCH   1  16
TORSDOF 5
ENDMDL
MODEL 5
REMARK VINA RESULT:      -7.1      1.741      3.367
REMARK  Name = 
REMARK  5 active torsions:
REMARK  status: ('A' for Active; 'I' for Inactive)
REMARK    1  A    between atoms: S_2  and  C_4
REMARK    2  A    between atoms: S_2  and  N_11
REMARK    3  A    between atoms: C_4  and  C_5
REMARK    4  A    between atoms: N_11  and  C_12
REMARK    5  A    between atoms: C_18  and  N_19
REMARK                            x       y       z     vdW  Elec       q    Type
REMARK                         _______ _______ _______ _____ _____    ______ ____
ROOT
ATOM      1  N   UNL     1       3.250   4.291  17.239  0.00  0.00    +0.000 N 
ATOM      2  H   UNL     1       2.951   3.848  16.353  0.00  0.00    +0.000 HD
ENDROOT
BRANCH   1   3
ATOM      3  C   UNL     1       2.424   3.848  18.342  0.00  0.00    +0.000 A 
ATOM      4  C   UNL     1       2.173   2.478  18.487  0.00  0.00    +0.000 A 
ATOM      5  F   UNL     1       2.699   1.602  17.618  0.00  0.00    +0.000 F 
ATOM      6  C   UNL     1       1.413   1.978  19.545  0.00  0.00    +0.000 A 
ATOM      7  C   UNL     1       0.861   2.852  20.474  0.00  0.00    +0.000 A 
ATOM      8  C   UNL     1       1.046   4.227  20.323  0.00  0.00    +0.000 A 
ATOM      9  C   UNL     1       1.818   4.737  19.256  0.00  0.00    +0.000 A 
BRANCH   9  10
ATOM     10  N   UNL     1       1.980   6.143  19.152  0.00  0.00    +0.000 N 
ATOM     11  C   UNL     1       1.890   7.075  20.165  0.00  0.00    +0.000 A 
ATOM     12  C   UNL     1       2.152   8.305  19.615  0.00  0.00    +0.000 A 
ATOM     13  C   UNL     1       2.410   8.032  18.263  0.00  0.00    +0.000 A 
ATOM     14  N   UNL     1       2.305   6.734  17.970  0.00  0.00    +0.000 NA
ENDBRANCH   9  10
ENDBRANCH   1   3
BRANCH   1  16
ATOM     15  O   UNL     1       5.246   3.123  16.272  0.00  0.00    +0.000 OA
ATOM     16  S   UNL     1       4.924   4.037  17.349  0.00  0.00    +0.000 S 
ATOM     17  O   UNL     1       5.256   3.725  18.718  0.00  0.00    +0.000 OA
BRANCH  16  18
ATOM     18  C   UNL     1       5.616   5.631  16.935  0.00  0.00    +0.000 C 
BRANCH  18  19
ATOM     19  C   UNL     1       7.144   5.593  16.782  0.00  0.00    +0.000 C 
ATOM     20  C   UNL     1       7.952   5.037  17.960  0.00  0.00    +0.000 C 
ATOM     21  C   UNL     1       7.967   5.973  19.163  0.00  0.00    +0.000 C 
ATOM     22  C   UNL     1       8.308   7.403  18.763  0.00  0.00    +0.000 C 
ATOM     23  C   UNL     1       7.573   7.856  17.510  0.00  0.00    +0.000 C 
ATOM     24  O   UNL     1       7.658   6.901  16.454  0.00  0.00    +0.000 OA
ENDBRANCH  18  19
ENDBRANCH  16  18
ENDBRANCH   1  16
TORSDOF 5
ENDMDL
MODEL 6
REMARK VINA RESULT:      -7.1      3.898      5.655
REMARK  Name = 
REMARK  5 active torsions:
REMARK  status: ('A' for Active; 'I' for Inactive)
REMARK    1  A    between atoms: S_2  and  C_4
REMARK    2  A    between atoms: S_2  and  N_11
REMARK    3  A    between atoms: C_4  and  C_5
REMARK    4  A    between atoms: N_11  and  C_12
REMARK    5  A    between atoms: C_18  and  N_19
REMARK                            x       y       z     vdW  Elec       q    Type
REMARK                         _______ _______ _______ _____ _____    ______ ____
ROOT
ATOM      1  N   UNL     1       5.410   3.665  16.651  0.00  0.00    +0.000 N 
ATOM      2  H   UNL     1       6.199   3.371  17.252  0.00  0.00    +0.000 HD
ENDROOT
BRANCH   1   3
ATOM      3  C   UNL     1       4.424   4.399  17.416  0.00  0.00    +0.000 A 
ATOM      4  C   UNL     1       3.071   4.071  17.261  0.00  0.00    +0.000 A 
ATOM      5  F   UNL     1       2.708   3.089  16.422  0.00  0.00    +0.000 F 
ATOM      6  C   UNL     1       2.071   4.716  17.990  0.00  0.00    +0.000 A 
ATOM      7  C   UNL     1       2.407   5.730  18.879  0.00  0.00    +0.000 A 
ATOM      8  C   UNL     1       3.741   6.118  19.011  0.00  0.00    +0.000 A 
ATOM      9  C   UNL     1       4.757   5.466  18.278  0.00  0.00    +0.000 A 
BRANCH   9  10
ATOM     10  N   UNL     1       6.098   5.895  18.455  0.00  0.00    +0.000 N 
ATOM     11  C   UNL     1       6.703   7.006  17.906  0.00  0.00    +0.000 A 
ATOM     12  C   UNL     1       7.992   7.046  18.377  0.00  0.00    +0.000 A 
ATOM     13  C   UNL     1       8.087   5.929  19.222  0.00  0.00    +0.000 A 
ATOM     14  N   UNL     1       6.955   5.225  19.274  0.00  0.00    +0.000 NA
ENDBRANCH   9  10
ENDBRANCH   1   3
BRANCH   1  16
ATOM     15  O   UNL     1       7.491   4.659  15.668  0.00  0.00    +0.000 OA
ATOM     16  S   UNL     1       6.105   4.434  15.307  0.00  0.00    +0.000 S 
ATOM     17  O   UNL     1       5.251   5.526  14.905  0.00  0.00    +0.000 OA
BRANCH  16  18
ATOM     18  C   UNL     1       6.069   3.174  14.041  0.00  0.00    +0.000 C 
BRANCH  18  19
ATOM     19  C   UNL     1       5.882   3.756  12.631  0.00  0.00    +0.000 C 
ATOM     20  C   UNL     1       4.875   3.056  11.713  0.00  0.00    +0.000 C 
ATOM     21  C   UNL     1       5.360   1.695  11.228  0.00  0.00    +0.000 C 
ATOM     22  C   UNL     1       6.785   1.761  10.692  0.00  0.00    +0.000 C 
ATOM     23  C   UNL     1       7.711   2.579  11.580  0.00  0.00    +0.000 C 
ATOM     24  O   UNL     1       7.147   3.839  11.941  0.00  0.00    +0.000 OA
ENDBRANCH  18  19
ENDBRANCH  16  18
ENDBRANCH   1  16
TORSDOF 5
ENDMDL
MODEL 7
REMARK VINA RESULT:      -7.1      1.835      3.430
REMARK  Name = 
REMARK  5 active torsions:
REMARK  status: ('A' for Active; 'I' for Inactive)
REMARK    1  A    between atoms: S_2  and  C_4
REMARK    2  A    between atoms: S_2  and  N_11
REMARK    3  A    between atoms: C_4  and  C_5
REMARK    4  A    between atoms: N_11  and  C_12
REMARK    5  A    between atoms: C_18  and  N_19
REMARK                            x       y       z     vdW  Elec       q    Type
REMARK                         _______ _______ _______ _____ _____    ______ ____
ROOT
ATOM      1  N   UNL     1       4.433   4.655  18.962  0.00  0.00    +0.000 N 
ATOM      2  H   UNL     1       4.476   5.687  19.037  0.00  0.00    +0.000 HD
ENDROOT
BRANCH   1   3
ATOM      3  C   UNL     1       3.270   4.136  19.651  0.00  0.00    +0.000 A 
ATOM      4  C   UNL     1       3.233   2.774  19.975  0.00  0.00    +0.000 A 
ATOM      5  F   UNL     1       4.264   1.977  19.655  0.00  0.00    +0.000 F 
ATOM      6  C   UNL     1       2.159   2.212  20.668  0.00  0.00    +0.000 A 
ATOM      7  C   UNL     1       1.078   3.007  21.028  0.00  0.00    +0.000 A 
ATOM      8  C   UNL     1       1.061   4.355  20.668  0.00  0.00    +0.000 A 
ATOM      9  C   UNL     1       2.147   4.928  19.971  0.00  0.00    +0.000 A 
BRANCH   9  10
ATOM     10  N   UNL     1       2.082   6.306  19.634  0.00  0.00    +0.000 N 
ATOM     11  C   UNL     1       1.738   7.355  20.460  0.00  0.00    +0.000 A 
ATOM     12  C   UNL     1       1.844   8.508  19.722  0.00  0.00    +0.000 A 
ATOM     13  C   UNL     1       2.277   8.074  18.460  0.00  0.00    +0.000 A 
ATOM     14  N   UNL     1       2.419   6.749  18.392  0.00  0.00    +0.000 NA
ENDBRANCH   9  10
ENDBRANCH   1   3
BRANCH   1  16
ATOM     15  O   UNL     1       3.257   4.324  16.772  0.00  0.00    +0.000 OA
ATOM     16  S   UNL     1       4.602   4.298  17.312  0.00  0.00    +0.000 S 
ATOM     17  O   UNL     1       5.440   3.131  17.174  0.00  0.00    +0.000 OA
BRANCH  16  18
ATOM     18  C   UNL     1       5.475   5.716  16.665  0.00  0.00    +0.000 C 
BRANCH  18  19
ATOM     19  C   UNL     1       6.997   5.509  16.625  0.00  0.00    +0.000 C 
ATOM     20  C   UNL     1       7.649   4.873  17.858  0.00  0.00    +0.000 C 
ATOM     21  C   UNL     1       7.678   5.807  19.061  0.00  0.00    +0.000 C 
ATOM     22  C   UNL     1       8.204   7.189  18.693  0.00  0.00    +0.000 C 
ATOM     23  C   UNL     1       7.617   7.714  17.391  0.00  0.00    +0.000 C 
ATOM     24  O   UNL     1       7.675   6.751  16.340  0.00  0.00    +0.000 OA
ENDBRANCH  18  19
ENDBRANCH  16  18
ENDBRANCH   1  16
TORSDOF 5
ENDMDL
MODEL 8
REMARK VINA RESULT:      -7.0      2.300      4.147
REMARK  Name = 
REMARK  5 active torsions:
REMARK  status: ('A' for Active; 'I' for Inactive)
REMARK    1  A    between atoms: S_2  and  C_4
REMARK    2  A    between atoms: S_2  and  N_11
REMARK    3  A    between atoms: C_4  and  C_5
REMARK    4  A    between atoms: N_11  and  C_12
REMARK    5  A    between atoms: C_18  and  N_19
REMARK                            x       y       z     vdW  Elec       q    Type
REMARK                         _______ _______ _______ _____ _____    ______ ____
ROOT
ATOM      1  N   UNL     1       4.425   4.388  18.298  0.00  0.00    +0.000 N 
ATOM      2  H   UNL     1       4.724   3.520  17.821  0.00  0.00    +0.000 HD
ENDROOT
BRANCH   1   3
ATOM      3  C   UNL     1       3.568   4.087  19.426  0.00  0.00    +0.000 A 
ATOM      4  C   UNL     1       3.689   2.839  20.049  0.00  0.00    +0.000 A 
ATOM      5  F   UNL     1       4.591   1.950  19.606  0.00  0.00    +0.000 F 
ATOM      6  C   UNL     1       2.918   2.495  21.161  0.00  0.00    +0.000 A 
ATOM      7  C   UNL     1       1.982   3.393  21.658  0.00  0.00    +0.000 A 
ATOM      8  C   UNL     1       1.798   4.621  21.022  0.00  0.00    +0.000 A 
ATOM      9  C   UNL     1       2.579   4.975  19.900  0.00  0.00    +0.000 A 
BRANCH   9  10
ATOM     10  N   UNL     1       2.356   6.240  19.295  0.00  0.00    +0.000 N 
ATOM     11  C   UNL     1       2.153   7.449  19.927  0.00  0.00    +0.000 A 
ATOM     12  C   UNL     1       2.017   8.404  18.951  0.00  0.00    +0.000 A 
ATOM     13  C   UNL     1       2.168   7.696  17.749  0.00  0.00    +0.000 A 
ATOM     14  N   UNL     1       2.368   6.391  17.942  0.00  0.00    +0.000 NA
ENDBRANCH   9  10
ENDBRANCH   1   3
BRANCH   1  16
ATOM     15  O   UNL     1       6.435   4.670  19.770  0.00  0.00    +0.000 OA
ATOM     16  S   UNL     1       5.842   5.273  18.593  0.00  0.00    +0.000 S 
ATOM     17  O   UNL     1       5.525   6.681  18.554  0.00  0.00    +0.000 OA
BRANCH  16  18
ATOM     18  C   UNL     1       6.881   4.875  17.196  0.00  0.00    +0.000 C 
BRANCH  18  19
ATOM     19  C   UNL     1       6.664   5.822  16.006  0.00  0.00    +0.000 C 
ATOM     20  C   UNL     1       5.276   5.821  15.354  0.00  0.00    +0.000 C 
ATOM     21  C   UNL     1       4.995   4.550  14.561  0.00  0.00    +0.000 C 
ATOM     22  C   UNL     1       6.148   4.200  13.627  0.00  0.00    +0.000 C 
ATOM     23  C   UNL     1       7.508   4.344  14.292  0.00  0.00    +0.000 C 
ATOM     24  O   UNL     1       7.650   5.587  14.979  0.00  0.00    +0.000 OA
ENDBRANCH  18  19
ENDBRANCH  16  18
ENDBRANCH   1  16
TORSDOF 5
ENDMDL
MODEL 9
REMARK VINA RESULT:      -6.8      1.738      2.392
REMARK  Name = 
REMARK  5 active torsions:
REMARK  status: ('A' for Active; 'I' for Inactive)
REMARK    1  A    between atoms: S_2  and  C_4
REMARK    2  A    between atoms: S_2  and  N_11
REMARK    3  A    between atoms: C_4  and  C_5
REMARK    4  A    between atoms: N_11  and  C_12
REMARK    5  A    between atoms: C_18  and  N_19
REMARK                            x       y       z     vdW  Elec       q    Type
REMARK                         _______ _______ _______ _____ _____    ______ ____
ROOT
ATOM      1  N   UNL     1       2.760   5.555  17.837  0.00  0.00    +0.000 N 
ATOM      2  H   UNL     1       2.127   4.740  17.756  0.00  0.00    +0.000 HD
ENDROOT
BRANCH   1   3
ATOM      3  C   UNL     1       2.266   6.494  18.822  0.00  0.00    +0.000 A 
ATOM      4  C   UNL     1       2.296   7.862  18.521  0.00  0.00    +0.000 A 
ATOM      5  F   UNL     1       2.769   8.281  17.337  0.00  0.00    +0.000 F 
ATOM      6  C   UNL     1       1.807   8.821  19.409  0.00  0.00    +0.000 A 
ATOM      7  C   UNL     1       1.298   8.427  20.641  0.00  0.00    +0.000 A 
ATOM      8  C   UNL     1       1.308   7.076  20.992  0.00  0.00    +0.000 A 
ATOM      9  C   UNL     1       1.798   6.102  20.094  0.00  0.00    +0.000 A 
BRANCH   9  10
ATOM     10  N   UNL     1       1.779   4.741  20.498  0.00  0.00    +0.000 N 
ATOM     11  C   UNL     1       2.466   4.169  21.548  0.00  0.00    +0.000 A 
ATOM     12  C   UNL     1       2.122   2.841  21.587  0.00  0.00    +0.000 A 
ATOM     13  C   UNL     1       1.205   2.689  20.536  0.00  0.00    +0.000 A 
ATOM     14  N   UNL     1       0.993   3.825  19.869  0.00  0.00    +0.000 NA
ENDBRANCH   9  10
ENDBRANCH   1   3
BRANCH   1  16
ATOM     15  O   UNL     1       4.141   3.481  18.113  0.00  0.00    +0.000 OA
ATOM     16  S   UNL     1       4.317   4.919  18.058  0.00  0.00    +0.000 S 
ATOM     17  O   UNL     1       4.961   5.634  19.134  0.00  0.00    +0.000 OA
BRANCH  16  18
ATOM     18  C   UNL     1       5.148   5.307  16.526  0.00  0.00    +0.000 C 
BRANCH  18  19
ATOM     19  C   UNL     1       6.305   4.344  16.218  0.00  0.00    +0.000 C 
ATOM     20  C   UNL     1       7.557   4.940  15.565  0.00  0.00    +0.000 C 
ATOM     21  C   UNL     1       7.334   5.342  14.113  0.00  0.00    +0.000 C 
ATOM     22  C   UNL     1       6.656   4.234  13.316  0.00  0.00    +0.000 C 
ATOM     23  C   UNL     1       5.500   3.592  14.068  0.00  0.00    +0.000 C 
ATOM     24  O   UNL     1       5.849   3.241  15.406  0.00  0.00    +0.000 OA
ENDBRANCH  18  19
ENDBRANCH  16  18
ENDBRANCH   1  16
TORSDOF 5
ENDMDL
