MODEL 1
REMARK VINA RESULT:      -8.4      0.000      0.000
REMARK  Name = 
REMARK  11 active torsions:
REMARK  status: ('A' for Active; 'I' for Inactive)
REMARK    1  A    between atoms: C_1  and  C_2
REMARK    2  A    between atoms: C_2  and  N_3
REMARK    3  A    between atoms: N_3  and  C_4
REMARK    4  A    between atoms: N_3  and  S_10
REMARK    5  A    between atoms: S_10  and  C_13
REMARK    6  A    between atoms: C_18  and  N_19
REMARK    7  A    between atoms: C_20  and  C_22
REMARK    8  A    between atoms: C_22  and  N_23
REMARK    9  A    between atoms: N_23  and  C_24
REMARK   10  A    between atoms: C_24  and  C_25
REMARK   11  A    between atoms: C_24  and  C_26
REMARK                            x       y       z     vdW  Elec       q    Type
REMARK                         _______ _______ _______ _____ _____    ______ ____
ROOT
ATOM      1  C   UNL     1       4.439   5.777  17.272  0.00  0.00    +0.000 A 
ATOM      2  C   UNL     1       3.901   4.529  16.928  0.00  0.00    +0.000 A 
ATOM      3  C   UNL     1       2.895   3.968  17.718  0.00  0.00    +0.000 A 
ATOM      4  C   UNL     1       2.437   4.649  18.848  0.00  0.00    +0.000 A 
ATOM      5 CL   UNL     1       1.116   3.977  19.739  0.00  0.00    +0.000 Cl
ATOM      6  C   UNL     1       2.976   5.900  19.190  0.00  0.00    +0.000 A 
ATOM      7  C   UNL     1       4.013   6.442  18.422  0.00  0.00    +0.000 A 
ENDROOT
BRANCH   6   8
ATOM      8  N   UNL     1       2.428   6.625  20.276  0.00  0.00    +0.000 N 
ATOM      9  C   UNL     1       1.843   7.866  20.090  0.00  0.00    +0.000 C 
ATOM     10  O   UNL     1       1.769   8.449  19.010  0.00  0.00    +0.000 OA
ATOM     11  H   UNL     1       2.048   6.062  21.031  0.00  0.00    +0.000 HD
BRANCH   9  12
ATOM     12  C   UNL     1       1.149   8.434  21.321  0.00  0.00    +0.000 C 
BRANCH  12  13
ATOM     13  N   UNL     1       0.387   9.648  20.986  0.00  0.00    +0.000 NA
ATOM     14  H   UNL     1      -0.177   9.438  20.157  0.00  0.00    +0.000 HD
BRANCH  13  15
ATOM     15  C   UNL     1      -0.533  10.126  22.030  0.00  0.00    +0.000 C 
ATOM     16  C   UNL     1      -0.222   9.533  23.409  0.00  0.00    +0.000 C 
BRANCH  15  17
ATOM     17  C   UNL     1      -0.478  11.650  22.085  0.00  0.00    +0.000 A 
ATOM     18  C   UNL     1       0.328  12.372  21.192  0.00  0.00    +0.000 A 
ATOM     19  C   UNL     1       0.394  13.768  21.262  0.00  0.00    +0.000 A 
ATOM     20  C   UNL     1      -0.344  14.456  22.222  0.00  0.00    +0.000 A 
ATOM     21  C   UNL     1      -1.152  13.754  23.113  0.00  0.00    +0.000 A 
ATOM     22  C   UNL     1      -1.217  12.361  23.047  0.00  0.00    +0.000 A 
ENDBRANCH  15  17
ENDBRANCH  13  15
ENDBRANCH  12  13
ENDBRANCH   9  12
ENDBRANCH   6   8
BRANCH   1  23
ATOM     23  S   UNL     1       5.690   6.521  16.235  0.00  0.00    +0.000 S 
ATOM     24  O   UNL     1       6.425   7.437  17.087  0.00  0.00    +0.000 OA
ATOM     25  O   UNL     1       5.032   7.004  15.040  0.00  0.00    +0.000 OA
BRANCH  23  26
ATOM     26  N   UNL     1       6.730   5.209  15.862  0.00  0.00    +0.000 N 
BRANCH  26  27
ATOM     27  C   UNL     1       6.766   4.769  14.499  0.00  0.00    +0.000 A 
ATOM     28  C   UNL     1       7.688   5.371  13.639  0.00  0.00    +0.000 A 
ATOM     29  C   UNL     1       7.787   4.965  12.305  0.00  0.00    +0.000 A 
ATOM     30  C   UNL     1       6.953   3.965  11.814  0.00  0.00    +0.000 A 
ATOM     31  C   UNL     1       6.021   3.376  12.664  0.00  0.00    +0.000 A 
ATOM     32  C   UNL     1       5.921   3.777  14.001  0.00  0.00    +0.000 A 
ENDBRANCH  26  27
BRANCH  26  34
ATOM     33  C   UNL     1       7.843   4.776  18.083  0.00  0.00    +0.000 C 
ATOM     34  C   UNL     1       6.963   4.240  16.964  0.00  0.00    +0.000 C 
ENDBRANCH  26  34
ENDBRANCH  23  26
ENDBRANCH   1  23
TORSDOF 9
ENDMDL
MODEL 2
REMARK VINA RESULT:      -8.4      0.992      1.477
REMARK  Name = 
REMARK  11 active torsions:
REMARK  status: ('A' for Active; 'I' for Inactive)
REMARK    1  A    between atoms: C_1  and  C_2
REMARK    2  A    between atoms: C_2  and  N_3
REMARK    3  A    between atoms: N_3  and  C_4
REMARK    4  A    between atoms: N_3  and  S_10
REMARK    5  A    between atoms: S_10  and  C_13
REMARK    6  A    between atoms: C_18  and  N_19
REMARK    7  A    between atoms: C_20  and  C_22
REMARK    8  A    between atoms: C_22  and  N_23
REMARK    9  A    between atoms: N_23  and  C_24
REMARK   10  A    between atoms: C_24  and  C_25
REMARK   11  A    between atoms: C_24  and  C_26
REMARK                            x       y       z     vdW  Elec       q    Type
REMARK                         _______ _______ _______ _____ _____    ______ ____
ROOT
ATOM      1  C   UNL     1       4.500   5.786  17.330  0.00  0.00    +0.000 A 
ATOM      2  C   UNL     1       4.015   4.514  16.998  0.00  0.00    +0.000 A 
ATOM      3  C   UNL     1       3.016   3.929  17.779  0.00  0.00    +0.000 A 
ATOM      4  C   UNL     1       2.512   4.610  18.888  0.00  0.00    +0.000 A 
ATOM      5 CL   UNL     1       1.200   3.904  19.766  0.00  0.00    +0.000 Cl
ATOM      6  C   UNL     1       2.998   5.886  19.219  0.00  0.00    +0.000 A 
ATOM      7  C   UNL     1       4.028   6.454  18.461  0.00  0.00    +0.000 A 
ENDROOT
BRANCH   6   8
ATOM      8  N   UNL     1       2.403   6.607  20.282  0.00  0.00    +0.000 N 
ATOM      9  C   UNL     1       1.844   7.857  20.078  0.00  0.00    +0.000 C 
ATOM     10  O   UNL     1       1.833   8.452  19.003  0.00  0.00    +0.000 OA
ATOM     11  H   UNL     1       1.977   6.043  21.011  0.00  0.00    +0.000 HD
BRANCH   9  12
ATOM     12  C   UNL     1       1.094   8.422  21.277  0.00  0.00    +0.000 C 
BRANCH  12  13
ATOM     13  N   UNL     1       0.111   9.435  20.858  0.00  0.00    +0.000 NA
ATOM     14  H   UNL     1      -0.800   9.152  21.231  0.00  0.00    +0.000 HD
BRANCH  13  15
ATOM     15  C   UNL     1       0.370  10.803  21.333  0.00  0.00    +0.000 C 
ATOM     16  C   UNL     1       1.116  11.657  20.301  0.00  0.00    +0.000 C 
BRANCH  15  17
ATOM     17  C   UNL     1      -0.955  11.462  21.706  0.00  0.00    +0.000 A 
ATOM     18  C   UNL     1      -1.421  11.439  23.029  0.00  0.00    +0.000 A 
ATOM     19  C   UNL     1      -2.648  12.023  23.362  0.00  0.00    +0.000 A 
ATOM     20  C   UNL     1      -3.420  12.638  22.380  0.00  0.00    +0.000 A 
ATOM     21  C   UNL     1      -2.969  12.674  21.063  0.00  0.00    +0.000 A 
ATOM     22  C   UNL     1      -1.747  12.088  20.728  0.00  0.00    +0.000 A 
ENDBRANCH  15  17
ENDBRANCH  13  15
ENDBRANCH  12  13
ENDBRANCH   9  12
ENDBRANCH   6   8
BRANCH   1  23
ATOM     23  S   UNL     1       5.742   6.559  16.304  0.00  0.00    +0.000 S 
ATOM     24  O   UNL     1       6.468   7.470  17.169  0.00  0.00    +0.000 OA
ATOM     25  O   UNL     1       5.077   7.053  15.116  0.00  0.00    +0.000 OA
BRANCH  23  26
ATOM     26  N   UNL     1       6.796   5.264  15.910  0.00  0.00    +0.000 N 
BRANCH  26  27
ATOM     27  C   UNL     1       6.775   4.790  14.557  0.00  0.00    +0.000 A 
ATOM     28  C   UNL     1       7.726   5.298  13.669  0.00  0.00    +0.000 A 
ATOM     29  C   UNL     1       7.770   4.854  12.344  0.00  0.00    +0.000 A 
ATOM     30  C   UNL     1       6.853   3.911  11.892  0.00  0.00    +0.000 A 
ATOM     31  C   UNL     1       5.893   3.416  12.770  0.00  0.00    +0.000 A 
ATOM     32  C   UNL     1       5.847   3.856  14.097  0.00  0.00    +0.000 A 
ENDBRANCH  26  27
BRANCH  26  34
ATOM     33  C   UNL     1       7.758   4.996  18.226  0.00  0.00    +0.000 C 
ATOM     34  C   UNL     1       7.109   4.330  17.022  0.00  0.00    +0.000 C 
ENDBRANCH  26  34
ENDBRANCH  23  26
ENDBRANCH   1  23
TORSDOF 9
ENDMDL
MODEL 3
REMARK VINA RESULT:      -8.1      2.597      3.622
REMARK  Name = 
REMARK  11 active torsions:
REMARK  status: ('A' for Active; 'I' for Inactive)
REMARK    1  A    between atoms: C_1  and  C_2
REMARK    2  A    between atoms: C_2  and  N_3
REMARK    3  A    between atoms: N_3  and  C_4
REMARK    4  A    between atoms: N_3  and  S_10
REMARK    5  A    between atoms: S_10  and  C_13
REMARK    6  A    between atoms: C_18  and  N_19
REMARK    7  A    between atoms: C_20  and  C_22
REMARK    8  A    between atoms: C_22  and  N_23
REMARK    9  A    between atoms: N_23  and  C_24
REMARK   10  A    between atoms: C_24  and  C_25
REMARK   11  A    between atoms: C_24  and  C_26
REMARK                            x       y       z     vdW  Elec       q    Type
REMARK                         _______ _______ _______ _____ _____    ______ ____
ROOT
ATOM      1  C   UNL     1       2.583   6.823  18.950  0.00  0.00    +0.000 A 
ATOM      2  C   UNL     1       2.535   7.509  17.728  0.00  0.00    +0.000 A 
ATOM      3  C   UNL     1       1.996   8.796  17.679  0.00  0.00    +0.000 A 
ATOM      4  C   UNL     1       1.504   9.389  18.843  0.00  0.00    +0.000 A 
ATOM      5 CL   UNL     1       0.946  11.024  18.766  0.00  0.00    +0.000 Cl
ATOM      6  C   UNL     1       1.555   8.701  20.066  0.00  0.00    +0.000 A 
ATOM      7  C   UNL     1       2.056   7.395  20.108  0.00  0.00    +0.000 A 
ENDROOT
BRANCH   6   8
ATOM      8  N   UNL     1       1.149   9.356  21.254  0.00  0.00    +0.000 N 
ATOM      9  C   UNL     1       0.001   8.976  21.928  0.00  0.00    +0.000 C 
ATOM     10  O   UNL     1      -0.763   8.086  21.561  0.00  0.00    +0.000 OA
ATOM     11  H   UNL     1       1.899   9.728  21.828  0.00  0.00    +0.000 HD
BRANCH   9  12
ATOM     12  C   UNL     1      -0.203   9.658  23.274  0.00  0.00    +0.000 C 
BRANCH  12  13
ATOM     13  N   UNL     1      -1.353  10.576  23.235  0.00  0.00    +0.000 NA
ATOM     14  H   UNL     1      -1.648  10.741  24.202  0.00  0.00    +0.000 HD
BRANCH  13  15
ATOM     15  C   UNL     1      -1.094  11.890  22.628  0.00  0.00    +0.000 C 
ATOM     16  C   UNL     1      -1.470  11.941  21.143  0.00  0.00    +0.000 C 
BRANCH  15  17
ATOM     17  C   UNL     1      -1.858  12.959  23.405  0.00  0.00    +0.000 A 
ATOM     18  C   UNL     1      -1.241  14.169  23.757  0.00  0.00    +0.000 A 
ATOM     19  C   UNL     1      -1.937  15.136  24.490  0.00  0.00    +0.000 A 
ATOM     20  C   UNL     1      -3.255  14.907  24.876  0.00  0.00    +0.000 A 
ATOM     21  C   UNL     1      -3.883  13.713  24.531  0.00  0.00    +0.000 A 
ATOM     22  C   UNL     1      -3.189  12.745  23.802  0.00  0.00    +0.000 A 
ENDBRANCH  15  17
ENDBRANCH  13  15
ENDBRANCH  12  13
ENDBRANCH   9  12
ENDBRANCH   6   8
BRANCH   1  23
ATOM     23  S   UNL     1       3.318   5.195  19.026  0.00  0.00    +0.000 S 
ATOM     24  O   UNL     1       2.628   4.396  18.030  0.00  0.00    +0.000 OA
ATOM     25  O   UNL     1       3.323   4.786  20.415  0.00  0.00    +0.000 OA
BRANCH  23  26
ATOM     26  N   UNL     1       4.919   5.454  18.467  0.00  0.00    +0.000 N 
BRANCH  26  27
ATOM     27  C   UNL     1       5.209   5.082  17.114  0.00  0.00    +0.000 A 
ATOM     28  C   UNL     1       5.137   6.072  16.131  0.00  0.00    +0.000 A 
ATOM     29  C   UNL     1       5.433   5.774  14.798  0.00  0.00    +0.000 A 
ATOM     30  C   UNL     1       5.789   4.479  14.433  0.00  0.00    +0.000 A 
ATOM     31  C   UNL     1       5.844   3.487  15.407  0.00  0.00    +0.000 A 
ATOM     32  C   UNL     1       5.551   3.781  16.743  0.00  0.00    +0.000 A 
ENDBRANCH  26  27
BRANCH  26  34
ATOM     33  C   UNL     1       7.365   5.761  18.999  0.00  0.00    +0.000 C 
ATOM     34  C   UNL     1       5.981   5.380  19.504  0.00  0.00    +0.000 C 
ENDBRANCH  26  34
ENDBRANCH  23  26
ENDBRANCH   1  23
TORSDOF 9
ENDMDL
MODEL 4
REMARK VINA RESULT:      -7.9      4.799      8.103
REMARK  Name = 
REMARK  11 active torsions:
REMARK  status: ('A' for Active; 'I' for Inactive)
REMARK    1  A    between atoms: C_1  and  C_2
REMARK    2  A    between atoms: C_2  and  N_3
REMARK    3  A    between atoms: N_3  and  C_4
REMARK    4  A    between atoms: N_3  and  S_10
REMARK    5  A    between atoms: S_10  and  C_13
REMARK    6  A    between atoms: C_18  and  N_19
REMARK    7  A    between atoms: C_20  and  C_22
REMARK    8  A    between atoms: C_22  and  N_23
REMARK    9  A    between atoms: N_23  and  C_24
REMARK   10  A    between atoms: C_24  and  C_25
REMARK   11  A    between atoms: C_24  and  C_26
REMARK                            x       y       z     vdW  Elec       q    Type
REMARK                         _______ _______ _______ _____ _____    ______ ____
ROOT
ATOM      1  C   UNL     1       4.836   3.879  18.152  0.00  0.00    +0.000 A 
ATOM      2  C   UNL     1       4.647   3.362  16.862  0.00  0.00    +0.000 A 
ATOM      3  C   UNL     1       5.428   3.837  15.806  0.00  0.00    +0.000 A 
ATOM      4  C   UNL     1       6.386   4.825  16.039  0.00  0.00    +0.000 A 
ATOM      5 CL   UNL     1       7.409   5.309  14.731  0.00  0.00    +0.000 Cl
ATOM      6  C   UNL     1       6.575   5.340  17.332  0.00  0.00    +0.000 A 
ATOM      7  C   UNL     1       5.763   4.895  18.382  0.00  0.00    +0.000 A 
ENDROOT
BRANCH   6   8
ATOM      8  N   UNL     1       7.621   6.264  17.570  0.00  0.00    +0.000 N 
ATOM      9  C   UNL     1       7.424   7.627  17.423  0.00  0.00    +0.000 C 
ATOM     10  O   UNL     1       6.370   8.145  17.059  0.00  0.00    +0.000 OA
ATOM     11  H   UNL     1       8.301   5.986  18.271  0.00  0.00    +0.000 HD
BRANCH   9  12
ATOM     12  C   UNL     1       8.589   8.492  17.883  0.00  0.00    +0.000 C 
BRANCH  12  13
ATOM     13  N   UNL     1       8.126   9.827  18.299  0.00  0.00    +0.000 NA
ATOM     14  H   UNL     1       8.318   9.918  19.301  0.00  0.00    +0.000 HD
BRANCH  13  15
ATOM     15  C   UNL     1       8.775  10.961  17.625  0.00  0.00    +0.000 C 
ATOM     16  C   UNL     1       7.821  12.139  17.396  0.00  0.00    +0.000 C 
BRANCH  15  17
ATOM     17  C   UNL     1       9.980  11.409  18.447  0.00  0.00    +0.000 A 
ATOM     18  C   UNL     1      11.200  11.716  17.825  0.00  0.00    +0.000 A 
ATOM     19  C   UNL     1      12.309  12.103  18.585  0.00  0.00    +0.000 A 
ATOM     20  C   UNL     1      12.212  12.188  19.971  0.00  0.00    +0.000 A 
ATOM     21  C   UNL     1      11.008  11.891  20.604  0.00  0.00    +0.000 A 
ATOM     22  C   UNL     1       9.901  11.501  19.847  0.00  0.00    +0.000 A 
ENDBRANCH  15  17
ENDBRANCH  13  15
ENDBRANCH  12  13
ENDBRANCH   9  12
ENDBRANCH   6   8
BRANCH   1  23
ATOM     23  S   UNL     1       3.874   3.238  19.515  0.00  0.00    +0.000 S 
ATOM     24  O   UNL     1       4.423   3.844  20.714  0.00  0.00    +0.000 OA
ATOM     25  O   UNL     1       3.832   1.798  19.377  0.00  0.00    +0.000 OA
BRANCH  23  26
ATOM     26  N   UNL     1       2.318   3.914  19.257  0.00  0.00    +0.000 N 
BRANCH  26  27
ATOM     27  C   UNL     1       2.222   5.344  19.226  0.00  0.00    +0.000 A 
ATOM     28  C   UNL     1       1.869   6.004  20.406  0.00  0.00    +0.000 A 
ATOM     29  C   UNL     1       1.786   7.399  20.442  0.00  0.00    +0.000 A 
ATOM     30  C   UNL     1       2.039   8.145  19.296  0.00  0.00    +0.000 A 
ATOM     31  C   UNL     1       2.373   7.489  18.115  0.00  0.00    +0.000 A 
ATOM     32  C   UNL     1       2.461   6.094  18.074  0.00  0.00    +0.000 A 
ENDBRANCH  26  27
BRANCH  26  34
ATOM     33  C   UNL     1       0.473   2.302  18.659  0.00  0.00    +0.000 C 
ATOM     34  C   UNL     1       1.175   3.102  19.747  0.00  0.00    +0.000 C 
ENDBRANCH  26  34
ENDBRANCH  23  26
ENDBRANCH   1  23
TORSDOF 9
ENDMDL
MODEL 5
REMARK VINA RESULT:      -7.8      4.056      9.998
REMARK  Name = 
REMARK  11 active torsions:
REMARK  status: ('A' for Active; 'I' for Inactive)
REMARK    1  A    between atoms: C_1  and  C_2
REMARK    2  A    between atoms: C_2  and  N_3
REMARK    3  A    between atoms: N_3  and  C_4
REMARK    4  A    between atoms: N_3  and  S_10
REMARK    5  A    between atoms: S_10  and  C_13
REMARK    6  A    between atoms: C_18  and  N_19
REMARK    7  A    between atoms: C_20  and  C_22
REMARK    8  A    between atoms: C_22  and  N_23
REMARK    9  A    between atoms: N_23  and  C_24
REMARK   10  A    between atoms: C_24  and  C_25
REMARK   11  A    between atoms: C_24  and  C_26
REMARK                            x       y       z     vdW  Elec       q    Type
REMARK                         _______ _______ _______ _____ _____    ______ ____
ROOT
ATOM      1  C   UNL     1       0.165  12.781  21.548  0.00  0.00    +0.000 A 
ATOM      2  C   UNL     1      -0.755  12.266  22.471  0.00  0.00    +0.000 A 
ATOM      3  C   UNL     1      -1.000  10.892  22.511  0.00  0.00    +0.000 A 
ATOM      4  C   UNL     1      -0.333  10.041  21.628  0.00  0.00    +0.000 A 
ATOM      5 CL   UNL     1      -0.578   8.336  21.778  0.00  0.00    +0.000 Cl
ATOM      6  C   UNL     1       0.590  10.559  20.703  0.00  0.00    +0.000 A 
ATOM      7  C   UNL     1       0.803  11.940  20.635  0.00  0.00    +0.000 A 
ENDROOT
BRANCH   6   8
ATOM      8  N   UNL     1       1.334   9.673  19.888  0.00  0.00    +0.000 N 
ATOM      9  C   UNL     1       0.990   9.454  18.564  0.00  0.00    +0.000 C 
ATOM     10  O   UNL     1       0.027   9.967  17.998  0.00  0.00    +0.000 OA
ATOM     11  H   UNL     1       2.322   9.598  20.109  0.00  0.00    +0.000 HD
BRANCH   9  12
ATOM     12  C   UNL     1       1.988   8.613  17.778  0.00  0.00    +0.000 C 
BRANCH  12  13
ATOM     13  N   UNL     1       2.549   7.538  18.613  0.00  0.00    +0.000 NA
ATOM     14  H   UNL     1       1.867   7.334  19.350  0.00  0.00    +0.000 HD
BRANCH  13  15
ATOM     15  C   UNL     1       2.828   6.275  17.914  0.00  0.00    +0.000 C 
ATOM     16  C   UNL     1       4.328   5.999  17.764  0.00  0.00    +0.000 C 
BRANCH  15  17
ATOM     17  C   UNL     1       2.153   5.129  18.664  0.00  0.00    +0.000 A 
ATOM     18  C   UNL     1       1.928   5.210  20.046  0.00  0.00    +0.000 A 
ATOM     19  C   UNL     1       1.331   4.147  20.734  0.00  0.00    +0.000 A 
ATOM     20  C   UNL     1       0.951   2.996  20.049  0.00  0.00    +0.000 A 
ATOM     21  C   UNL     1       1.163   2.902  18.676  0.00  0.00    +0.000 A 
ATOM     22  C   UNL     1       1.761   3.960  17.988  0.00  0.00    +0.000 A 
ENDBRANCH  15  17
ENDBRANCH  13  15
ENDBRANCH  12  13
ENDBRANCH   9  12
ENDBRANCH   6   8
BRANCH   1  23
ATOM     23  S   UNL     1       0.518  14.533  21.528  0.00  0.00    +0.000 S 
ATOM     24  O   UNL     1       1.751  14.702  22.274  0.00  0.00    +0.000 OA
ATOM     25  O   UNL     1      -0.686  15.223  21.941  0.00  0.00    +0.000 OA
BRANCH  23  26
ATOM     26  N   UNL     1       0.860  14.853  19.878  0.00  0.00    +0.000 N 
BRANCH  26  27
ATOM     27  C   UNL     1       2.145  15.408  19.571  0.00  0.00    +0.000 A 
ATOM     28  C   UNL     1       2.977  14.699  18.701  0.00  0.00    +0.000 A 
ATOM     29  C   UNL     1       4.230  15.204  18.345  0.00  0.00    +0.000 A 
ATOM     30  C   UNL     1       4.671  16.415  18.869  0.00  0.00    +0.000 A 
ATOM     31  C   UNL     1       3.853  17.115  19.751  0.00  0.00    +0.000 A 
ATOM     32  C   UNL     1       2.596  16.615  20.107  0.00  0.00    +0.000 A 
ENDBRANCH  26  27
BRANCH  26  34
ATOM     33  C   UNL     1      -0.430  16.656  18.678  0.00  0.00    +0.000 C 
ATOM     34  C   UNL     1      -0.315  15.181  19.030  0.00  0.00    +0.000 C 
ENDBRANCH  26  34
ENDBRANCH  23  26
ENDBRANCH   1  23
TORSDOF 9
ENDMDL
MODEL 6
REMARK VINA RESULT:      -7.8      4.909      7.707
REMARK  Name = 
REMARK  11 active torsions:
REMARK  status: ('A' for Active; 'I' for Inactive)
REMARK    1  A    between atoms: C_1  and  C_2
REMARK    2  A    between atoms: C_2  and  N_3
REMARK    3  A    between atoms: N_3  and  C_4
REMARK    4  A    between atoms: N_3  and  S_10
REMARK    5  A    between atoms: S_10  and  C_13
REMARK    6  A    between atoms: C_18  and  N_19
REMARK    7  A    between atoms: C_20  and  C_22
REMARK    8  A    between atoms: C_22  and  N_23
REMARK    9  A    between atoms: N_23  and  C_24
REMARK   10  A    between atoms: C_24  and  C_25
REMARK   11  A    between atoms: C_24  and  C_26
REMARK                            x       y       z     vdW  Elec       q    Type
REMARK                         _______ _______ _______ _____ _____    ______ ____
ROOT
ATOM      1  C   UNL     1       4.998   4.272  17.548  0.00  0.00    +0.000 A 
ATOM      2  C   UNL     1       5.396   3.473  16.468  0.00  0.00    +0.000 A 
ATOM      3  C   UNL     1       6.270   3.991  15.510  0.00  0.00    +0.000 A 
ATOM      4  C   UNL     1       6.736   5.301  15.631  0.00  0.00    +0.000 A 
ATOM      5 CL   UNL     1       7.902   5.873  14.488  0.00  0.00    +0.000 Cl
ATOM      6  C   UNL     1       6.337   6.100  16.715  0.00  0.00    +0.000 A 
ATOM      7  C   UNL     1       5.428   5.595  17.651  0.00  0.00    +0.000 A 
ENDROOT
BRANCH   6   8
ATOM      8  N   UNL     1       6.901   7.389  16.879  0.00  0.00    +0.000 N 
ATOM      9  C   UNL     1       7.773   7.664  17.919  0.00  0.00    +0.000 C 
ATOM     10  O   UNL     1       8.109   6.857  18.783  0.00  0.00    +0.000 OA
ATOM     11  H   UNL     1       7.047   7.916  16.024  0.00  0.00    +0.000 HD
BRANCH   9  12
ATOM     12  C   UNL     1       8.424   9.040  17.856  0.00  0.00    +0.000 C 
BRANCH  12  13
ATOM     13  N   UNL     1       8.911   9.457  19.181  0.00  0.00    +0.000 NA
ATOM     14  H   UNL     1       9.337   8.636  19.623  0.00  0.00    +0.000 HD
BRANCH  13  15
ATOM     15  C   UNL     1       9.924  10.523  19.176  0.00  0.00    +0.000 C 
ATOM     16  C   UNL     1       9.967  11.293  17.851  0.00  0.00    +0.000 C 
BRANCH  15  17
ATOM     17  C   UNL     1       9.648  11.479  20.333  0.00  0.00    +0.000 A 
ATOM     18  C   UNL     1       8.851  11.083  21.418  0.00  0.00    +0.000 A 
ATOM     19  C   UNL     1       8.581  11.971  22.465  0.00  0.00    +0.000 A 
ATOM     20  C   UNL     1       9.104  13.261  22.441  0.00  0.00    +0.000 A 
ATOM     21  C   UNL     1       9.902  13.668  21.375  0.00  0.00    +0.000 A 
ATOM     22  C   UNL     1      10.170  12.784  20.327  0.00  0.00    +0.000 A 
ENDBRANCH  15  17
ENDBRANCH  13  15
ENDBRANCH  12  13
ENDBRANCH   9  12
ENDBRANCH   6   8
BRANCH   1  23
ATOM     23  S   UNL     1       3.919   3.595  18.803  0.00  0.00    +0.000 S 
ATOM     24  O   UNL     1       4.399   4.118  20.069  0.00  0.00    +0.000 OA
ATOM     25  O   UNL     1       3.842   2.166  18.584  0.00  0.00    +0.000 OA
BRANCH  23  26
ATOM     26  N   UNL     1       2.408   4.338  18.473  0.00  0.00    +0.000 N 
BRANCH  26  27
ATOM     27  C   UNL     1       2.216   5.674  18.956  0.00  0.00    +0.000 A 
ATOM     28  C   UNL     1       2.360   6.727  18.049  0.00  0.00    +0.000 A 
ATOM     29  C   UNL     1       2.159   8.048  18.457  0.00  0.00    +0.000 A 
ATOM     30  C   UNL     1       1.829   8.331  19.778  0.00  0.00    +0.000 A 
ATOM     31  C   UNL     1       1.702   7.285  20.688  0.00  0.00    +0.000 A 
ATOM     32  C   UNL     1       1.900   5.960  20.284  0.00  0.00    +0.000 A 
ENDBRANCH  26  27
BRANCH  26  34
ATOM     33  C   UNL     1       0.814   2.799  19.676  0.00  0.00    +0.000 C 
ATOM     34  C   UNL     1       1.251   3.415  18.355  0.00  0.00    +0.000 C 
ENDBRANCH  26  34
ENDBRANCH  23  26
ENDBRANCH   1  23
TORSDOF 9
ENDMDL
MODEL 7
REMARK VINA RESULT:      -7.8      2.564      3.979
REMARK  Name = 
REMARK  11 active torsions:
REMARK  status: ('A' for Active; 'I' for Inactive)
REMARK    1  A    between atoms: C_1  and  C_2
REMARK    2  A    between atoms: C_2  and  N_3
REMARK    3  A    between atoms: N_3  and  C_4
REMARK    4  A    between atoms: N_3  and  S_10
REMARK    5  A    between atoms: S_10  and  C_13
REMARK    6  A    between atoms: C_18  and  N_19
REMARK    7  A    between atoms: C_20  and  C_22
REMARK    8  A    between atoms: C_22  and  N_23
REMARK    9  A    between atoms: N_23  and  C_24
REMARK   10  A    between atoms: C_24  and  C_25
REMARK   11  A    between atoms: C_24  and  C_26
REMARK                            x       y       z     vdW  Elec       q    Type
REMARK                         _______ _______ _______ _____ _____    ______ ____
ROOT
ATOM      1  C   UNL     1       3.068   6.528  19.288  0.00  0.00    +0.000 A 
ATOM      2  C   UNL     1       3.291   7.303  18.141  0.00  0.00    +0.000 A 
ATOM      3  C   UNL     1       2.546   8.466  17.938  0.00  0.00    +0.000 A 
ATOM      4  C   UNL     1       1.582   8.847  18.872  0.00  0.00    +0.000 A 
ATOM      5 CL   UNL     1       0.757  10.350  18.644  0.00  0.00    +0.000 Cl
ATOM      6  C   UNL     1       1.361   8.071  20.022  0.00  0.00    +0.000 A 
ATOM      7  C   UNL     1       2.077   6.882  20.204  0.00  0.00    +0.000 A 
ENDROOT
BRANCH   6   8
ATOM      8  N   UNL     1       0.455   8.526  21.010  0.00  0.00    +0.000 N 
ATOM      9  C   UNL     1       0.888   9.275  22.091  0.00  0.00    +0.000 C 
ATOM     10  O   UNL     1       2.058   9.583  22.304  0.00  0.00    +0.000 OA
ATOM     11  H   UNL     1      -0.489   8.715  20.686  0.00  0.00    +0.000 HD
BRANCH   9  12
ATOM     12  C   UNL     1      -0.227   9.833  22.966  0.00  0.00    +0.000 C 
BRANCH  12  13
ATOM     13  N   UNL     1      -1.060  10.789  22.218  0.00  0.00    +0.000 NA
ATOM     14  H   UNL     1      -1.991  10.372  22.119  0.00  0.00    +0.000 HD
BRANCH  13  15
ATOM     15  C   UNL     1      -1.236  12.105  22.850  0.00  0.00    +0.000 C 
ATOM     16  C   UNL     1      -0.386  13.197  22.191  0.00  0.00    +0.000 C 
BRANCH  15  17
ATOM     17  C   UNL     1      -2.713  12.487  22.808  0.00  0.00    +0.000 A 
ATOM     18  C   UNL     1      -3.485  12.500  23.980  0.00  0.00    +0.000 A 
ATOM     19  C   UNL     1      -4.845  12.827  23.933  0.00  0.00    +0.000 A 
ATOM     20  C   UNL     1      -5.446  13.145  22.718  0.00  0.00    +0.000 A 
ATOM     21  C   UNL     1      -4.693  13.142  21.547  0.00  0.00    +0.000 A 
ATOM     22  C   UNL     1      -3.337  12.812  21.591  0.00  0.00    +0.000 A 
ENDBRANCH  15  17
ENDBRANCH  13  15
ENDBRANCH  12  13
ENDBRANCH   9  12
ENDBRANCH   6   8
BRANCH   1  23
ATOM     23  S   UNL     1       4.054   5.065  19.577  0.00  0.00    +0.000 S 
ATOM     24  O   UNL     1       3.336   4.287  20.570  0.00  0.00    +0.000 OA
ATOM     25  O   UNL     1       5.411   5.500  19.832  0.00  0.00    +0.000 OA
BRANCH  23  26
ATOM     26  N   UNL     1       3.961   4.221  18.087  0.00  0.00    +0.000 N 
BRANCH  26  27
ATOM     27  C   UNL     1       5.011   4.448  17.139  0.00  0.00    +0.000 A 
ATOM     28  C   UNL     1       4.655   4.703  15.812  0.00  0.00    +0.000 A 
ATOM     29  C   UNL     1       5.635   4.958  14.849  0.00  0.00    +0.000 A 
ATOM     30  C   UNL     1       6.981   4.944  15.200  0.00  0.00    +0.000 A 
ATOM     31  C   UNL     1       7.340   4.673  16.517  0.00  0.00    +0.000 A 
ATOM     32  C   UNL     1       6.362   4.420  17.485  0.00  0.00    +0.000 A 
ENDBRANCH  26  27
BRANCH  26  34
ATOM     33  C   UNL     1       2.286   2.408  17.571  0.00  0.00    +0.000 C 
ATOM     34  C   UNL     1       2.590   3.898  17.616  0.00  0.00    +0.000 C 
ENDBRANCH  26  34
ENDBRANCH  23  26
ENDBRANCH   1  23
TORSDOF 9
ENDMDL
MODEL 8
REMARK VINA RESULT:      -7.8      2.687      4.218
REMARK  Name = 
REMARK  11 active torsions:
REMARK  status: ('A' for Active; 'I' for Inactive)
REMARK    1  A    between atoms: C_1  and  C_2
REMARK    2  A    between atoms: C_2  and  N_3
REMARK    3  A    between atoms: N_3  and  C_4
REMARK    4  A    between atoms: N_3  and  S_10
REMARK    5  A    between atoms: S_10  and  C_13
REMARK    6  A    between atoms: C_18  and  N_19
REMARK    7  A    between atoms: C_20  and  C_22
REMARK    8  A    between atoms: C_22  and  N_23
REMARK    9  A    between atoms: N_23  and  C_24
REMARK   10  A    between atoms: C_24  and  C_25
REMARK   11  A    between atoms: C_24  and  C_26
REMARK                            x       y       z     vdW  Elec       q    Type
REMARK                         _______ _______ _______ _____ _____    ______ ____
ROOT
ATOM      1  C   UNL     1       2.617   6.985  19.233  0.00  0.00    +0.000 A 
ATOM      2  C   UNL     1       2.922   7.792  18.127  0.00  0.00    +0.000 A 
ATOM      3  C   UNL     1       2.240   8.997  17.942  0.00  0.00    +0.000 A 
ATOM      4  C   UNL     1       1.256   9.386  18.852  0.00  0.00    +0.000 A 
ATOM      5 CL   UNL     1       0.511  10.934  18.652  0.00  0.00    +0.000 Cl
ATOM      6  C   UNL     1       0.953   8.577  19.960  0.00  0.00    +0.000 A 
ATOM      7  C   UNL     1       1.607   7.350  20.123  0.00  0.00    +0.000 A 
ENDROOT
BRANCH   6   8
ATOM      8  N   UNL     1       0.030   9.037  20.930  0.00  0.00    +0.000 N 
ATOM      9  C   UNL     1       0.447   9.761  22.033  0.00  0.00    +0.000 C 
ATOM     10  O   UNL     1       1.617  10.043  22.284  0.00  0.00    +0.000 OA
ATOM     11  H   UNL     1      -0.901   9.250  20.583  0.00  0.00    +0.000 HD
BRANCH   9  12
ATOM     12  C   UNL     1      -0.681  10.329  22.886  0.00  0.00    +0.000 C 
BRANCH  12  13
ATOM     13  N   UNL     1      -0.570  11.792  23.006  0.00  0.00    +0.000 NA
ATOM     14  H   UNL     1      -0.210  12.146  22.114  0.00  0.00    +0.000 HD
BRANCH  13  15
ATOM     15  C   UNL     1      -1.828  12.501  23.283  0.00  0.00    +0.000 C 
ATOM     16  C   UNL     1      -1.602  13.934  23.781  0.00  0.00    +0.000 C 
BRANCH  15  17
ATOM     17  C   UNL     1      -2.685  12.509  22.021  0.00  0.00    +0.000 A 
ATOM     18  C   UNL     1      -4.080  12.638  22.101  0.00  0.00    +0.000 A 
ATOM     19  C   UNL     1      -4.865  12.620  20.943  0.00  0.00    +0.000 A 
ATOM     20  C   UNL     1      -4.266  12.475  19.694  0.00  0.00    +0.000 A 
ATOM     21  C   UNL     1      -2.883  12.351  19.597  0.00  0.00    +0.000 A 
ATOM     22  C   UNL     1      -2.098  12.366  20.751  0.00  0.00    +0.000 A 
ENDBRANCH  15  17
ENDBRANCH  13  15
ENDBRANCH  12  13
ENDBRANCH   9  12
ENDBRANCH   6   8
BRANCH   1  23
ATOM     23  S   UNL     1       3.523   5.468  19.501  0.00  0.00    +0.000 S 
ATOM     24  O   UNL     1       2.843   4.781  20.584  0.00  0.00    +0.000 OA
ATOM     25  O   UNL     1       4.924   5.814  19.620  0.00  0.00    +0.000 OA
BRANCH  23  26
ATOM     26  N   UNL     1       3.243   4.576  18.062  0.00  0.00    +0.000 N 
BRANCH  26  27
ATOM     27  C   UNL     1       4.256   4.631  17.050  0.00  0.00    +0.000 A 
ATOM     28  C   UNL     1       4.565   5.877  16.497  0.00  0.00    +0.000 A 
ATOM     29  C   UNL     1       5.563   5.995  15.526  0.00  0.00    +0.000 A 
ATOM     30  C   UNL     1       6.249   4.868  15.086  0.00  0.00    +0.000 A 
ATOM     31  C   UNL     1       5.931   3.623  15.622  0.00  0.00    +0.000 A 
ATOM     32  C   UNL     1       4.936   3.500  16.597  0.00  0.00    +0.000 A 
ENDBRANCH  26  27
BRANCH  26  34
ATOM     33  C   UNL     1       1.160   3.172  18.284  0.00  0.00    +0.000 C 
ATOM     34  C   UNL     1       1.818   4.404  17.681  0.00  0.00    +0.000 C 
ENDBRANCH  26  34
ENDBRANCH  23  26
ENDBRANCH   1  23
TORSDOF 9
ENDMDL
MODEL 9
REMARK VINA RESULT:      -7.7      3.160      9.763
REMARK  Name = 
REMARK  11 active torsions:
REMARK  status: ('A' for Active; 'I' for Inactive)
REMARK    1  A    between atoms: C_1  and  C_2
REMARK    2  A    between atoms: C_2  and  N_3
REMARK    3  A    between atoms: N_3  and  C_4
REMARK    4  A    between atoms: N_3  and  S_10
REMARK    5  A    between atoms: S_10  and  C_13
REMARK    6  A    between atoms: C_18  and  N_19
REMARK    7  A    between atoms: C_20  and  C_22
REMARK    8  A    between atoms: C_22  and  N_23
REMARK    9  A    between atoms: N_23  and  C_24
REMARK   10  A    between atoms: C_24  and  C_25
REMARK   11  A    between atoms: C_24  and  C_26
REMARK                            x       y       z     vdW  Elec       q    Type
REMARK                         _______ _______ _______ _____ _____    ______ ____
ROOT
ATOM      1  C   UNL     1       1.119   9.167  20.125  0.00  0.00    +0.000 A 
ATOM      2  C   UNL     1       1.285   9.649  18.819  0.00  0.00    +0.000 A 
ATOM      3  C   UNL     1       2.046   8.918  17.904  0.00  0.00    +0.000 A 
ATOM      4  C   UNL     1       2.641   7.718  18.296  0.00  0.00    +0.000 A 
ATOM      5 CL   UNL     1       3.483   6.785  17.107  0.00  0.00    +0.000 Cl
ATOM      6  C   UNL     1       2.472   7.236  19.604  0.00  0.00    +0.000 A 
ATOM      7  C   UNL     1       1.745   7.989  20.533  0.00  0.00    +0.000 A 
ENDROOT
BRANCH   6   8
ATOM      8  N   UNL     1       2.993   5.967  19.955  0.00  0.00    +0.000 N 
ATOM      9  C   UNL     1       2.162   4.874  20.137  0.00  0.00    +0.000 C 
ATOM     10  O   UNL     1       0.937   4.903  20.042  0.00  0.00    +0.000 OA
ATOM     11  H   UNL     1       3.925   5.764  19.608  0.00  0.00    +0.000 HD
BRANCH   9  12
ATOM     12  C   UNL     1       2.887   3.550  20.338  0.00  0.00    +0.000 C 
BRANCH  12  13
ATOM     13  N   UNL     1       4.195   3.553  19.662  0.00  0.00    +0.000 NA
ATOM     14  H   UNL     1       4.835   2.990  20.231  0.00  0.00    +0.000 HD
BRANCH  13  15
ATOM     15  C   UNL     1       4.207   2.990  18.304  0.00  0.00    +0.000 C 
ATOM     16  C   UNL     1       2.816   2.968  17.660  0.00  0.00    +0.000 C 
BRANCH  15  17
ATOM     17  C   UNL     1       5.177   3.790  17.440  0.00  0.00    +0.000 A 
ATOM     18  C   UNL     1       6.183   4.573  18.026  0.00  0.00    +0.000 A 
ATOM     19  C   UNL     1       7.055   5.324  17.231  0.00  0.00    +0.000 A 
ATOM     20  C   UNL     1       6.933   5.301  15.844  0.00  0.00    +0.000 A 
ATOM     21  C   UNL     1       5.943   4.526  15.246  0.00  0.00    +0.000 A 
ATOM     22  C   UNL     1       5.070   3.778  16.038  0.00  0.00    +0.000 A 
ENDBRANCH  15  17
ENDBRANCH  13  15
ENDBRANCH  12  13
ENDBRANCH   9  12
ENDBRANCH   6   8
BRANCH   1  23
ATOM     23  S   UNL     1       0.104  10.074  21.283  0.00  0.00    +0.000 S 
ATOM     24  O   UNL     1       0.960  10.378  22.415  0.00  0.00    +0.000 OA
ATOM     25  O   UNL     1      -1.117   9.320  21.473  0.00  0.00    +0.000 OA
BRANCH  23  26
ATOM     26  N   UNL     1      -0.218  11.547  20.464  0.00  0.00    +0.000 N 
BRANCH  26  27
ATOM     27  C   UNL     1       0.526  12.701  20.875  0.00  0.00    +0.000 A 
ATOM     28  C   UNL     1       1.824  12.855  20.382  0.00  0.00    +0.000 A 
ATOM     29  C   UNL     1       2.588  13.973  20.728  0.00  0.00    +0.000 A 
ATOM     30  C   UNL     1       2.067  14.939  21.583  0.00  0.00    +0.000 A 
ATOM     31  C   UNL     1       0.781  14.779  22.090  0.00  0.00    +0.000 A 
ATOM     32  C   UNL     1       0.012  13.663  21.744  0.00  0.00    +0.000 A 
ENDBRANCH  26  27
BRANCH  26  34
ATOM     33  C   UNL     1      -1.665  11.875  18.425  0.00  0.00    +0.000 C 
ATOM     34  C   UNL     1      -1.597  11.699  19.935  0.00  0.00    +0.000 C 
ENDBRANCH  26  34
ENDBRANCH  23  26
ENDBRANCH   1  23
TORSDOF 9
ENDMDL
