MODEL 1
REMARK VINA RESULT:      -8.7      0.000      0.000
REMARK  Name = 
REMARK  5 active torsions:
REMARK  status: ('A' for Active; 'I' for Inactive)
REMARK    1  A    between atoms: C_1  and  C_2
REMARK    2  A    between atoms: C_3  and  C_4
REMARK    3  A    between atoms: C_4  and  C_5
REMARK    4  A    between atoms: C_8  and  C_9
REMARK    5  A    between atoms: C_18  and  C_19
REMARK                            x       y       z     vdW  Elec       q    Type
REMARK                         _______ _______ _______ _____ _____    ______ ____
ROOT
ATOM      1  C   UNL     1       5.167   6.677  15.466  0.00  0.00    +0.000 C 
ATOM      2  C   UNL     1       6.188   5.732  16.012  0.00  0.00    +0.000 A 
ATOM      3  C   UNL     1       6.440   5.426  17.399  0.00  0.00    +0.000 A 
ATOM      4  C   UNL     1       7.546   4.596  17.417  0.00  0.00    +0.000 A 
ATOM      5  N   UNL     1       7.923   4.346  16.130  0.00  0.00    +0.000 N 
ATOM      6  C   UNL     1       7.085   4.982  15.245  0.00  0.00    +0.000 A 
ATOM      7  H   UNL     1       8.729   3.804  15.850  0.00  0.00    +0.000 HD
ENDROOT
BRANCH   6   8
ATOM      8  C   UNL     1       7.232   4.890  13.803  0.00  0.00    +0.000 C 
ATOM      9  O   UNL     1       7.834   5.711  13.118  0.00  0.00    +0.000 OA
ATOM     10  N   UNL     1       6.650   3.754  13.252  0.00  0.00    +0.000 N 
ATOM     11  C   UNL     1       6.662   3.427  11.824  0.00  0.00    +0.000 C 
ATOM     12  C   UNL     1       5.138   3.267  11.876  0.00  0.00    +0.000 C 
ATOM     13  F   UNL     1       4.658   2.076  11.446  0.00  0.00    +0.000 F 
ATOM     14  F   UNL     1       4.426   4.220  11.230  0.00  0.00    +0.000 F 
ATOM     15  C   UNL     1       5.224   3.426  13.401  0.00  0.00    +0.000 C 
ENDBRANCH   6   8
BRANCH   3  16
ATOM     16  C   UNL     1       5.747   5.967  18.609  0.00  0.00    +0.000 C 
BRANCH  16  17
ATOM     17  C   UNL     1       4.515   5.140  18.857  0.00  0.00    +0.000 A 
ATOM     18  C   UNL     1       4.577   3.862  19.427  0.00  0.00    +0.000 A 
ATOM     19  C   UNL     1       3.402   3.201  19.787  0.00  0.00    +0.000 A 
ATOM     20  C   UNL     1       2.172   3.827  19.570  0.00  0.00    +0.000 A 
ATOM     21  N   UNL     1       2.092   5.042  18.959  0.00  0.00    +0.000 NA
ATOM     22  C   UNL     1       3.248   5.657  18.621  0.00  0.00    +0.000 A 
ATOM     23  F   UNL     1       3.135   6.876  18.074  0.00  0.00    +0.000 F 
BRANCH  20  24
ATOM     24  C   UNL     1       0.884   3.174  20.070  0.00  0.00    +0.000 C 
ATOM     25  F   UNL     1      -0.064   4.086  20.448  0.00  0.00    +0.000 F 
ATOM     26  F   UNL     1       0.279   2.402  19.124  0.00  0.00    +0.000 F 
ATOM     27  F   UNL     1       1.070   2.375  21.155  0.00  0.00    +0.000 F 
ENDBRANCH  20  24
ENDBRANCH  16  17
ENDBRANCH   3  16
TORSDOF 4
ENDMDL
MODEL 2
REMARK VINA RESULT:      -8.4      1.126      1.596
REMARK  Name = 
REMARK  5 active torsions:
REMARK  status: ('A' for Active; 'I' for Inactive)
REMARK    1  A    between atoms: C_1  and  C_2
REMARK    2  A    between atoms: C_3  and  C_4
REMARK    3  A    between atoms: C_4  and  C_5
REMARK    4  A    between atoms: C_8  and  C_9
REMARK    5  A    between atoms: C_18  and  C_19
REMARK                            x       y       z     vdW  Elec       q    Type
REMARK                         _______ _______ _______ _____ _____    ______ ____
ROOT
ATOM      1  C   UNL     1       5.112   6.838  15.208  0.00  0.00    +0.000 C 
ATOM      2  C   UNL     1       6.073   5.896  15.859  0.00  0.00    +0.000 A 
ATOM      3  C   UNL     1       6.251   5.670  17.272  0.00  0.00    +0.000 A 
ATOM      4  C   UNL     1       7.325   4.808  17.393  0.00  0.00    +0.000 A 
ATOM      5  N   UNL     1       7.750   4.464  16.143  0.00  0.00    +0.000 N 
ATOM      6  C   UNL     1       6.976   5.070  15.183  0.00  0.00    +0.000 A 
ATOM      7  H   UNL     1       8.548   3.880  15.936  0.00  0.00    +0.000 HD
ENDROOT
BRANCH   6   8
ATOM      8  C   UNL     1       7.185   4.882  13.757  0.00  0.00    +0.000 C 
ATOM      9  O   UNL     1       7.855   5.632  13.055  0.00  0.00    +0.000 OA
ATOM     10  N   UNL     1       6.576   3.741  13.248  0.00  0.00    +0.000 N 
ATOM     11  C   UNL     1       6.638   3.326  11.844  0.00  0.00    +0.000 C 
ATOM     12  C   UNL     1       5.108   3.236  11.832  0.00  0.00    +0.000 C 
ATOM     13  F   UNL     1       4.593   2.043  11.451  0.00  0.00    +0.000 F 
ATOM     14  F   UNL     1       4.471   4.178  11.096  0.00  0.00    +0.000 F 
ATOM     15  C   UNL     1       5.131   3.485  13.347  0.00  0.00    +0.000 C 
ENDBRANCH   6   8
BRANCH   3  16
ATOM     16  C   UNL     1       5.524   6.309  18.413  0.00  0.00    +0.000 C 
BRANCH  16  17
ATOM     17  C   UNL     1       4.321   5.466  18.737  0.00  0.00    +0.000 A 
ATOM     18  C   UNL     1       3.056   5.735  18.200  0.00  0.00    +0.000 A 
ATOM     19  C   UNL     1       2.008   4.835  18.398  0.00  0.00    +0.000 A 
ATOM     20  C   UNL     1       2.237   3.672  19.137  0.00  0.00    +0.000 A 
ATOM     21  N   UNL     1       3.445   3.427  19.718  0.00  0.00    +0.000 NA
ATOM     22  C   UNL     1       4.440   4.318  19.509  0.00  0.00    +0.000 A 
ATOM     23  F   UNL     1       5.631   4.017  20.049  0.00  0.00    +0.000 F 
BRANCH  20  24
ATOM     24  C   UNL     1       1.140   2.616  19.259  0.00  0.00    +0.000 C 
ATOM     25  F   UNL     1       1.625   1.337  19.232  0.00  0.00    +0.000 F 
ATOM     26  F   UNL     1       0.442   2.709  20.426  0.00  0.00    +0.000 F 
ATOM     27  F   UNL     1       0.220   2.675  18.258  0.00  0.00    +0.000 F 
ENDBRANCH  20  24
ENDBRANCH  16  17
ENDBRANCH   3  16
TORSDOF 4
ENDMDL
MODEL 3
REMARK VINA RESULT:      -7.6      1.415      1.907
REMARK  Name = 
REMARK  5 active torsions:
REMARK  status: ('A' for Active; 'I' for Inactive)
REMARK    1  A    between atoms: C_1  and  C_2
REMARK    2  A    between atoms: C_3  and  C_4
REMARK    3  A    between atoms: C_4  and  C_5
REMARK    4  A    between atoms: C_8  and  C_9
REMARK    5  A    between atoms: C_18  and  C_19
REMARK                            x       y       z     vdW  Elec       q    Type
REMARK                         _______ _______ _______ _____ _____    ______ ____
ROOT
ATOM      1  C   UNL     1       7.761   4.388  16.987  0.00  0.00    +0.000 C 
ATOM      2  C   UNL     1       6.674   5.315  16.547  0.00  0.00    +0.000 A 
ATOM      3  C   UNL     1       5.782   6.076  17.387  0.00  0.00    +0.000 A 
ATOM      4  C   UNL     1       4.880   6.689  16.538  0.00  0.00    +0.000 A 
ATOM      5  N   UNL     1       5.220   6.388  15.251  0.00  0.00    +0.000 N 
ATOM      6  C   UNL     1       6.340   5.593  15.217  0.00  0.00    +0.000 A 
ATOM      7  H   UNL     1       4.704   6.668  14.429  0.00  0.00    +0.000 HD
ENDROOT
BRANCH   6   8
ATOM      8  C   UNL     1       6.944   5.120  13.984  0.00  0.00    +0.000 C 
ATOM      9  O   UNL     1       7.846   5.703  13.391  0.00  0.00    +0.000 OA
ATOM     10  N   UNL     1       6.426   3.910  13.535  0.00  0.00    +0.000 N 
ATOM     11  C   UNL     1       6.867   3.221  12.319  0.00  0.00    +0.000 C 
ATOM     12  C   UNL     1       5.405   3.157  11.860  0.00  0.00    +0.000 C 
ATOM     13  F   UNL     1       4.935   1.920  11.570  0.00  0.00    +0.000 F 
ATOM     14  F   UNL     1       5.087   3.942  10.804  0.00  0.00    +0.000 F 
ATOM     15  C   UNL     1       5.001   3.704  13.236  0.00  0.00    +0.000 C 
ENDBRANCH   6   8
BRANCH   3  16
ATOM     16  C   UNL     1       5.733   6.126  18.881  0.00  0.00    +0.000 C 
BRANCH  16  17
ATOM     17  C   UNL     1       4.566   5.297  19.343  0.00  0.00    +0.000 A 
ATOM     18  C   UNL     1       3.327   5.866  19.660  0.00  0.00    +0.000 A 
ATOM     19  C   UNL     1       2.230   5.045  19.927  0.00  0.00    +0.000 A 
ATOM     20  C   UNL     1       2.386   3.658  19.876  0.00  0.00    +0.000 A 
ATOM     21  N   UNL     1       3.600   3.089  19.631  0.00  0.00    +0.000 NA
ATOM     22  C   UNL     1       4.644   3.911  19.377  0.00  0.00    +0.000 A 
ATOM     23  F   UNL     1       5.810   3.317  19.084  0.00  0.00    +0.000 F 
BRANCH  20  24
ATOM     24  C   UNL     1       1.172   2.746  20.041  0.00  0.00    +0.000 C 
ATOM     25  F   UNL     1       0.741   2.662  21.338  0.00  0.00    +0.000 F 
ATOM     26  F   UNL     1       0.089   3.171  19.332  0.00  0.00    +0.000 F 
ATOM     27  F   UNL     1       1.403   1.462  19.653  0.00  0.00    +0.000 F 
ENDBRANCH  20  24
ENDBRANCH  16  17
ENDBRANCH   3  16
TORSDOF 4
ENDMDL
MODEL 4
REMARK VINA RESULT:      -7.5      5.551      7.798
REMARK  Name = 
REMARK  5 active torsions:
REMARK  status: ('A' for Active; 'I' for Inactive)
REMARK    1  A    between atoms: C_1  and  C_2
REMARK    2  A    between atoms: C_3  and  C_4
REMARK    3  A    between atoms: C_4  and  C_5
REMARK    4  A    between atoms: C_8  and  C_9
REMARK    5  A    between atoms: C_18  and  C_19
REMARK                            x       y       z     vdW  Elec       q    Type
REMARK                         _______ _______ _______ _____ _____    ______ ____
ROOT
ATOM      1  C   UNL     1       3.286   7.690  17.401  0.00  0.00    +0.000 C 
ATOM      2  C   UNL     1       2.512   7.774  18.677  0.00  0.00    +0.000 A 
ATOM      3  C   UNL     1       1.682   8.865  19.124  0.00  0.00    +0.000 A 
ATOM      4  C   UNL     1       1.272   8.539  20.404  0.00  0.00    +0.000 A 
ATOM      5  N   UNL     1       1.755   7.302  20.714  0.00  0.00    +0.000 N 
ATOM      6  C   UNL     1       2.474   6.783  19.663  0.00  0.00    +0.000 A 
ATOM      7  H   UNL     1       1.644   6.836  21.603  0.00  0.00    +0.000 HD
ENDROOT
BRANCH   6   8
ATOM      8  C   UNL     1       3.101   5.473  19.698  0.00  0.00    +0.000 C 
ATOM      9  O   UNL     1       4.311   5.291  19.777  0.00  0.00    +0.000 OA
ATOM     10  N   UNL     1       2.196   4.419  19.665  0.00  0.00    +0.000 N 
ATOM     11  C   UNL     1       2.573   3.003  19.692  0.00  0.00    +0.000 C 
ATOM     12  C   UNL     1       1.727   2.782  18.433  0.00  0.00    +0.000 C 
ATOM     13  F   UNL     1       0.773   1.825  18.527  0.00  0.00    +0.000 F 
ATOM     14  F   UNL     1       2.419   2.519  17.299  0.00  0.00    +0.000 F 
ATOM     15  C   UNL     1       1.222   4.225  18.580  0.00  0.00    +0.000 C 
ENDBRANCH   6   8
BRANCH   3  16
ATOM     16  C   UNL     1       1.394  10.157  18.428  0.00  0.00    +0.000 C 
BRANCH  16  17
ATOM     17  C   UNL     1      -0.083  10.427  18.525  0.00  0.00    +0.000 A 
ATOM     18  C   UNL     1      -0.608  11.386  19.400  0.00  0.00    +0.000 A 
ATOM     19  C   UNL     1      -1.963  11.717  19.341  0.00  0.00    +0.000 A 
ATOM     20  C   UNL     1      -2.781  11.081  18.405  0.00  0.00    +0.000 A 
ATOM     21  N   UNL     1      -2.298  10.102  17.589  0.00  0.00    +0.000 NA
ATOM     22  C   UNL     1      -0.982   9.803  17.672  0.00  0.00    +0.000 A 
ATOM     23  F   UNL     1      -0.529   8.875  16.815  0.00  0.00    +0.000 F 
BRANCH  20  24
ATOM     24  C   UNL     1      -4.235  11.518  18.240  0.00  0.00    +0.000 C 
ATOM     25  F   UNL     1      -4.481  12.109  17.030  0.00  0.00    +0.000 F 
ATOM     26  F   UNL     1      -5.113  10.477  18.313  0.00  0.00    +0.000 F 
ATOM     27  F   UNL     1      -4.637  12.423  19.173  0.00  0.00    +0.000 F 
ENDBRANCH  20  24
ENDBRANCH  16  17
ENDBRANCH   3  16
TORSDOF 4
ENDMDL
MODEL 5
REMARK VINA RESULT:      -7.4      1.087      1.497
REMARK  Name = 
REMARK  5 active torsions:
REMARK  status: ('A' for Active; 'I' for Inactive)
REMARK    1  A    between atoms: C_1  and  C_2
REMARK    2  A    between atoms: C_3  and  C_4
REMARK    3  A    between atoms: C_4  and  C_5
REMARK    4  A    between atoms: C_8  and  C_9
REMARK    5  A    between atoms: C_18  and  C_19
REMARK                            x       y       z     vdW  Elec       q    Type
REMARK                         _______ _______ _______ _____ _____    ______ ____
ROOT
ATOM      1  C   UNL     1       7.688   4.269  16.843  0.00  0.00    +0.000 C 
ATOM      2  C   UNL     1       6.678   5.282  16.413  0.00  0.00    +0.000 A 
ATOM      3  C   UNL     1       5.828   6.082  17.260  0.00  0.00    +0.000 A 
ATOM      4  C   UNL     1       4.986   6.780  16.415  0.00  0.00    +0.000 A 
ATOM      5  N   UNL     1       5.325   6.490  15.126  0.00  0.00    +0.000 N 
ATOM      6  C   UNL     1       6.387   5.619  15.087  0.00  0.00    +0.000 A 
ATOM      7  H   UNL     1       4.845   6.828  14.304  0.00  0.00    +0.000 HD
ENDROOT
BRANCH   6   8
ATOM      8  C   UNL     1       6.978   5.138  13.850  0.00  0.00    +0.000 C 
ATOM      9  O   UNL     1       7.869   5.719  13.240  0.00  0.00    +0.000 OA
ATOM     10  N   UNL     1       6.460   3.922  13.419  0.00  0.00    +0.000 N 
ATOM     11  C   UNL     1       6.888   3.223  12.204  0.00  0.00    +0.000 C 
ATOM     12  C   UNL     1       5.421   3.148  11.764  0.00  0.00    +0.000 C 
ATOM     13  F   UNL     1       4.954   1.906  11.491  0.00  0.00    +0.000 F 
ATOM     14  F   UNL     1       5.085   3.922  10.705  0.00  0.00    +0.000 F 
ATOM     15  C   UNL     1       5.032   3.705  13.140  0.00  0.00    +0.000 C 
ENDBRANCH   6   8
BRANCH   3  16
ATOM     16  C   UNL     1       5.756   6.095  18.754  0.00  0.00    +0.000 C 
BRANCH  16  17
ATOM     17  C   UNL     1       4.692   5.123  19.185  0.00  0.00    +0.000 A 
ATOM     18  C   UNL     1       4.944   3.752  19.318  0.00  0.00    +0.000 A 
ATOM     19  C   UNL     1       3.976   2.915  19.874  0.00  0.00    +0.000 A 
ATOM     20  C   UNL     1       2.760   3.460  20.292  0.00  0.00    +0.000 A 
ATOM     21  N   UNL     1       2.475   4.780  20.112  0.00  0.00    +0.000 NA
ATOM     22  C   UNL     1       3.433   5.566  19.569  0.00  0.00    +0.000 A 
ATOM     23  F   UNL     1       3.140   6.870  19.459  0.00  0.00    +0.000 F 
BRANCH  20  24
ATOM     24  C   UNL     1       1.739   2.584  21.016  0.00  0.00    +0.000 C 
ATOM     25  F   UNL     1       0.683   3.298  21.515  0.00  0.00    +0.000 F 
ATOM     26  F   UNL     1       1.182   1.640  20.206  0.00  0.00    +0.000 F 
ATOM     27  F   UNL     1       2.259   1.916  22.081  0.00  0.00    +0.000 F 
ENDBRANCH  20  24
ENDBRANCH  16  17
ENDBRANCH   3  16
TORSDOF 4
ENDMDL
MODEL 6
REMARK VINA RESULT:      -7.4      5.538      8.269
REMARK  Name = 
REMARK  5 active torsions:
REMARK  status: ('A' for Active; 'I' for Inactive)
REMARK    1  A    between atoms: C_1  and  C_2
REMARK    2  A    between atoms: C_3  and  C_4
REMARK    3  A    between atoms: C_4  and  C_5
REMARK    4  A    between atoms: C_8  and  C_9
REMARK    5  A    between atoms: C_18  and  C_19
REMARK                            x       y       z     vdW  Elec       q    Type
REMARK                         _______ _______ _______ _____ _____    ______ ____
ROOT
ATOM      1  C   UNL     1       0.350   8.968  21.196  0.00  0.00    +0.000 C 
ATOM      2  C   UNL     1       0.719   9.272  19.780  0.00  0.00    +0.000 A 
ATOM      3  C   UNL     1       1.825   8.730  19.030  0.00  0.00    +0.000 A 
ATOM      4  C   UNL     1       1.830   9.391  17.816  0.00  0.00    +0.000 A 
ATOM      5  N   UNL     1       0.763  10.241  17.779  0.00  0.00    +0.000 N 
ATOM      6  C   UNL     1       0.034  10.157  18.941  0.00  0.00    +0.000 A 
ATOM      7  H   UNL     1       0.550  10.880  17.026  0.00  0.00    +0.000 HD
ENDROOT
BRANCH   6   8
ATOM      8  C   UNL     1      -1.166  10.938  19.186  0.00  0.00    +0.000 C 
ATOM      9  O   UNL     1      -1.438  11.465  20.259  0.00  0.00    +0.000 OA
ATOM     10  N   UNL     1      -1.985  11.070  18.070  0.00  0.00    +0.000 N 
ATOM     11  C   UNL     1      -3.249  11.811  18.054  0.00  0.00    +0.000 C 
ATOM     12  C   UNL     1      -3.938  10.567  17.480  0.00  0.00    +0.000 C 
ATOM     13  F   UNL     1      -4.605  10.750  16.316  0.00  0.00    +0.000 F 
ATOM     14  F   UNL     1      -4.796   9.934  18.314  0.00  0.00    +0.000 F 
ATOM     15  C   UNL     1      -2.551   9.923  17.345  0.00  0.00    +0.000 C 
ENDBRANCH   6   8
BRANCH   3  16
ATOM     16  C   UNL     1       2.854   7.741  19.479  0.00  0.00    +0.000 C 
BRANCH  16  17
ATOM     17  C   UNL     1       2.341   6.358  19.180  0.00  0.00    +0.000 A 
ATOM     18  C   UNL     1       2.417   5.796  17.900  0.00  0.00    +0.000 A 
ATOM     19  C   UNL     1       2.080   4.456  17.706  0.00  0.00    +0.000 A 
ATOM     20  C   UNL     1       1.666   3.690  18.798  0.00  0.00    +0.000 A 
ATOM     21  N   UNL     1       1.527   4.238  20.037  0.00  0.00    +0.000 NA
ATOM     22  C   UNL     1       1.861   5.540  20.194  0.00  0.00    +0.000 A 
ATOM     23  F   UNL     1       1.766   6.032  21.438  0.00  0.00    +0.000 F 
BRANCH  20  24
ATOM     24  C   UNL     1       1.413   2.193  18.629  0.00  0.00    +0.000 C 
ATOM     25  F   UNL     1       1.777   1.463  19.729  0.00  0.00    +0.000 F 
ATOM     26  F   UNL     1       0.099   1.897  18.423  0.00  0.00    +0.000 F 
ATOM     27  F   UNL     1       2.097   1.643  17.588  0.00  0.00    +0.000 F 
ENDBRANCH  20  24
ENDBRANCH  16  17
ENDBRANCH   3  16
TORSDOF 4
ENDMDL
MODEL 7
REMARK VINA RESULT:      -7.4      5.462      7.734
REMARK  Name = 
REMARK  5 active torsions:
REMARK  status: ('A' for Active; 'I' for Inactive)
REMARK    1  A    between atoms: C_1  and  C_2
REMARK    2  A    between atoms: C_3  and  C_4
REMARK    3  A    between atoms: C_4  and  C_5
REMARK    4  A    between atoms: C_8  and  C_9
REMARK    5  A    between atoms: C_18  and  C_19
REMARK                            x       y       z     vdW  Elec       q    Type
REMARK                         _______ _______ _______ _____ _____    ______ ____
ROOT
ATOM      1  C   UNL     1       3.624   7.322  17.184  0.00  0.00    +0.000 C 
ATOM      2  C   UNL     1       2.832   7.414  18.448  0.00  0.00    +0.000 A 
ATOM      3  C   UNL     1       1.949   8.482  18.850  0.00  0.00    +0.000 A 
ATOM      4  C   UNL     1       1.539   8.181  20.136  0.00  0.00    +0.000 A 
ATOM      5  N   UNL     1       2.073   6.978  20.492  0.00  0.00    +0.000 N 
ATOM      6  C   UNL     1       2.826   6.456  19.468  0.00  0.00    +0.000 A 
ATOM      7  H   UNL     1       1.972   6.538  21.396  0.00  0.00    +0.000 HD
ENDROOT
BRANCH   6   8
ATOM      8  C   UNL     1       3.510   5.178  19.553  0.00  0.00    +0.000 C 
ATOM      9  O   UNL     1       4.729   5.045  19.519  0.00  0.00    +0.000 OA
ATOM     10  N   UNL     1       2.653   4.094  19.711  0.00  0.00    +0.000 N 
ATOM     11  C   UNL     1       3.092   2.701  19.825  0.00  0.00    +0.000 C 
ATOM     12  C   UNL     1       2.132   2.335  18.687  0.00  0.00    +0.000 C 
ATOM     13  F   UNL     1       1.236   1.359  18.968  0.00  0.00    +0.000 F 
ATOM     14  F   UNL     1       2.715   1.990  17.515  0.00  0.00    +0.000 F 
ATOM     15  C   UNL     1       1.583   3.767  18.757  0.00  0.00    +0.000 C 
ENDBRANCH   6   8
BRANCH   3  16
ATOM     16  C   UNL     1       1.613   9.736  18.107  0.00  0.00    +0.000 C 
BRANCH  16  17
ATOM     17  C   UNL     1       0.459  10.402  18.804  0.00  0.00    +0.000 A 
ATOM     18  C   UNL     1       0.640  11.232  19.918  0.00  0.00    +0.000 A 
ATOM     19  C   UNL     1      -0.437  11.956  20.431  0.00  0.00    +0.000 A 
ATOM     20  C   UNL     1      -1.690  11.841  19.824  0.00  0.00    +0.000 A 
ATOM     21  N   UNL     1      -1.896  10.991  18.779  0.00  0.00    +0.000 NA
ATOM     22  C   UNL     1      -0.833  10.302  18.305  0.00  0.00    +0.000 A 
ATOM     23  F   UNL     1      -1.060   9.518  17.240  0.00  0.00    +0.000 F 
BRANCH  20  24
ATOM     24  C   UNL     1      -2.849  12.718  20.292  0.00  0.00    +0.000 C 
ATOM     25  F   UNL     1      -3.282  12.403  21.551  0.00  0.00    +0.000 F 
ATOM     26  F   UNL     1      -2.524  14.041  20.346  0.00  0.00    +0.000 F 
ATOM     27  F   UNL     1      -3.950  12.627  19.498  0.00  0.00    +0.000 F 
ENDBRANCH  20  24
ENDBRANCH  16  17
ENDBRANCH   3  16
TORSDOF 4
ENDMDL
MODEL 8
REMARK VINA RESULT:      -7.3      5.261      8.484
REMARK  Name = 
REMARK  5 active torsions:
REMARK  status: ('A' for Active; 'I' for Inactive)
REMARK    1  A    between atoms: C_1  and  C_2
REMARK    2  A    between atoms: C_3  and  C_4
REMARK    3  A    between atoms: C_4  and  C_5
REMARK    4  A    between atoms: C_8  and  C_9
REMARK    5  A    between atoms: C_18  and  C_19
REMARK                            x       y       z     vdW  Elec       q    Type
REMARK                         _______ _______ _______ _____ _____    ______ ____
ROOT
ATOM      1  C   UNL     1       0.833   8.345  21.089  0.00  0.00    +0.000 C 
ATOM      2  C   UNL     1       1.232   8.629  19.677  0.00  0.00    +0.000 A 
ATOM      3  C   UNL     1       2.219   7.929  18.892  0.00  0.00    +0.000 A 
ATOM      4  C   UNL     1       2.322   8.619  17.698  0.00  0.00    +0.000 A 
ATOM      5  N   UNL     1       1.418   9.641  17.706  0.00  0.00    +0.000 N 
ATOM      6  C   UNL     1       0.700   9.645  18.877  0.00  0.00    +0.000 A 
ATOM      7  H   UNL     1       1.310  10.332  16.977  0.00  0.00    +0.000 HD
ENDROOT
BRANCH   6   8
ATOM      8  C   UNL     1      -0.344  10.613  19.167  0.00  0.00    +0.000 C 
ATOM      9  O   UNL     1      -0.541  11.104  20.273  0.00  0.00    +0.000 OA
ATOM     10  N   UNL     1      -1.100  10.969  18.056  0.00  0.00    +0.000 N 
ATOM     11  C   UNL     1      -2.209  11.927  18.081  0.00  0.00    +0.000 C 
ATOM     12  C   UNL     1      -3.099  10.873  17.413  0.00  0.00    +0.000 C 
ATOM     13  F   UNL     1      -3.695  11.256  16.258  0.00  0.00    +0.000 F 
ATOM     14  F   UNL     1      -4.075  10.350  18.190  0.00  0.00    +0.000 F 
ATOM     15  C   UNL     1      -1.848   9.998  17.244  0.00  0.00    +0.000 C 
ENDBRANCH   6   8
BRANCH   3  16
ATOM     16  C   UNL     1       3.066   6.763  19.292  0.00  0.00    +0.000 C 
BRANCH  16  17
ATOM     17  C   UNL     1       3.727   6.214  18.057  0.00  0.00    +0.000 A 
ATOM     18  C   UNL     1       4.707   6.928  17.357  0.00  0.00    +0.000 A 
ATOM     19  C   UNL     1       5.407   6.315  16.316  0.00  0.00    +0.000 A 
ATOM     20  C   UNL     1       5.116   4.990  15.984  0.00  0.00    +0.000 A 
ATOM     21  N   UNL     1       4.123   4.303  16.615  0.00  0.00    +0.000 NA
ATOM     22  C   UNL     1       3.462   4.924  17.618  0.00  0.00    +0.000 A 
ATOM     23  F   UNL     1       2.530   4.199  18.254  0.00  0.00    +0.000 F 
BRANCH  20  24
ATOM     24  C   UNL     1       5.955   4.264  14.935  0.00  0.00    +0.000 C 
ATOM     25  F   UNL     1       7.184   4.836  14.745  0.00  0.00    +0.000 F 
ATOM     26  F   UNL     1       6.212   2.967  15.266  0.00  0.00    +0.000 F 
ATOM     27  F   UNL     1       5.376   4.237  13.704  0.00  0.00    +0.000 F 
ENDBRANCH  20  24
ENDBRANCH  16  17
ENDBRANCH   3  16
TORSDOF 4
ENDMDL
MODEL 9
REMARK VINA RESULT:      -7.3      5.572      9.078
REMARK  Name = 
REMARK  5 active torsions:
REMARK  status: ('A' for Active; 'I' for Inactive)
REMARK    1  A    between atoms: C_1  and  C_2
REMARK    2  A    between atoms: C_3  and  C_4
REMARK    3  A    between atoms: C_4  and  C_5
REMARK    4  A    between atoms: C_8  and  C_9
REMARK    5  A    between atoms: C_18  and  C_19
REMARK                            x       y       z     vdW  Elec       q    Type
REMARK                         _______ _______ _______ _____ _____    ______ ____
ROOT
ATOM      1  C   UNL     1       1.089   8.132  20.953  0.00  0.00    +0.000 C 
ATOM      2  C   UNL     1       1.399   8.742  19.624  0.00  0.00    +0.000 A 
ATOM      3  C   UNL     1       1.777   8.053  18.415  0.00  0.00    +0.000 A 
ATOM      4  C   UNL     1       2.075   9.034  17.488  0.00  0.00    +0.000 A 
ATOM      5  N   UNL     1       1.838  10.253  18.053  0.00  0.00    +0.000 N 
ATOM      6  C   UNL     1       1.375  10.111  19.340  0.00  0.00    +0.000 A 
ATOM      7  H   UNL     1       2.013  11.146  17.615  0.00  0.00    +0.000 HD
ENDROOT
BRANCH   6   8
ATOM      8  C   UNL     1       1.026  11.236  20.189  0.00  0.00    +0.000 C 
ATOM      9  O   UNL     1       1.669  11.580  21.176  0.00  0.00    +0.000 OA
ATOM     10  N   UNL     1      -0.104  11.927  19.767  0.00  0.00    +0.000 N 
ATOM     11  C   UNL     1      -0.660  13.099  20.447  0.00  0.00    +0.000 C 
ATOM     12  C   UNL     1      -2.023  12.398  20.482  0.00  0.00    +0.000 C 
ATOM     13  F   UNL     1      -3.050  13.083  19.926  0.00  0.00    +0.000 F 
ATOM     14  F   UNL     1      -2.447  12.000  21.704  0.00  0.00    +0.000 F 
ATOM     15  C   UNL     1      -1.420  11.294  19.600  0.00  0.00    +0.000 C 
ENDBRANCH   6   8
BRANCH   3  16
ATOM     16  C   UNL     1       1.942   6.582  18.198  0.00  0.00    +0.000 C 
BRANCH  16  17
ATOM     17  C   UNL     1       3.410   6.257  18.264  0.00  0.00    +0.000 A 
ATOM     18  C   UNL     1       4.311   6.675  17.277  0.00  0.00    +0.000 A 
ATOM     19  C   UNL     1       5.682   6.492  17.461  0.00  0.00    +0.000 A 
ATOM     20  C   UNL     1       6.139   5.887  18.634  0.00  0.00    +0.000 A 
ATOM     21  N   UNL     1       5.272   5.418  19.575  0.00  0.00    +0.000 NA
ATOM     22  C   UNL     1       3.949   5.610  19.368  0.00  0.00    +0.000 A 
ATOM     23  F   UNL     1       3.128   5.187  20.340  0.00  0.00    +0.000 F 
BRANCH  20  24
ATOM     24  C   UNL     1       7.638   5.791  18.910  0.00  0.00    +0.000 C 
ATOM     25  F   UNL     1       7.925   5.576  20.231  0.00  0.00    +0.000 F 
ATOM     26  F   UNL     1       8.235   4.762  18.243  0.00  0.00    +0.000 F 
ATOM     27  F   UNL     1       8.324   6.916  18.569  0.00  0.00    +0.000 F 
ENDBRANCH  20  24
ENDBRANCH  16  17
ENDBRANCH   3  16
TORSDOF 4
ENDMDL
