MODEL 1
REMARK VINA RESULT:      -8.5      0.000      0.000
REMARK  Name = 
REMARK  7 active torsions:
REMARK  status: ('A' for Active; 'I' for Inactive)
REMARK    1  A    between atoms: C_2  and  C_3
REMARK    2  A    between atoms: C_3  and  C_4
REMARK    3  A    between atoms: C_4  and  C_5
REMARK    4  A    between atoms: C_5  and  O_6
REMARK    5  A    between atoms: O_6  and  C_7
REMARK    6  A    between atoms: C_14  and  O_15
REMARK    7  A    between atoms: N_24  and  C_25
REMARK                            x       y       z     vdW  Elec       q    Type
REMARK                         _______ _______ _______ _____ _____    ______ ____
ROOT
ATOM      1  C   UNL     1       7.901   7.669  18.138  0.00  0.00    +0.000 C 
ENDROOT
BRANCH   1   2
ATOM      2  C   UNL     1       8.239   9.138  17.881  0.00  0.00    +0.000 C 
BRANCH   2   3
ATOM      3  C   UNL     1       9.077   9.767  18.995  0.00  0.00    +0.000 C 
BRANCH   3   5
ATOM      4  O   UNL     1      10.368  11.224  17.581  0.00  0.00    +0.000 OA
ATOM      5  C   UNL     1       9.710  11.098  18.613  0.00  0.00    +0.000 C 
ATOM      6  N   UNL     1       9.537  12.152  19.485  0.00  0.00    +0.000 N 
ATOM      7  C   UNL     1       8.728  12.136  20.716  0.00  0.00    +0.000 C 
ATOM      8  C   UNL     1       9.509  12.728  21.907  0.00  0.00    +0.000 C 
ATOM      9  N   UNL     1      10.012  14.055  21.529  0.00  0.00    +0.000 N 
ATOM     10  C   UNL     1      10.888  14.060  20.346  0.00  0.00    +0.000 C 
ATOM     11  C   UNL     1      10.122  13.464  19.154  0.00  0.00    +0.000 C 
BRANCH   9  12
ATOM     12  C   UNL     1      10.009  15.117  22.408  0.00  0.00    +0.000 A 
ATOM     13  C   UNL     1      10.949  16.152  22.325  0.00  0.00    +0.000 A 
ATOM     14  C   UNL     1      10.986  17.183  23.269  0.00  0.00    +0.000 A 
ATOM     15  C   UNL     1      10.077  17.198  24.323  0.00  0.00    +0.000 A 
ATOM     16  C   UNL     1       9.123  16.192  24.423  0.00  0.00    +0.000 A 
ATOM     17  C   UNL     1       9.088  15.168  23.468  0.00  0.00    +0.000 A 
ENDBRANCH   9  12
ENDBRANCH   3   5
ENDBRANCH   2   3
ENDBRANCH   1   2
BRANCH   1  18
ATOM     18  O   UNL     1       7.811   6.985  16.886  0.00  0.00    +0.000 OA
BRANCH  18  19
ATOM     19  C   UNL     1       6.727   6.159  16.733  0.00  0.00    +0.000 A 
ATOM     20  C   UNL     1       6.568   5.196  15.732  0.00  0.00    +0.000 A 
ATOM     21  C   UNL     1       5.448   4.358  15.717  0.00  0.00    +0.000 A 
ATOM     22  C   UNL     1       4.472   4.475  16.708  0.00  0.00    +0.000 A 
ATOM     23  N   UNL     1       3.385   3.582  16.760  0.00  0.00    +0.000 N 
ATOM     24  C   UNL     1       2.527   3.644  17.822  0.00  0.00    +0.000 A 
ATOM     25  N   UNL     1       1.530   2.871  18.135  0.00  0.00    +0.000 NA
ATOM     26  C   UNL     1       1.072   3.450  19.298  0.00  0.00    +0.000 A 
ATOM     27  N   UNL     1       1.645   4.510  19.766  0.00  0.00    +0.000 NA
ATOM     28  C   UNL     1       2.637   4.698  18.859  0.00  0.00    +0.000 A 
ATOM     29  C   UNL     1       3.619   5.593  18.789  0.00  0.00    +0.000 A 
ATOM     30  C   UNL     1       4.616   5.475  17.707  0.00  0.00    +0.000 A 
ATOM     31  C   UNL     1       5.735   6.314  17.702  0.00  0.00    +0.000 A 
ATOM     32  H   UNL     1       3.264   2.876  16.054  0.00  0.00    +0.000 HD
BRANCH  26  33
ATOM     33  O   UNL     1       0.044   2.816  19.864  0.00  0.00    +0.000 OA
ATOM     34  H   UNL     1      -0.653   3.470  20.006  0.00  0.00    +0.000 HD
ENDBRANCH  26  33
ENDBRANCH  18  19
ENDBRANCH   1  18
TORSDOF 7
ENDMDL
MODEL 2
REMARK VINA RESULT:      -8.3      1.559      2.047
REMARK  Name = 
REMARK  7 active torsions:
REMARK  status: ('A' for Active; 'I' for Inactive)
REMARK    1  A    between atoms: C_2  and  C_3
REMARK    2  A    between atoms: C_3  and  C_4
REMARK    3  A    between atoms: C_4  and  C_5
REMARK    4  A    between atoms: C_5  and  O_6
REMARK    5  A    between atoms: O_6  and  C_7
REMARK    6  A    between atoms: C_14  and  O_15
REMARK    7  A    between atoms: N_24  and  C_25
REMARK                            x       y       z     vdW  Elec       q    Type
REMARK                         _______ _______ _______ _____ _____    ______ ____
ROOT
ATOM      1  C   UNL     1       7.699   9.417  17.821  0.00  0.00    +0.000 C 
ENDROOT
BRANCH   1   2
ATOM      2  C   UNL     1       8.949   9.748  18.636  0.00  0.00    +0.000 C 
BRANCH   2   3
ATOM      3  C   UNL     1       9.685  10.991  18.132  0.00  0.00    +0.000 C 
BRANCH   3   5
ATOM      4  O   UNL     1       8.139  12.560  17.164  0.00  0.00    +0.000 OA
ATOM      5  C   UNL     1       8.834  12.253  18.132  0.00  0.00    +0.000 C 
ATOM      6  N   UNL     1       8.894  13.054  19.253  0.00  0.00    +0.000 N 
ATOM      7  C   UNL     1       9.644  12.764  20.487  0.00  0.00    +0.000 C 
ATOM      8  C   UNL     1      10.478  13.981  20.936  0.00  0.00    +0.000 C 
ATOM      9  N   UNL     1       9.596  15.152  21.023  0.00  0.00    +0.000 N 
ATOM     10  C   UNL     1       8.910  15.493  19.766  0.00  0.00    +0.000 C 
ATOM     11  C   UNL     1       8.080  14.282  19.306  0.00  0.00    +0.000 C 
BRANCH   9  12
ATOM     12  C   UNL     1       9.705  16.077  22.039  0.00  0.00    +0.000 A 
ATOM     13  C   UNL     1      10.915  16.306  22.708  0.00  0.00    +0.000 A 
ATOM     14  C   UNL     1      10.996  17.189  23.789  0.00  0.00    +0.000 A 
ATOM     15  C   UNL     1       9.861  17.864  24.227  0.00  0.00    +0.000 A 
ATOM     16  C   UNL     1       8.649  17.668  23.573  0.00  0.00    +0.000 A 
ATOM     17  C   UNL     1       8.579  16.788  22.486  0.00  0.00    +0.000 A 
ENDBRANCH   9  12
ENDBRANCH   3   5
ENDBRANCH   2   3
ENDBRANCH   1   2
BRANCH   1  18
ATOM     18  O   UNL     1       7.927   8.212  17.086  0.00  0.00    +0.000 OA
BRANCH  18  19
ATOM     19  C   UNL     1       7.429   7.065  17.650  0.00  0.00    +0.000 A 
ATOM     20  C   UNL     1       7.916   6.443  18.803  0.00  0.00    +0.000 A 
ATOM     21  C   UNL     1       7.281   5.313  19.329  0.00  0.00    +0.000 A 
ATOM     22  C   UNL     1       6.148   4.792  18.705  0.00  0.00    +0.000 A 
ATOM     23  N   UNL     1       5.444   3.711  19.268  0.00  0.00    +0.000 N 
ATOM     24  C   UNL     1       4.265   3.319  18.701  0.00  0.00    +0.000 A 
ATOM     25  N   UNL     1       3.402   2.430  19.097  0.00  0.00    +0.000 NA
ATOM     26  C   UNL     1       2.443   2.501  18.110  0.00  0.00    +0.000 A 
ATOM     27  N   UNL     1       2.589   3.317  17.120  0.00  0.00    +0.000 NA
ATOM     28  C   UNL     1       3.763   3.919  17.440  0.00  0.00    +0.000 A 
ATOM     29  C   UNL     1       4.450   4.896  16.856  0.00  0.00    +0.000 A 
ATOM     30  C   UNL     1       5.671   5.403  17.513  0.00  0.00    +0.000 A 
ATOM     31  C   UNL     1       6.323   6.525  16.993  0.00  0.00    +0.000 A 
ATOM     32  H   UNL     1       5.776   3.261  20.105  0.00  0.00    +0.000 HD
BRANCH  26  33
ATOM     33  O   UNL     1       1.399   1.693  18.296  0.00  0.00    +0.000 OA
ATOM     34  H   UNL     1       0.940   1.996  19.090  0.00  0.00    +0.000 HD
ENDBRANCH  26  33
ENDBRANCH  18  19
ENDBRANCH   1  18
TORSDOF 7
ENDMDL
MODEL 3
REMARK VINA RESULT:      -8.2      6.908      8.768
REMARK  Name = 
REMARK  7 active torsions:
REMARK  status: ('A' for Active; 'I' for Inactive)
REMARK    1  A    between atoms: C_2  and  C_3
REMARK    2  A    between atoms: C_3  and  C_4
REMARK    3  A    between atoms: C_4  and  C_5
REMARK    4  A    between atoms: C_5  and  O_6
REMARK    5  A    between atoms: O_6  and  C_7
REMARK    6  A    between atoms: C_14  and  O_15
REMARK    7  A    between atoms: N_24  and  C_25
REMARK                            x       y       z     vdW  Elec       q    Type
REMARK                         _______ _______ _______ _____ _____    ______ ____
ROOT
ATOM      1  C   UNL     1       1.350   4.984  20.828  0.00  0.00    +0.000 C 
ENDROOT
BRANCH   1   2
ATOM      2  C   UNL     1       1.406   6.194  19.896  0.00  0.00    +0.000 C 
BRANCH   2   3
ATOM      3  C   UNL     1       1.890   7.468  20.591  0.00  0.00    +0.000 C 
BRANCH   3   5
ATOM      4  O   UNL     1       1.788   9.156  18.879  0.00  0.00    +0.000 OA
ATOM      5  C   UNL     1       1.364   8.751  19.961  0.00  0.00    +0.000 C 
ATOM      6  N   UNL     1       0.411   9.455  20.666  0.00  0.00    +0.000 N 
ATOM      7  C   UNL     1      -0.208   9.042  21.937  0.00  0.00    +0.000 C 
ATOM      8  C   UNL     1      -0.201  10.194  22.963  0.00  0.00    +0.000 C 
ATOM      9  N   UNL     1      -0.812  11.379  22.347  0.00  0.00    +0.000 N 
ATOM     10  C   UNL     1      -0.142  11.841  21.121  0.00  0.00    +0.000 C 
ATOM     11  C   UNL     1      -0.136  10.698  20.093  0.00  0.00    +0.000 C 
BRANCH   9  12
ATOM     12  C   UNL     1      -1.657  12.214  23.046  0.00  0.00    +0.000 A 
ATOM     13  C   UNL     1      -2.939  11.811  23.443  0.00  0.00    +0.000 A 
ATOM     14  C   UNL     1      -3.817  12.692  24.082  0.00  0.00    +0.000 A 
ATOM     15  C   UNL     1      -3.428  14.004  24.336  0.00  0.00    +0.000 A 
ATOM     16  C   UNL     1      -2.157  14.429  23.966  0.00  0.00    +0.000 A 
ATOM     17  C   UNL     1      -1.282  13.537  23.334  0.00  0.00    +0.000 A 
ENDBRANCH   9  12
ENDBRANCH   3   5
ENDBRANCH   2   3
ENDBRANCH   1   2
BRANCH   1  18
ATOM     18  O   UNL     1       2.671   4.467  21.003  0.00  0.00    +0.000 OA
BRANCH  18  19
ATOM     19  C   UNL     1       3.288   4.008  19.867  0.00  0.00    +0.000 A 
ATOM     20  C   UNL     1       2.969   2.832  19.181  0.00  0.00    +0.000 A 
ATOM     21  C   UNL     1       3.620   2.500  17.989  0.00  0.00    +0.000 A 
ATOM     22  C   UNL     1       4.601   3.345  17.467  0.00  0.00    +0.000 A 
ATOM     23  N   UNL     1       5.203   3.074  16.224  0.00  0.00    +0.000 N 
ATOM     24  C   UNL     1       6.057   3.994  15.686  0.00  0.00    +0.000 A 
ATOM     25  N   UNL     1       6.642   4.011  14.525  0.00  0.00    +0.000 NA
ATOM     26  C   UNL     1       7.362   5.184  14.583  0.00  0.00    +0.000 A 
ATOM     27  N   UNL     1       7.323   5.918  15.645  0.00  0.00    +0.000 NA
ATOM     28  C   UNL     1       6.462   5.215  16.424  0.00  0.00    +0.000 A 
ATOM     29  C   UNL     1       5.955   5.455  17.631  0.00  0.00    +0.000 A 
ATOM     30  C   UNL     1       4.950   4.524  18.181  0.00  0.00    +0.000 A 
ATOM     31  C   UNL     1       4.299   4.837  19.378  0.00  0.00    +0.000 A 
ATOM     32  H   UNL     1       4.974   2.238  15.714  0.00  0.00    +0.000 HD
BRANCH  26  33
ATOM     33  O   UNL     1       8.047   5.467  13.475  0.00  0.00    +0.000 OA
ATOM     34  H   UNL     1       7.422   5.843  12.840  0.00  0.00    +0.000 HD
ENDBRANCH  26  33
ENDBRANCH  18  19
ENDBRANCH   1  18
TORSDOF 7
ENDMDL
MODEL 4
REMARK VINA RESULT:      -8.2      1.885      2.699
REMARK  Name = 
REMARK  7 active torsions:
REMARK  status: ('A' for Active; 'I' for Inactive)
REMARK    1  A    between atoms: C_2  and  C_3
REMARK    2  A    between atoms: C_3  and  C_4
REMARK    3  A    between atoms: C_4  and  C_5
REMARK    4  A    between atoms: C_5  and  O_6
REMARK    5  A    between atoms: O_6  and  C_7
REMARK    6  A    between atoms: C_14  and  O_15
REMARK    7  A    between atoms: N_24  and  C_25
REMARK                            x       y       z     vdW  Elec       q    Type
REMARK                         _______ _______ _______ _____ _____    ______ ____
ROOT
ATOM      1  C   UNL     1       7.836   9.571  18.008  0.00  0.00    +0.000 C 
ENDROOT
BRANCH   1   2
ATOM      2  C   UNL     1       9.241  10.083  18.323  0.00  0.00    +0.000 C 
BRANCH   2   3
ATOM      3  C   UNL     1       9.388  10.600  19.756  0.00  0.00    +0.000 C 
BRANCH   3   5
ATOM      4  O   UNL     1       9.896  12.825  18.993  0.00  0.00    +0.000 OA
ATOM      5  C   UNL     1       9.390  12.119  19.864  0.00  0.00    +0.000 C 
ATOM      6  N   UNL     1       8.825  12.671  20.995  0.00  0.00    +0.000 N 
ATOM      7  C   UNL     1       8.145  11.933  22.073  0.00  0.00    +0.000 C 
ATOM      8  C   UNL     1       8.650  12.377  23.461  0.00  0.00    +0.000 C 
ATOM      9  N   UNL     1       8.537  13.838  23.559  0.00  0.00    +0.000 N 
ATOM     10  C   UNL     1       9.285  14.578  22.531  0.00  0.00    +0.000 C 
ATOM     11  C   UNL     1       8.794  14.138  21.142  0.00  0.00    +0.000 C 
BRANCH   9  12
ATOM     12  C   UNL     1       8.122  14.464  24.716  0.00  0.00    +0.000 A 
ATOM     13  C   UNL     1       6.788  14.839  24.920  0.00  0.00    +0.000 A 
ATOM     14  C   UNL     1       6.394  15.544  26.062  0.00  0.00    +0.000 A 
ATOM     15  C   UNL     1       7.333  15.891  27.027  0.00  0.00    +0.000 A 
ATOM     16  C   UNL     1       8.663  15.520  26.859  0.00  0.00    +0.000 A 
ATOM     17  C   UNL     1       9.047  14.808  25.716  0.00  0.00    +0.000 A 
ENDBRANCH   9  12
ENDBRANCH   3   5
ENDBRANCH   2   3
ENDBRANCH   1   2
BRANCH   1  18
ATOM     18  O   UNL     1       7.935   8.430  17.153  0.00  0.00    +0.000 OA
BRANCH  18  19
ATOM     19  C   UNL     1       7.484   7.247  17.680  0.00  0.00    +0.000 A 
ATOM     20  C   UNL     1       8.030   6.581  18.782  0.00  0.00    +0.000 A 
ATOM     21  C   UNL     1       7.441   5.414  19.278  0.00  0.00    +0.000 A 
ATOM     22  C   UNL     1       6.293   4.898  18.674  0.00  0.00    +0.000 A 
ATOM     23  N   UNL     1       5.635   3.776  19.212  0.00  0.00    +0.000 N 
ATOM     24  C   UNL     1       4.442   3.385  18.673  0.00  0.00    +0.000 A 
ATOM     25  N   UNL     1       3.615   2.460  19.060  0.00  0.00    +0.000 NA
ATOM     26  C   UNL     1       2.616   2.556  18.116  0.00  0.00    +0.000 A 
ATOM     27  N   UNL     1       2.704   3.421  17.161  0.00  0.00    +0.000 NA
ATOM     28  C   UNL     1       3.878   4.033  17.464  0.00  0.00    +0.000 A 
ATOM     29  C   UNL     1       4.521   5.052  16.900  0.00  0.00    +0.000 A 
ATOM     30  C   UNL     1       5.756   5.554  17.533  0.00  0.00    +0.000 A 
ATOM     31  C   UNL     1       6.364   6.714  17.042  0.00  0.00    +0.000 A 
ATOM     32  H   UNL     1       6.010   3.295  20.012  0.00  0.00    +0.000 HD
BRANCH  26  33
ATOM     33  O   UNL     1       1.596   1.717  18.304  0.00  0.00    +0.000 OA
ATOM     34  H   UNL     1       1.197   1.553  17.439  0.00  0.00    +0.000 HD
ENDBRANCH  26  33
ENDBRANCH  18  19
ENDBRANCH   1  18
TORSDOF 7
ENDMDL
MODEL 5
REMARK VINA RESULT:      -8.1      8.077     10.424
REMARK  Name = 
REMARK  7 active torsions:
REMARK  status: ('A' for Active; 'I' for Inactive)
REMARK    1  A    between atoms: C_2  and  C_3
REMARK    2  A    between atoms: C_3  and  C_4
REMARK    3  A    between atoms: C_4  and  C_5
REMARK    4  A    between atoms: C_5  and  O_6
REMARK    5  A    between atoms: O_6  and  C_7
REMARK    6  A    between atoms: C_14  and  O_15
REMARK    7  A    between atoms: N_24  and  C_25
REMARK                            x       y       z     vdW  Elec       q    Type
REMARK                         _______ _______ _______ _____ _____    ______ ____
ROOT
ATOM      1  C   UNL     1       1.245   9.669  18.646  0.00  0.00    +0.000 C 
ENDROOT
BRANCH   1   2
ATOM      2  C   UNL     1       1.281  11.068  19.259  0.00  0.00    +0.000 C 
BRANCH   2   3
ATOM      3  C   UNL     1      -0.107  11.612  19.604  0.00  0.00    +0.000 C 
BRANCH   3   5
ATOM      4  O   UNL     1       0.433  11.325  21.931  0.00  0.00    +0.000 OA
ATOM      5  C   UNL     1      -0.346  11.786  21.098  0.00  0.00    +0.000 C 
ATOM      6  N   UNL     1      -1.488  12.459  21.479  0.00  0.00    +0.000 N 
ATOM      7  C   UNL     1      -2.460  13.098  20.577  0.00  0.00    +0.000 C 
ATOM      8  C   UNL     1      -3.906  12.707  20.944  0.00  0.00    +0.000 C 
ATOM      9  N   UNL     1      -4.124  12.988  22.368  0.00  0.00    +0.000 N 
ATOM     10  C   UNL     1      -3.205  12.284  23.276  0.00  0.00    +0.000 C 
ATOM     11  C   UNL     1      -1.759  12.661  22.914  0.00  0.00    +0.000 C 
BRANCH   9  12
ATOM     12  C   UNL     1      -5.307  13.521  22.837  0.00  0.00    +0.000 A 
ATOM     13  C   UNL     1      -5.697  14.834  22.546  0.00  0.00    +0.000 A 
ATOM     14  C   UNL     1      -6.858  15.390  23.091  0.00  0.00    +0.000 A 
ATOM     15  C   UNL     1      -7.657  14.637  23.946  0.00  0.00    +0.000 A 
ATOM     16  C   UNL     1      -7.303  13.326  24.243  0.00  0.00    +0.000 A 
ATOM     17  C   UNL     1      -6.143  12.775  23.685  0.00  0.00    +0.000 A 
ENDBRANCH   9  12
ENDBRANCH   3   5
ENDBRANCH   2   3
ENDBRANCH   1   2
BRANCH   1  18
ATOM     18  O   UNL     1       1.409   8.700  19.683  0.00  0.00    +0.000 OA
BRANCH  18  19
ATOM     19  C   UNL     1       2.169   7.604  19.363  0.00  0.00    +0.000 A 
ATOM     20  C   UNL     1       2.169   6.382  20.041  0.00  0.00    +0.000 A 
ATOM     21  C   UNL     1       2.935   5.306  19.579  0.00  0.00    +0.000 A 
ATOM     22  C   UNL     1       3.711   5.443  18.427  0.00  0.00    +0.000 A 
ATOM     23  N   UNL     1       4.417   4.347  17.897  0.00  0.00    +0.000 N 
ATOM     24  C   UNL     1       5.053   4.486  16.696  0.00  0.00    +0.000 A 
ATOM     25  N   UNL     1       5.671   3.601  15.971  0.00  0.00    +0.000 NA
ATOM     26  C   UNL     1       6.089   4.353  14.895  0.00  0.00    +0.000 A 
ATOM     27  N   UNL     1       5.828   5.617  14.845  0.00  0.00    +0.000 NA
ATOM     28  C   UNL     1       5.123   5.789  15.992  0.00  0.00    +0.000 A 
ATOM     29  C   UNL     1       4.518   6.854  16.512  0.00  0.00    +0.000 A 
ATOM     30  C   UNL     1       3.738   6.695  17.755  0.00  0.00    +0.000 A 
ATOM     31  C   UNL     1       2.977   7.765  18.236  0.00  0.00    +0.000 A 
ATOM     32  H   UNL     1       4.416   3.458  18.368  0.00  0.00    +0.000 HD
BRANCH  26  33
ATOM     33  O   UNL     1       6.738   3.661  13.957  0.00  0.00    +0.000 OA
ATOM     34  H   UNL     1       7.682   3.732  14.151  0.00  0.00    +0.000 HD
ENDBRANCH  26  33
ENDBRANCH  18  19
ENDBRANCH   1  18
TORSDOF 7
ENDMDL
MODEL 6
REMARK VINA RESULT:      -8.0      6.545      8.237
REMARK  Name = 
REMARK  7 active torsions:
REMARK  status: ('A' for Active; 'I' for Inactive)
REMARK    1  A    between atoms: C_2  and  C_3
REMARK    2  A    between atoms: C_3  and  C_4
REMARK    3  A    between atoms: C_4  and  C_5
REMARK    4  A    between atoms: C_5  and  O_6
REMARK    5  A    between atoms: O_6  and  C_7
REMARK    6  A    between atoms: C_14  and  O_15
REMARK    7  A    between atoms: N_24  and  C_25
REMARK                            x       y       z     vdW  Elec       q    Type
REMARK                         _______ _______ _______ _____ _____    ______ ____
ROOT
ATOM      1  C   UNL     1       1.252   7.672  21.193  0.00  0.00    +0.000 C 
ENDROOT
BRANCH   1   2
ATOM      2  C   UNL     1       0.260   8.798  21.486  0.00  0.00    +0.000 C 
BRANCH   2   3
ATOM      3  C   UNL     1       0.890  10.190  21.418  0.00  0.00    +0.000 C 
BRANCH   3   5
ATOM      4  O   UNL     1      -1.164  11.157  22.216  0.00  0.00    +0.000 OA
ATOM      5  C   UNL     1      -0.104  11.326  21.613  0.00  0.00    +0.000 C 
ATOM      6  N   UNL     1       0.218  12.548  21.061  0.00  0.00    +0.000 N 
ATOM      7  C   UNL     1       1.474  12.883  20.369  0.00  0.00    +0.000 C 
ATOM      8  C   UNL     1       1.202  13.601  19.032  0.00  0.00    +0.000 C 
ATOM      9  N   UNL     1       0.323  14.750  19.283  0.00  0.00    +0.000 N 
ATOM     10  C   UNL     1      -0.968  14.406  19.899  0.00  0.00    +0.000 C 
ATOM     11  C   UNL     1      -0.709  13.682  21.231  0.00  0.00    +0.000 C 
BRANCH   9  12
ATOM     12  C   UNL     1       0.500  15.960  18.646  0.00  0.00    +0.000 A 
ATOM     13  C   UNL     1      -0.583  16.773  18.284  0.00  0.00    +0.000 A 
ATOM     14  C   UNL     1      -0.397  17.960  17.568  0.00  0.00    +0.000 A 
ATOM     15  C   UNL     1       0.883  18.359  17.196  0.00  0.00    +0.000 A 
ATOM     16  C   UNL     1       1.977  17.580  17.554  0.00  0.00    +0.000 A 
ATOM     17  C   UNL     1       1.783  16.397  18.278  0.00  0.00    +0.000 A 
ENDBRANCH   9  12
ENDBRANCH   3   5
ENDBRANCH   2   3
ENDBRANCH   1   2
BRANCH   1  18
ATOM     18  O   UNL     1       1.793   7.856  19.883  0.00  0.00    +0.000 OA
BRANCH  18  19
ATOM     19  C   UNL     1       2.568   6.829  19.407  0.00  0.00    +0.000 A 
ATOM     20  C   UNL     1       2.646   5.543  19.950  0.00  0.00    +0.000 A 
ATOM     21  C   UNL     1       3.417   4.552  19.335  0.00  0.00    +0.000 A 
ATOM     22  C   UNL     1       4.121   4.837  18.165  0.00  0.00    +0.000 A 
ATOM     23  N   UNL     1       4.830   3.830  17.484  0.00  0.00    +0.000 N 
ATOM     24  C   UNL     1       5.392   4.118  16.272  0.00  0.00    +0.000 A 
ATOM     25  N   UNL     1       5.995   3.338  15.425  0.00  0.00    +0.000 NA
ATOM     26  C   UNL     1       6.328   4.213  14.415  0.00  0.00    +0.000 A 
ATOM     27  N   UNL     1       6.024   5.465  14.513  0.00  0.00    +0.000 NA
ATOM     28  C   UNL     1       5.380   5.490  15.708  0.00  0.00    +0.000 A 
ATOM     29  C   UNL     1       4.773   6.471  16.371  0.00  0.00    +0.000 A 
ATOM     30  C   UNL     1       4.070   6.153  17.629  0.00  0.00    +0.000 A 
ATOM     31  C   UNL     1       3.304   7.137  18.262  0.00  0.00    +0.000 A 
ATOM     32  H   UNL     1       4.884   2.897  17.856  0.00  0.00    +0.000 HD
BRANCH  26  33
ATOM     33  O   UNL     1       6.943   3.649  13.375  0.00  0.00    +0.000 OA
ATOM     34  H   UNL     1       7.659   3.103  13.728  0.00  0.00    +0.000 HD
ENDBRANCH  26  33
ENDBRANCH  18  19
ENDBRANCH   1  18
TORSDOF 7
ENDMDL
MODEL 7
REMARK VINA RESULT:      -8.0      1.457      1.944
REMARK  Name = 
REMARK  7 active torsions:
REMARK  status: ('A' for Active; 'I' for Inactive)
REMARK    1  A    between atoms: C_2  and  C_3
REMARK    2  A    between atoms: C_3  and  C_4
REMARK    3  A    between atoms: C_4  and  C_5
REMARK    4  A    between atoms: C_5  and  O_6
REMARK    5  A    between atoms: O_6  and  C_7
REMARK    6  A    between atoms: C_14  and  O_15
REMARK    7  A    between atoms: N_24  and  C_25
REMARK                            x       y       z     vdW  Elec       q    Type
REMARK                         _______ _______ _______ _____ _____    ______ ____
ROOT
ATOM      1  C   UNL     1       8.489   8.648  17.694  0.00  0.00    +0.000 C 
ENDROOT
BRANCH   1   2
ATOM      2  C   UNL     1       8.089  10.036  18.195  0.00  0.00    +0.000 C 
BRANCH   2   3
ATOM      3  C   UNL     1       9.106  10.644  19.163  0.00  0.00    +0.000 C 
BRANCH   3   5
ATOM      4  O   UNL     1      10.630  11.501  17.509  0.00  0.00    +0.000 OA
ATOM      5  C   UNL     1       9.988  11.716  18.536  0.00  0.00    +0.000 C 
ATOM      6  N   UNL     1      10.058  12.932  19.184  0.00  0.00    +0.000 N 
ATOM      7  C   UNL     1       9.296  13.322  20.382  0.00  0.00    +0.000 C 
ATOM      8  C   UNL     1      10.213  13.960  21.445  0.00  0.00    +0.000 C 
ATOM      9  N   UNL     1      10.967  15.056  20.822  0.00  0.00    +0.000 N 
ATOM     10  C   UNL     1      11.794  14.651  19.674  0.00  0.00    +0.000 C 
ATOM     11  C   UNL     1      10.890  14.006  18.610  0.00  0.00    +0.000 C 
BRANCH   9  12
ATOM     12  C   UNL     1      11.205  16.246  21.477  0.00  0.00    +0.000 A 
ATOM     13  C   UNL     1      11.782  17.346  20.830  0.00  0.00    +0.000 A 
ATOM     14  C   UNL     1      12.092  18.521  21.523  0.00  0.00    +0.000 A 
ATOM     15  C   UNL     1      11.829  18.618  22.886  0.00  0.00    +0.000 A 
ATOM     16  C   UNL     1      11.243  17.547  23.551  0.00  0.00    +0.000 A 
ATOM     17  C   UNL     1      10.929  16.378  22.848  0.00  0.00    +0.000 A 
ENDBRANCH   9  12
ENDBRANCH   3   5
ENDBRANCH   2   3
ENDBRANCH   1   2
BRANCH   1  18
ATOM     18  O   UNL     1       7.364   8.040  17.057  0.00  0.00    +0.000 OA
BRANCH  18  19
ATOM     19  C   UNL     1       6.942   6.852  17.598  0.00  0.00    +0.000 A 
ATOM     20  C   UNL     1       7.570   6.156  18.635  0.00  0.00    +0.000 A 
ATOM     21  C   UNL     1       7.007   4.986  19.156  0.00  0.00    +0.000 A 
ATOM     22  C   UNL     1       5.804   4.500  18.644  0.00  0.00    +0.000 A 
ATOM     23  N   UNL     1       5.177   3.376  19.214  0.00  0.00    +0.000 N 
ATOM     24  C   UNL     1       3.936   3.013  18.773  0.00  0.00    +0.000 A 
ATOM     25  N   UNL     1       3.131   2.091  19.211  0.00  0.00    +0.000 NA
ATOM     26  C   UNL     1       2.055   2.221  18.360  0.00  0.00    +0.000 A 
ATOM     27  N   UNL     1       2.075   3.105  17.419  0.00  0.00    +0.000 NA
ATOM     28  C   UNL     1       3.280   3.694  17.631  0.00  0.00    +0.000 A 
ATOM     29  C   UNL     1       3.888   4.716  17.034  0.00  0.00    +0.000 A 
ATOM     30  C   UNL     1       5.181   5.187  17.567  0.00  0.00    +0.000 A 
ATOM     31  C   UNL     1       5.762   6.348  17.048  0.00  0.00    +0.000 A 
ATOM     32  H   UNL     1       5.612   2.872  19.969  0.00  0.00    +0.000 HD
BRANCH  26  33
ATOM     33  O   UNL     1       1.043   1.392  18.619  0.00  0.00    +0.000 OA
ATOM     34  H   UNL     1       1.426   0.538  18.859  0.00  0.00    +0.000 HD
ENDBRANCH  26  33
ENDBRANCH  18  19
ENDBRANCH   1  18
TORSDOF 7
ENDMDL
MODEL 8
REMARK VINA RESULT:      -8.0      6.871      8.734
REMARK  Name = 
REMARK  7 active torsions:
REMARK  status: ('A' for Active; 'I' for Inactive)
REMARK    1  A    between atoms: C_2  and  C_3
REMARK    2  A    between atoms: C_3  and  C_4
REMARK    3  A    between atoms: C_4  and  C_5
REMARK    4  A    between atoms: C_5  and  O_6
REMARK    5  A    between atoms: O_6  and  C_7
REMARK    6  A    between atoms: C_14  and  O_15
REMARK    7  A    between atoms: N_24  and  C_25
REMARK                            x       y       z     vdW  Elec       q    Type
REMARK                         _______ _______ _______ _____ _____    ______ ____
ROOT
ATOM      1  C   UNL     1       1.982   4.617  20.323  0.00  0.00    +0.000 C 
ENDROOT
BRANCH   1   2
ATOM      2  C   UNL     1       2.159   6.050  19.823  0.00  0.00    +0.000 C 
BRANCH   2   3
ATOM      3  C   UNL     1       1.599   7.099  20.787  0.00  0.00    +0.000 C 
BRANCH   3   5
ATOM      4  O   UNL     1       1.979   8.816  19.144  0.00  0.00    +0.000 OA
ATOM      5  C   UNL     1       1.358   8.458  20.145  0.00  0.00    +0.000 C 
ATOM      6  N   UNL     1       0.433   9.285  20.747  0.00  0.00    +0.000 N 
ATOM      7  C   UNL     1      -0.406   8.946  21.909  0.00  0.00    +0.000 C 
ATOM      8  C   UNL     1      -0.368  10.062  22.972  0.00  0.00    +0.000 C 
ATOM      9  N   UNL     1      -0.709  11.338  22.329  0.00  0.00    +0.000 N 
ATOM     10  C   UNL     1       0.181  11.718  21.220  0.00  0.00    +0.000 C 
ATOM     11  C   UNL     1       0.157  10.607  20.157  0.00  0.00    +0.000 C 
BRANCH   9  12
ATOM     12  C   UNL     1      -1.508  12.278  22.945  0.00  0.00    +0.000 A 
ATOM     13  C   UNL     1      -1.037  13.559  23.263  0.00  0.00    +0.000 A 
ATOM     14  C   UNL     1      -1.831  14.477  23.958  0.00  0.00    +0.000 A 
ATOM     15  C   UNL     1      -3.119  14.128  24.353  0.00  0.00    +0.000 A 
ATOM     16  C   UNL     1      -3.618  12.869  24.039  0.00  0.00    +0.000 A 
ATOM     17  C   UNL     1      -2.819  11.960  23.335  0.00  0.00    +0.000 A 
ENDBRANCH   9  12
ENDBRANCH   3   5
ENDBRANCH   2   3
ENDBRANCH   1   2
BRANCH   1  18
ATOM     18  O   UNL     1       3.192   3.891  20.098  0.00  0.00    +0.000 OA
BRANCH  18  19
ATOM     19  C   UNL     1       4.072   4.457  19.211  0.00  0.00    +0.000 A 
ATOM     20  C   UNL     1       5.081   5.370  19.530  0.00  0.00    +0.000 A 
ATOM     21  C   UNL     1       5.969   5.827  18.550  0.00  0.00    +0.000 A 
ATOM     22  C   UNL     1       5.856   5.372  17.236  0.00  0.00    +0.000 A 
ATOM     23  N   UNL     1       6.793   5.751  16.256  0.00  0.00    +0.000 N 
ATOM     24  C   UNL     1       6.727   5.179  15.018  0.00  0.00    +0.000 A 
ATOM     25  N   UNL     1       7.530   5.291  14.002  0.00  0.00    +0.000 NA
ATOM     26  C   UNL     1       6.925   4.482  13.066  0.00  0.00    +0.000 A 
ATOM     27  N   UNL     1       5.822   3.872  13.350  0.00  0.00    +0.000 NA
ATOM     28  C   UNL     1       5.627   4.260  14.636  0.00  0.00    +0.000 A 
ATOM     29  C   UNL     1       4.692   3.943  15.529  0.00  0.00    +0.000 A 
ATOM     30  C   UNL     1       4.809   4.470  16.902  0.00  0.00    +0.000 A 
ATOM     31  C   UNL     1       3.922   4.031  17.890  0.00  0.00    +0.000 A 
ATOM     32  H   UNL     1       7.532   6.398  16.475  0.00  0.00    +0.000 HD
BRANCH  26  33
ATOM     33  O   UNL     1       7.581   4.389  11.909  0.00  0.00    +0.000 OA
ATOM     34  H   UNL     1       8.516   4.542  12.096  0.00  0.00    +0.000 HD
ENDBRANCH  26  33
ENDBRANCH  18  19
ENDBRANCH   1  18
TORSDOF 7
ENDMDL
MODEL 9
REMARK VINA RESULT:      -8.0      6.936      8.782
REMARK  Name = 
REMARK  7 active torsions:
REMARK  status: ('A' for Active; 'I' for Inactive)
REMARK    1  A    between atoms: C_2  and  C_3
REMARK    2  A    between atoms: C_3  and  C_4
REMARK    3  A    between atoms: C_4  and  C_5
REMARK    4  A    between atoms: C_5  and  O_6
REMARK    5  A    between atoms: O_6  and  C_7
REMARK    6  A    between atoms: C_14  and  O_15
REMARK    7  A    between atoms: N_24  and  C_25
REMARK                            x       y       z     vdW  Elec       q    Type
REMARK                         _______ _______ _______ _____ _____    ______ ____
ROOT
ATOM      1  C   UNL     1       1.864   3.681  20.781  0.00  0.00    +0.000 C 
ENDROOT
BRANCH   1   2
ATOM      2  C   UNL     1       1.385   4.990  20.154  0.00  0.00    +0.000 C 
BRANCH   2   3
ATOM      3  C   UNL     1       1.715   6.221  21.001  0.00  0.00    +0.000 C 
BRANCH   3   5
ATOM      4  O   UNL     1       2.527   7.730  19.312  0.00  0.00    +0.000 OA
ATOM      5  C   UNL     1       1.718   7.525  20.216  0.00  0.00    +0.000 C 
ATOM      6  N   UNL     1       0.792   8.481  20.578  0.00  0.00    +0.000 N 
ATOM      7  C   UNL     1      -0.256   8.329  21.602  0.00  0.00    +0.000 C 
ATOM      8  C   UNL     1      -0.284   9.538  22.559  0.00  0.00    +0.000 C 
ATOM      9  N   UNL     1      -0.387  10.768  21.763  0.00  0.00    +0.000 N 
ATOM     10  C   UNL     1       0.706  10.962  20.797  0.00  0.00    +0.000 C 
ATOM     11  C   UNL     1       0.748   9.757  19.842  0.00  0.00    +0.000 C 
BRANCH   9  12
ATOM     12  C   UNL     1      -1.181  11.827  22.150  0.00  0.00    +0.000 A 
ATOM     13  C   UNL     1      -2.090  11.724  23.211  0.00  0.00    +0.000 A 
ATOM     14  C   UNL     1      -2.946  12.779  23.544  0.00  0.00    +0.000 A 
ATOM     15  C   UNL     1      -2.909  13.964  22.817  0.00  0.00    +0.000 A 
ATOM     16  C   UNL     1      -2.007  14.101  21.768  0.00  0.00    +0.000 A 
ATOM     17  C   UNL     1      -1.148  13.043  21.446  0.00  0.00    +0.000 A 
ENDBRANCH   9  12
ENDBRANCH   3   5
ENDBRANCH   2   3
ENDBRANCH   1   2
BRANCH   1  18
ATOM     18  O   UNL     1       2.657   2.970  19.829  0.00  0.00    +0.000 OA
BRANCH  18  19
ATOM     19  C   UNL     1       3.627   3.703  19.193  0.00  0.00    +0.000 A 
ATOM     20  C   UNL     1       4.547   4.554  19.812  0.00  0.00    +0.000 A 
ATOM     21  C   UNL     1       5.541   5.197  19.068  0.00  0.00    +0.000 A 
ATOM     22  C   UNL     1       5.626   4.994  17.690  0.00  0.00    +0.000 A 
ATOM     23  N   UNL     1       6.672   5.561  16.939  0.00  0.00    +0.000 N 
ATOM     24  C   UNL     1       6.798   5.229  15.620  0.00  0.00    +0.000 A 
ATOM     25  N   UNL     1       7.727   5.540  14.765  0.00  0.00    +0.000 NA
ATOM     26  C   UNL     1       7.287   4.911  13.621  0.00  0.00    +0.000 A 
ATOM     27  N   UNL     1       6.180   4.244  13.630  0.00  0.00    +0.000 NA
ATOM     28  C   UNL     1       5.796   4.384  14.925  0.00  0.00    +0.000 A 
ATOM     29  C   UNL     1       4.762   3.893  15.604  0.00  0.00    +0.000 A 
ATOM     30  C   UNL     1       4.671   4.156  17.053  0.00  0.00    +0.000 A 
ATOM     31  C   UNL     1       3.675   3.529  17.809  0.00  0.00    +0.000 A 
ATOM     32  H   UNL     1       7.349   6.166  17.374  0.00  0.00    +0.000 HD
BRANCH  26  33
ATOM     33  O   UNL     1       8.097   5.045  12.570  0.00  0.00    +0.000 OA
ATOM     34  H   UNL     1       8.299   4.156  12.249  0.00  0.00    +0.000 HD
ENDBRANCH  26  33
ENDBRANCH  18  19
ENDBRANCH   1  18
TORSDOF 7
ENDMDL
