MODEL 1
REMARK VINA RESULT:      -7.8      0.000      0.000
REMARK  Name = 
REMARK  6 active torsions:
REMARK  status: ('A' for Active; 'I' for Inactive)
REMARK    1  A    between atoms: C_1  and  C_2
REMARK    2  A    between atoms: C_4  and  S_5
REMARK    3  A    between atoms: S_5  and  C_6
REMARK    4  A    between atoms: C_6  and  C_7
REMARK    5  A    between atoms: N_9  and  C_10
REMARK    6  A    between atoms: C_10  and  C_11
REMARK                            x       y       z     vdW  Elec       q    Type
REMARK                         _______ _______ _______ _____ _____    ______ ____
ROOT
ATOM      1  C   UNL     1       6.645   4.948  17.429  0.00  0.00    +0.000 C 
ENDROOT
BRANCH   1   2
ATOM      2  C   UNL     1       6.071   4.472  18.770  0.00  0.00    +0.000 C 
ATOM      3  O   UNL     1       6.318   5.063  19.819  0.00  0.00    +0.000 OA
ATOM      4  N   UNL     1       5.333   3.308  18.731  0.00  0.00    +0.000 N 
ATOM      5  H   UNL     1       5.157   2.891  17.825  0.00  0.00    +0.000 HD
BRANCH   4   6
ATOM      6  C   UNL     1       4.737   2.695  19.899  0.00  0.00    +0.000 C 
BRANCH   6   7
ATOM      7  C   UNL     1       3.229   2.771  19.879  0.00  0.00    +0.000 A 
ATOM      8  C   UNL     1       2.501   2.342  18.757  0.00  0.00    +0.000 A 
ATOM      9  C   UNL     1       1.105   2.403  18.746  0.00  0.00    +0.000 A 
ATOM     10  C   UNL     1       0.418   2.895  19.852  0.00  0.00    +0.000 A 
ATOM     11  C   UNL     1       1.125   3.327  20.972  0.00  0.00    +0.000 A 
ATOM     12  C   UNL     1       2.522   3.273  20.983  0.00  0.00    +0.000 A 
ENDBRANCH   6   7
ENDBRANCH   4   6
ENDBRANCH   1   2
BRANCH   1  13
ATOM     13  S   UNL     1       5.362   4.936  16.145  0.00  0.00    +0.000 S 
BRANCH  13  17
ATOM     14  C   UNL     1       5.829   2.631  11.578  0.00  0.00    +0.000 C 
ATOM     15  C   UNL     1       6.288   3.615  12.607  0.00  0.00    +0.000 A 
ATOM     16  C   UNL     1       5.662   3.791  13.772  0.00  0.00    +0.000 A 
ATOM     17  C   UNL     1       6.268   4.802  14.658  0.00  0.00    +0.000 A 
ATOM     18  N   UNL     1       7.313   5.505  14.414  0.00  0.00    +0.000 NA
ATOM     19  C   UNL     1       7.933   5.303  13.199  0.00  0.00    +0.000 A 
ATOM     20  O   UNL     1       8.937   5.917  12.851  0.00  0.00    +0.000 OA
ATOM     21  N   UNL     1       7.400   4.365  12.340  0.00  0.00    +0.000 N 
ATOM     22  H   UNL     1       7.899   4.263  11.464  0.00  0.00    +0.000 HD
ENDBRANCH  13  17
ENDBRANCH   1  13
TORSDOF 5
ENDMDL
MODEL 2
REMARK VINA RESULT:      -7.7      0.481      1.053
REMARK  Name = 
REMARK  6 active torsions:
REMARK  status: ('A' for Active; 'I' for Inactive)
REMARK    1  A    between atoms: C_1  and  C_2
REMARK    2  A    between atoms: C_4  and  S_5
REMARK    3  A    between atoms: S_5  and  C_6
REMARK    4  A    between atoms: C_6  and  C_7
REMARK    5  A    between atoms: N_9  and  C_10
REMARK    6  A    between atoms: C_10  and  C_11
REMARK                            x       y       z     vdW  Elec       q    Type
REMARK                         _______ _______ _______ _____ _____    ______ ____
ROOT
ATOM      1  C   UNL     1       6.705   4.876  17.532  0.00  0.00    +0.000 C 
ENDROOT
BRANCH   1   2
ATOM      2  C   UNL     1       6.118   4.435  18.879  0.00  0.00    +0.000 C 
ATOM      3  O   UNL     1       6.336   5.067  19.911  0.00  0.00    +0.000 OA
ATOM      4  N   UNL     1       5.405   3.254  18.869  0.00  0.00    +0.000 N 
ATOM      5  H   UNL     1       5.254   2.803  17.975  0.00  0.00    +0.000 HD
BRANCH   4   6
ATOM      6  C   UNL     1       4.803   2.670  20.048  0.00  0.00    +0.000 C 
BRANCH   6   7
ATOM      7  C   UNL     1       3.317   2.931  20.121  0.00  0.00    +0.000 A 
ATOM      8  C   UNL     1       2.599   2.676  21.300  0.00  0.00    +0.000 A 
ATOM      9  C   UNL     1       1.226   2.930  21.369  0.00  0.00    +0.000 A 
ATOM     10  C   UNL     1       0.553   3.437  20.260  0.00  0.00    +0.000 A 
ATOM     11  C   UNL     1       1.251   3.692  19.082  0.00  0.00    +0.000 A 
ATOM     12  C   UNL     1       2.623   3.433  19.009  0.00  0.00    +0.000 A 
ENDBRANCH   6   7
ENDBRANCH   4   6
ENDBRANCH   1   2
BRANCH   1  13
ATOM     13  S   UNL     1       5.406   4.960  16.267  0.00  0.00    +0.000 S 
BRANCH  13  17
ATOM     14  C   UNL     1       5.761   2.685  11.675  0.00  0.00    +0.000 C 
ATOM     15  C   UNL     1       6.252   3.654  12.704  0.00  0.00    +0.000 A 
ATOM     16  C   UNL     1       5.649   3.831  13.881  0.00  0.00    +0.000 A 
ATOM     17  C   UNL     1       6.284   4.825  14.763  0.00  0.00    +0.000 A 
ATOM     18  N   UNL     1       7.336   5.514  14.508  0.00  0.00    +0.000 NA
ATOM     19  C   UNL     1       7.931   5.313  13.280  0.00  0.00    +0.000 A 
ATOM     20  O   UNL     1       8.939   5.916  12.920  0.00  0.00    +0.000 OA
ATOM     21  N   UNL     1       7.371   4.390  12.423  0.00  0.00    +0.000 N 
ATOM     22  H   UNL     1       7.853   4.288  11.538  0.00  0.00    +0.000 HD
ENDBRANCH  13  17
ENDBRANCH   1  13
TORSDOF 5
ENDMDL
MODEL 3
REMARK VINA RESULT:      -7.7      1.628      1.748
REMARK  Name = 
REMARK  6 active torsions:
REMARK  status: ('A' for Active; 'I' for Inactive)
REMARK    1  A    between atoms: C_1  and  C_2
REMARK    2  A    between atoms: C_4  and  S_5
REMARK    3  A    between atoms: S_5  and  C_6
REMARK    4  A    between atoms: C_6  and  C_7
REMARK    5  A    between atoms: N_9  and  C_10
REMARK    6  A    between atoms: C_10  and  C_11
REMARK                            x       y       z     vdW  Elec       q    Type
REMARK                         _______ _______ _______ _____ _____    ______ ____
ROOT
ATOM      1  C   UNL     1       5.731   6.139  17.027  0.00  0.00    +0.000 C 
ENDROOT
BRANCH   1   2
ATOM      2  C   UNL     1       4.843   6.002  18.270  0.00  0.00    +0.000 C 
ATOM      3  O   UNL     1       5.213   5.368  19.256  0.00  0.00    +0.000 OA
ATOM      4  N   UNL     1       3.587   6.564  18.179  0.00  0.00    +0.000 N 
ATOM      5  H   UNL     1       3.363   7.087  17.341  0.00  0.00    +0.000 HD
BRANCH   4   6
ATOM      6  C   UNL     1       2.604   6.511  19.240  0.00  0.00    +0.000 C 
BRANCH   6   7
ATOM      7  C   UNL     1       2.000   5.136  19.393  0.00  0.00    +0.000 A 
ATOM      8  C   UNL     1       1.753   4.329  18.271  0.00  0.00    +0.000 A 
ATOM      9  C   UNL     1       1.204   3.052  18.416  0.00  0.00    +0.000 A 
ATOM     10  C   UNL     1       0.890   2.566  19.682  0.00  0.00    +0.000 A 
ATOM     11  C   UNL     1       1.126   3.355  20.806  0.00  0.00    +0.000 A 
ATOM     12  C   UNL     1       1.669   4.635  20.663  0.00  0.00    +0.000 A 
ENDBRANCH   6   7
ENDBRANCH   4   6
ENDBRANCH   1   2
BRANCH   1  13
ATOM     13  S   UNL     1       6.575   4.573  16.669  0.00  0.00    +0.000 S 
BRANCH  13  17
ATOM     14  C   UNL     1       5.599   2.875  11.920  0.00  0.00    +0.000 C 
ATOM     15  C   UNL     1       6.338   3.758  12.874  0.00  0.00    +0.000 A 
ATOM     16  C   UNL     1       6.120   3.748  14.191  0.00  0.00    +0.000 A 
ATOM     17  C   UNL     1       6.951   4.686  14.967  0.00  0.00    +0.000 A 
ATOM     18  N   UNL     1       7.839   5.486  14.502  0.00  0.00    +0.000 NA
ATOM     19  C   UNL     1       8.035   5.478  13.137  0.00  0.00    +0.000 A 
ATOM     20  O   UNL     1       8.853   6.201  12.576  0.00  0.00    +0.000 OA
ATOM     21  N   UNL     1       7.280   4.614  12.372  0.00  0.00    +0.000 N 
ATOM     22  H   UNL     1       7.470   4.655  11.378  0.00  0.00    +0.000 HD
ENDBRANCH  13  17
ENDBRANCH   1  13
TORSDOF 5
ENDMDL
MODEL 4
REMARK VINA RESULT:      -7.4      1.538      1.974
REMARK  Name = 
REMARK  6 active torsions:
REMARK  status: ('A' for Active; 'I' for Inactive)
REMARK    1  A    between atoms: C_1  and  C_2
REMARK    2  A    between atoms: C_4  and  S_5
REMARK    3  A    between atoms: S_5  and  C_6
REMARK    4  A    between atoms: C_6  and  C_7
REMARK    5  A    between atoms: N_9  and  C_10
REMARK    6  A    between atoms: C_10  and  C_11
REMARK                            x       y       z     vdW  Elec       q    Type
REMARK                         _______ _______ _______ _____ _____    ______ ____
ROOT
ATOM      1  C   UNL     1       5.530   5.978  16.831  0.00  0.00    +0.000 C 
ENDROOT
BRANCH   1   2
ATOM      2  C   UNL     1       4.801   6.018  18.180  0.00  0.00    +0.000 C 
ATOM      3  O   UNL     1       5.375   5.726  19.227  0.00  0.00    +0.000 OA
ATOM      4  N   UNL     1       3.457   6.324  18.132  0.00  0.00    +0.000 N 
ATOM      5  H   UNL     1       3.062   6.572  17.232  0.00  0.00    +0.000 HD
BRANCH   4   6
ATOM      6  C   UNL     1       2.604   6.383  19.299  0.00  0.00    +0.000 C 
BRANCH   6   7
ATOM      7  C   UNL     1       2.115   5.017  19.719  0.00  0.00    +0.000 A 
ATOM      8  C   UNL     1       2.222   4.594  21.053  0.00  0.00    +0.000 A 
ATOM      9  C   UNL     1       1.757   3.334  21.442  0.00  0.00    +0.000 A 
ATOM     10  C   UNL     1       1.185   2.480  20.503  0.00  0.00    +0.000 A 
ATOM     11  C   UNL     1       1.075   2.884  19.174  0.00  0.00    +0.000 A 
ATOM     12  C   UNL     1       1.544   4.141  18.782  0.00  0.00    +0.000 A 
ENDBRANCH   6   7
ENDBRANCH   4   6
ENDBRANCH   1   2
BRANCH   1  13
ATOM     13  S   UNL     1       5.820   4.263  16.312  0.00  0.00    +0.000 S 
BRANCH  13  17
ATOM     14  C   UNL     1       5.815   2.606  11.450  0.00  0.00    +0.000 C 
ATOM     15  C   UNL     1       6.321   3.507  12.531  0.00  0.00    +0.000 A 
ATOM     16  C   UNL     1       5.868   3.462  13.785  0.00  0.00    +0.000 A 
ATOM     17  C   UNL     1       6.494   4.424  14.709  0.00  0.00    +0.000 A 
ATOM     18  N   UNL     1       7.410   5.275  14.422  0.00  0.00    +0.000 NA
ATOM     19  C   UNL     1       7.852   5.301  13.116  0.00  0.00    +0.000 A 
ATOM     20  O   UNL     1       8.721   6.073  12.720  0.00  0.00    +0.000 OA
ATOM     21  N   UNL     1       7.295   4.416  12.218  0.00  0.00    +0.000 N 
ATOM     22  H   UNL     1       7.661   4.484  11.275  0.00  0.00    +0.000 HD
ENDBRANCH  13  17
ENDBRANCH   1  13
TORSDOF 5
ENDMDL
MODEL 5
REMARK VINA RESULT:      -7.3      3.224      4.600
REMARK  Name = 
REMARK  6 active torsions:
REMARK  status: ('A' for Active; 'I' for Inactive)
REMARK    1  A    between atoms: C_1  and  C_2
REMARK    2  A    between atoms: C_4  and  S_5
REMARK    3  A    between atoms: S_5  and  C_6
REMARK    4  A    between atoms: C_6  and  C_7
REMARK    5  A    between atoms: N_9  and  C_10
REMARK    6  A    between atoms: C_10  and  C_11
REMARK                            x       y       z     vdW  Elec       q    Type
REMARK                         _______ _______ _______ _____ _____    ______ ____
ROOT
ATOM      1  C   UNL     1       5.488   3.786  16.311  0.00  0.00    +0.000 C 
ENDROOT
BRANCH   1   2
ATOM      2  C   UNL     1       4.065   4.042  16.826  0.00  0.00    +0.000 C 
ATOM      3  O   UNL     1       3.122   3.334  16.482  0.00  0.00    +0.000 OA
ATOM      4  N   UNL     1       3.905   5.153  17.628  0.00  0.00    +0.000 N 
ATOM      5  H   UNL     1       4.735   5.674  17.883  0.00  0.00    +0.000 HD
BRANCH   4   6
ATOM      6  C   UNL     1       2.634   5.566  18.183  0.00  0.00    +0.000 C 
BRANCH   6   7
ATOM      7  C   UNL     1       2.151   4.631  19.266  0.00  0.00    +0.000 A 
ATOM      8  C   UNL     1       1.167   3.666  18.998  0.00  0.00    +0.000 A 
ATOM      9  C   UNL     1       0.730   2.794  19.999  0.00  0.00    +0.000 A 
ATOM     10  C   UNL     1       1.266   2.878  21.281  0.00  0.00    +0.000 A 
ATOM     11  C   UNL     1       2.240   3.832  21.565  0.00  0.00    +0.000 A 
ATOM     12  C   UNL     1       2.675   4.709  20.567  0.00  0.00    +0.000 A 
ENDBRANCH   6   7
ENDBRANCH   4   6
ENDBRANCH   1   2
BRANCH   1  13
ATOM     13  S   UNL     1       6.261   5.336  15.772  0.00  0.00    +0.000 S 
BRANCH  13  17
ATOM     14  C   UNL     1       8.504   9.306  18.139  0.00  0.00    +0.000 C 
ATOM     15  C   UNL     1       8.046   7.882  18.107  0.00  0.00    +0.000 A 
ATOM     16  C   UNL     1       7.427   7.342  17.056  0.00  0.00    +0.000 A 
ATOM     17  C   UNL     1       7.058   5.923  17.211  0.00  0.00    +0.000 A 
ATOM     18  N   UNL     1       7.275   5.184  18.236  0.00  0.00    +0.000 NA
ATOM     19  C   UNL     1       7.912   5.773  19.308  0.00  0.00    +0.000 A 
ATOM     20  O   UNL     1       8.170   5.170  20.345  0.00  0.00    +0.000 OA
ATOM     21  N   UNL     1       8.276   7.099  19.206  0.00  0.00    +0.000 N 
ATOM     22  H   UNL     1       8.739   7.475  20.025  0.00  0.00    +0.000 HD
ENDBRANCH  13  17
ENDBRANCH   1  13
TORSDOF 5
ENDMDL
MODEL 6
REMARK VINA RESULT:      -7.3      1.658      1.730
REMARK  Name = 
REMARK  6 active torsions:
REMARK  status: ('A' for Active; 'I' for Inactive)
REMARK    1  A    between atoms: C_1  and  C_2
REMARK    2  A    between atoms: C_4  and  S_5
REMARK    3  A    between atoms: S_5  and  C_6
REMARK    4  A    between atoms: C_6  and  C_7
REMARK    5  A    between atoms: N_9  and  C_10
REMARK    6  A    between atoms: C_10  and  C_11
REMARK                            x       y       z     vdW  Elec       q    Type
REMARK                         _______ _______ _______ _____ _____    ______ ____
ROOT
ATOM      1  C   UNL     1       5.445   6.555  16.526  0.00  0.00    +0.000 C 
ENDROOT
BRANCH   1   2
ATOM      2  C   UNL     1       4.336   6.580  17.586  0.00  0.00    +0.000 C 
ATOM      3  O   UNL     1       3.445   7.427  17.562  0.00  0.00    +0.000 OA
ATOM      4  N   UNL     1       4.448   5.650  18.598  0.00  0.00    +0.000 N 
ATOM      5  H   UNL     1       5.199   4.974  18.536  0.00  0.00    +0.000 HD
BRANCH   4   6
ATOM      6  C   UNL     1       3.512   5.542  19.697  0.00  0.00    +0.000 C 
BRANCH   6   7
ATOM      7  C   UNL     1       2.531   4.411  19.504  0.00  0.00    +0.000 A 
ATOM      8  C   UNL     1       2.663   3.518  18.428  0.00  0.00    +0.000 A 
ATOM      9  C   UNL     1       1.760   2.465  18.259  0.00  0.00    +0.000 A 
ATOM     10  C   UNL     1       0.711   2.292  19.159  0.00  0.00    +0.000 A 
ATOM     11  C   UNL     1       0.564   3.171  20.230  0.00  0.00    +0.000 A 
ATOM     12  C   UNL     1       1.463   4.229  20.398  0.00  0.00    +0.000 A 
ENDBRANCH   6   7
ENDBRANCH   4   6
ENDBRANCH   1   2
BRANCH   1  13
ATOM     13  S   UNL     1       6.165   4.895  16.394  0.00  0.00    +0.000 S 
BRANCH  13  17
ATOM     14  C   UNL     1       5.639   2.708  11.776  0.00  0.00    +0.000 C 
ATOM     15  C   UNL     1       6.300   3.676  12.704  0.00  0.00    +0.000 A 
ATOM     16  C   UNL     1       5.947   3.813  13.983  0.00  0.00    +0.000 A 
ATOM     17  C   UNL     1       6.719   4.814  14.740  0.00  0.00    +0.000 A 
ATOM     18  N   UNL     1       7.675   5.543  14.291  0.00  0.00    +0.000 NA
ATOM     19  C   UNL     1       8.012   5.383  12.963  0.00  0.00    +0.000 A 
ATOM     20  O   UNL     1       8.905   6.025  12.418  0.00  0.00    +0.000 OA
ATOM     21  N   UNL     1       7.315   4.455  12.218  0.00  0.00    +0.000 N 
ATOM     22  H   UNL     1       7.609   4.384  11.251  0.00  0.00    +0.000 HD
ENDBRANCH  13  17
ENDBRANCH   1  13
TORSDOF 5
ENDMDL
MODEL 7
REMARK VINA RESULT:      -7.3      4.995      8.390
REMARK  Name = 
REMARK  6 active torsions:
REMARK  status: ('A' for Active; 'I' for Inactive)
REMARK    1  A    between atoms: C_1  and  C_2
REMARK    2  A    between atoms: C_4  and  S_5
REMARK    3  A    between atoms: S_5  and  C_6
REMARK    4  A    between atoms: C_6  and  C_7
REMARK    5  A    between atoms: N_9  and  C_10
REMARK    6  A    between atoms: C_10  and  C_11
REMARK                            x       y       z     vdW  Elec       q    Type
REMARK                         _______ _______ _______ _____ _____    ______ ____
ROOT
ATOM      1  C   UNL     1       7.695   6.065  18.463  0.00  0.00    +0.000 C 
ENDROOT
BRANCH   1   2
ATOM      2  C   UNL     1       7.642   7.440  17.783  0.00  0.00    +0.000 C 
ATOM      3  O   UNL     1       7.040   7.609  16.724  0.00  0.00    +0.000 OA
ATOM      4  N   UNL     1       8.369   8.442  18.391  0.00  0.00    +0.000 N 
ATOM      5  H   UNL     1       8.821   8.228  19.272  0.00  0.00    +0.000 HD
BRANCH   4   6
ATOM      6  C   UNL     1       8.458   9.792  17.880  0.00  0.00    +0.000 C 
BRANCH   6   7
ATOM      7  C   UNL     1       9.463  10.627  18.639  0.00  0.00    +0.000 A 
ATOM      8  C   UNL     1       9.340  10.819  20.024  0.00  0.00    +0.000 A 
ATOM      9  C   UNL     1      10.277  11.582  20.725  0.00  0.00    +0.000 A 
ATOM     10  C   UNL     1      11.347  12.166  20.052  0.00  0.00    +0.000 A 
ATOM     11  C   UNL     1      11.482  11.988  18.677  0.00  0.00    +0.000 A 
ATOM     12  C   UNL     1      10.542  11.230  17.972  0.00  0.00    +0.000 A 
ENDBRANCH   6   7
ENDBRANCH   4   6
ENDBRANCH   1   2
BRANCH   1  13
ATOM     13  S   UNL     1       6.889   4.810  17.429  0.00  0.00    +0.000 S 
BRANCH  13  17
ATOM     14  C   UNL     1       2.449   2.242  17.712  0.00  0.00    +0.000 C 
ATOM     15  C   UNL     1       3.300   3.434  18.016  0.00  0.00    +0.000 A 
ATOM     16  C   UNL     1       4.569   3.540  17.619  0.00  0.00    +0.000 A 
ATOM     17  C   UNL     1       5.241   4.792  18.009  0.00  0.00    +0.000 A 
ATOM     18  N   UNL     1       4.728   5.762  18.675  0.00  0.00    +0.000 NA
ATOM     19  C   UNL     1       3.416   5.618  19.076  0.00  0.00    +0.000 A 
ATOM     20  O   UNL     1       2.818   6.474  19.721  0.00  0.00    +0.000 OA
ATOM     21  N   UNL     1       2.748   4.462  18.731  0.00  0.00    +0.000 N 
ATOM     22  H   UNL     1       1.789   4.417  19.054  0.00  0.00    +0.000 HD
ENDBRANCH  13  17
ENDBRANCH   1  13
TORSDOF 5
ENDMDL
MODEL 8
REMARK VINA RESULT:      -7.3      3.790      5.439
REMARK  Name = 
REMARK  6 active torsions:
REMARK  status: ('A' for Active; 'I' for Inactive)
REMARK    1  A    between atoms: C_1  and  C_2
REMARK    2  A    between atoms: C_4  and  S_5
REMARK    3  A    between atoms: S_5  and  C_6
REMARK    4  A    between atoms: C_6  and  C_7
REMARK    5  A    between atoms: N_9  and  C_10
REMARK    6  A    between atoms: C_10  and  C_11
REMARK                            x       y       z     vdW  Elec       q    Type
REMARK                         _______ _______ _______ _____ _____    ______ ____
ROOT
ATOM      1  C   UNL     1       4.836   3.701  17.088  0.00  0.00    +0.000 C 
ENDROOT
BRANCH   1   2
ATOM      2  C   UNL     1       3.654   4.058  17.998  0.00  0.00    +0.000 C 
ATOM      3  O   UNL     1       2.562   3.506  17.877  0.00  0.00    +0.000 OA
ATOM      4  N   UNL     1       3.872   5.081  18.897  0.00  0.00    +0.000 N 
ATOM      5  H   UNL     1       4.805   5.473  18.949  0.00  0.00    +0.000 HD
BRANCH   4   6
ATOM      6  C   UNL     1       2.867   5.571  19.815  0.00  0.00    +0.000 C 
BRANCH   6   7
ATOM      7  C   UNL     1       2.358   6.940  19.430  0.00  0.00    +0.000 A 
ATOM      8  C   UNL     1       1.668   7.738  20.356  0.00  0.00    +0.000 A 
ATOM      9  C   UNL     1       1.208   9.009  20.001  0.00  0.00    +0.000 A 
ATOM     10  C   UNL     1       1.427   9.497  18.715  0.00  0.00    +0.000 A 
ATOM     11  C   UNL     1       2.108   8.716  17.783  0.00  0.00    +0.000 A 
ATOM     12  C   UNL     1       2.563   7.442  18.135  0.00  0.00    +0.000 A 
ENDBRANCH   6   7
ENDBRANCH   4   6
ENDBRANCH   1   2
BRANCH   1  13
ATOM     13  S   UNL     1       5.510   5.192  16.302  0.00  0.00    +0.000 S 
BRANCH  13  17
ATOM     14  C   UNL     1       8.323   9.175  17.918  0.00  0.00    +0.000 C 
ATOM     15  C   UNL     1       7.856   7.759  18.042  0.00  0.00    +0.000 A 
ATOM     16  C   UNL     1       6.985   7.206  17.195  0.00  0.00    +0.000 A 
ATOM     17  C   UNL     1       6.651   5.799  17.477  0.00  0.00    +0.000 A 
ATOM     18  N   UNL     1       7.111   5.080  18.435  0.00  0.00    +0.000 NA
ATOM     19  C   UNL     1       8.003   5.683  19.296  0.00  0.00    +0.000 A 
ATOM     20  O   UNL     1       8.508   5.100  20.251  0.00  0.00    +0.000 OA
ATOM     21  N   UNL     1       8.346   6.999  19.068  0.00  0.00    +0.000 N 
ATOM     22  H   UNL     1       9.005   7.386  19.734  0.00  0.00    +0.000 HD
ENDBRANCH  13  17
ENDBRANCH   1  13
TORSDOF 5
ENDMDL
MODEL 9
REMARK VINA RESULT:      -7.2      3.637      4.853
REMARK  Name = 
REMARK  6 active torsions:
REMARK  status: ('A' for Active; 'I' for Inactive)
REMARK    1  A    between atoms: C_1  and  C_2
REMARK    2  A    between atoms: C_4  and  S_5
REMARK    3  A    between atoms: S_5  and  C_6
REMARK    4  A    between atoms: C_6  and  C_7
REMARK    5  A    between atoms: N_9  and  C_10
REMARK    6  A    between atoms: C_10  and  C_11
REMARK                            x       y       z     vdW  Elec       q    Type
REMARK                         _______ _______ _______ _____ _____    ______ ____
ROOT
ATOM      1  C   UNL     1       3.359   2.884  19.288  0.00  0.00    +0.000 C 
ENDROOT
BRANCH   1   2
ATOM      2  C   UNL     1       2.468   3.882  20.039  0.00  0.00    +0.000 C 
ATOM      3  O   UNL     1       1.362   3.559  20.466  0.00  0.00    +0.000 OA
ATOM      4  N   UNL     1       2.953   5.170  20.134  0.00  0.00    +0.000 N 
ATOM      5  H   UNL     1       3.882   5.352  19.774  0.00  0.00    +0.000 HD
BRANCH   4   6
ATOM      6  C   UNL     1       2.241   6.250  20.783  0.00  0.00    +0.000 C 
BRANCH   6   7
ATOM      7  C   UNL     1       2.009   7.420  19.857  0.00  0.00    +0.000 A 
ATOM      8  C   UNL     1       1.291   8.547  20.287  0.00  0.00    +0.000 A 
ATOM      9  C   UNL     1       1.088   9.634  19.432  0.00  0.00    +0.000 A 
ATOM     10  C   UNL     1       1.595   9.607  18.135  0.00  0.00    +0.000 A 
ATOM     11  C   UNL     1       2.306   8.494  17.692  0.00  0.00    +0.000 A 
ATOM     12  C   UNL     1       2.506   7.404  18.543  0.00  0.00    +0.000 A 
ENDBRANCH   6   7
ENDBRANCH   4   6
ENDBRANCH   1   2
BRANCH   1  13
ATOM     13  S   UNL     1       3.459   3.316  17.528  0.00  0.00    +0.000 S 
BRANCH  13  17
ATOM     14  C   UNL     1       7.152   4.861  14.309  0.00  0.00    +0.000 C 
ATOM     15  C   UNL     1       6.627   4.620  15.689  0.00  0.00    +0.000 A 
ATOM     16  C   UNL     1       5.407   4.134  15.926  0.00  0.00    +0.000 A 
ATOM     17  C   UNL     1       5.073   3.960  17.351  0.00  0.00    +0.000 A 
ATOM     18  N   UNL     1       5.829   4.225  18.353  0.00  0.00    +0.000 NA
ATOM     19  C   UNL     1       7.080   4.732  18.074  0.00  0.00    +0.000 A 
ATOM     20  O   UNL     1       7.891   5.028  18.947  0.00  0.00    +0.000 OA
ATOM     21  N   UNL     1       7.436   4.910  16.753  0.00  0.00    +0.000 N 
ATOM     22  H   UNL     1       8.367   5.285  16.613  0.00  0.00    +0.000 HD
ENDBRANCH  13  17
ENDBRANCH   1  13
TORSDOF 5
ENDMDL
