MODEL 1
REMARK VINA RESULT:      -6.8      0.000      0.000
REMARK  Name = 
REMARK  7 active torsions:
REMARK  status: ('A' for Active; 'I' for Inactive)
REMARK    1  A    between atoms: C_1  and  C_2
REMARK    2  A    between atoms: C_2  and  O_3
REMARK    3  A    between atoms: C_2  and  C_11
REMARK    4  A    between atoms: O_3  and  C_4
REMARK    5  A    between atoms: N_13  and  C_14
REMARK    6  A    between atoms: C_14  and  C_15
REMARK    7  A    between atoms: C_15  and  N_16
REMARK                            x       y       z     vdW  Elec       q    Type
REMARK                         _______ _______ _______ _____ _____    ______ ____
ROOT
ATOM      1  C   UNL     1       2.165   3.903  18.564  0.00  0.00    +0.000 C 
ATOM      2  O   UNL     1       1.454   3.193  17.848  0.00  0.00    +0.000 OA
ATOM      3  N   UNL     1       3.504   4.101  18.283  0.00  0.00    +0.000 N 
ATOM      4  H   UNL     1       4.117   4.532  18.967  0.00  0.00    +0.000 HD
ENDROOT
BRANCH   1   6
ATOM      5  C   UNL     1       1.474   3.610  20.968  0.00  0.00    +0.000 C 
ATOM      6  C   UNL     1       1.597   4.598  19.812  0.00  0.00    +0.000 C 
BRANCH   6   7
ATOM      7  O   UNL     1       2.459   5.680  20.169  0.00  0.00    +0.000 OA
BRANCH   7   8
ATOM      8  C   UNL     1       2.084   6.958  19.846  0.00  0.00    +0.000 A 
ATOM      9  C   UNL     1       1.375   7.621  20.856  0.00  0.00    +0.000 A 
ATOM     10  C   UNL     1       0.906   8.927  20.670  0.00  0.00    +0.000 A 
ATOM     11  C   UNL     1       1.142   9.588  19.468  0.00  0.00    +0.000 A 
ATOM     12  C   UNL     1       1.845   8.942  18.455  0.00  0.00    +0.000 A 
ATOM     13  C   UNL     1       2.310   7.641  18.648  0.00  0.00    +0.000 A 
ATOM     14  F   UNL     1       2.963   7.075  17.621  0.00  0.00    +0.000 F 
ENDBRANCH   7   8
ENDBRANCH   6   7
ENDBRANCH   1   6
BRANCH   3  15
ATOM     15  C   UNL     1       4.103   3.419  17.153  0.00  0.00    +0.000 C 
BRANCH  15  16
ATOM     16  C   UNL     1       5.426   4.040  16.678  0.00  0.00    +0.000 C 
BRANCH  16  17
ATOM     17  N   UNL     1       5.941   5.173  17.487  0.00  0.00    +0.000 NA
ATOM     18  C   UNL     1       7.257   4.856  18.076  0.00  0.00    +0.000 C 
ATOM     19  C   UNL     1       7.835   6.034  18.863  0.00  0.00    +0.000 C 
ATOM     20  C   UNL     1       7.942   7.279  17.992  0.00  0.00    +0.000 C 
ATOM     21  C   UNL     1       6.592   7.585  17.360  0.00  0.00    +0.000 C 
ATOM     22  C   UNL     1       6.040   6.365  16.619  0.00  0.00    +0.000 C 
ENDBRANCH  16  17
ENDBRANCH  15  16
ENDBRANCH   3  15
TORSDOF 6
ENDMDL
MODEL 2
REMARK VINA RESULT:      -6.7      2.578      4.658
REMARK  Name = 
REMARK  7 active torsions:
REMARK  status: ('A' for Active; 'I' for Inactive)
REMARK    1  A    between atoms: C_1  and  C_2
REMARK    2  A    between atoms: C_2  and  O_3
REMARK    3  A    between atoms: C_2  and  C_11
REMARK    4  A    between atoms: O_3  and  C_4
REMARK    5  A    between atoms: N_13  and  C_14
REMARK    6  A    between atoms: C_14  and  C_15
REMARK    7  A    between atoms: C_15  and  N_16
REMARK                            x       y       z     vdW  Elec       q    Type
REMARK                         _______ _______ _______ _____ _____    ______ ____
ROOT
ATOM      1  C   UNL     1       4.541   6.255  18.187  0.00  0.00    +0.000 C 
ATOM      2  O   UNL     1       5.166   5.541  18.976  0.00  0.00    +0.000 OA
ATOM      3  N   UNL     1       5.137   6.773  17.054  0.00  0.00    +0.000 N 
ATOM      4  H   UNL     1       4.677   7.497  16.513  0.00  0.00    +0.000 HD
ENDROOT
BRANCH   1   6
ATOM      5  C   UNL     1       2.722   7.951  17.789  0.00  0.00    +0.000 C 
ATOM      6  C   UNL     1       3.065   6.611  18.431  0.00  0.00    +0.000 C 
BRANCH   6   7
ATOM      7  O   UNL     1       2.245   5.574  17.891  0.00  0.00    +0.000 OA
BRANCH   7   8
ATOM      8  C   UNL     1       1.981   4.471  18.661  0.00  0.00    +0.000 A 
ATOM      9  C   UNL     1       1.648   4.765  19.989  0.00  0.00    +0.000 A 
ATOM     10  C   UNL     1       1.370   3.744  20.905  0.00  0.00    +0.000 A 
ATOM     11  C   UNL     1       1.420   2.412  20.503  0.00  0.00    +0.000 A 
ATOM     12  C   UNL     1       1.750   2.105  19.186  0.00  0.00    +0.000 A 
ATOM     13  C   UNL     1       2.024   3.128  18.278  0.00  0.00    +0.000 A 
ATOM     14  F   UNL     1       2.353   2.755  17.031  0.00  0.00    +0.000 F 
ENDBRANCH   7   8
ENDBRANCH   6   7
ENDBRANCH   1   6
BRANCH   3  15
ATOM     15  C   UNL     1       6.543   6.519  16.809  0.00  0.00    +0.000 C 
BRANCH  15  16
ATOM     16  C   UNL     1       6.826   5.171  16.126  0.00  0.00    +0.000 C 
BRANCH  16  17
ATOM     17  N   UNL     1       6.566   5.114  14.665  0.00  0.00    +0.000 NA
ATOM     18  C   UNL     1       7.818   5.245  13.894  0.00  0.00    +0.000 C 
ATOM     19  C   UNL     1       7.581   5.126  12.387  0.00  0.00    +0.000 C 
ATOM     20  C   UNL     1       6.890   3.814  12.040  0.00  0.00    +0.000 C 
ATOM     21  C   UNL     1       5.617   3.666  12.861  0.00  0.00    +0.000 C 
ATOM     22  C   UNL     1       5.901   3.832  14.355  0.00  0.00    +0.000 C 
ENDBRANCH  16  17
ENDBRANCH  15  16
ENDBRANCH   3  15
TORSDOF 6
ENDMDL
MODEL 3
REMARK VINA RESULT:      -6.7      3.674      5.949
REMARK  Name = 
REMARK  7 active torsions:
REMARK  status: ('A' for Active; 'I' for Inactive)
REMARK    1  A    between atoms: C_1  and  C_2
REMARK    2  A    between atoms: C_2  and  O_3
REMARK    3  A    between atoms: C_2  and  C_11
REMARK    4  A    between atoms: O_3  and  C_4
REMARK    5  A    between atoms: N_13  and  C_14
REMARK    6  A    between atoms: C_14  and  C_15
REMARK    7  A    between atoms: C_15  and  N_16
REMARK                            x       y       z     vdW  Elec       q    Type
REMARK                         _______ _______ _______ _____ _____    ______ ____
ROOT
ATOM      1  C   UNL     1       7.277   6.489  17.756  0.00  0.00    +0.000 C 
ATOM      2  O   UNL     1       7.796   6.055  18.787  0.00  0.00    +0.000 OA
ATOM      3  N   UNL     1       7.475   7.791  17.338  0.00  0.00    +0.000 N 
ATOM      4  H   UNL     1       6.907   8.189  16.598  0.00  0.00    +0.000 HD
ENDROOT
BRANCH   1   6
ATOM      5  C   UNL     1       7.126   5.112  15.652  0.00  0.00    +0.000 C 
ATOM      6  C   UNL     1       6.372   5.601  16.885  0.00  0.00    +0.000 C 
BRANCH   6   7
ATOM      7  O   UNL     1       5.922   4.494  17.666  0.00  0.00    +0.000 OA
BRANCH   7   8
ATOM      8  C   UNL     1       4.584   4.378  17.939  0.00  0.00    +0.000 A 
ATOM      9  C   UNL     1       3.898   3.503  17.087  0.00  0.00    +0.000 A 
ATOM     10  C   UNL     1       2.521   3.293  17.226  0.00  0.00    +0.000 A 
ATOM     11  C   UNL     1       1.810   3.958  18.223  0.00  0.00    +0.000 A 
ATOM     12  C   UNL     1       2.479   4.830  19.076  0.00  0.00    +0.000 A 
ATOM     13  C   UNL     1       3.851   5.033  18.933  0.00  0.00    +0.000 A 
ATOM     14  F   UNL     1       4.424   5.903  19.780  0.00  0.00    +0.000 F 
ENDBRANCH   7   8
ENDBRANCH   6   7
ENDBRANCH   1   6
BRANCH   3  15
ATOM     15  C   UNL     1       8.269   8.687  18.155  0.00  0.00    +0.000 C 
BRANCH  15  16
ATOM     16  C   UNL     1       8.357  10.121  17.607  0.00  0.00    +0.000 C 
BRANCH  16  17
ATOM     17  N   UNL     1       9.104  11.093  18.444  0.00  0.00    +0.000 NA
ATOM     18  C   UNL     1       9.347  10.559  19.798  0.00  0.00    +0.000 C 
ATOM     19  C   UNL     1      10.171  11.520  20.657  0.00  0.00    +0.000 C 
ATOM     20  C   UNL     1      11.495  11.861  19.988  0.00  0.00    +0.000 C 
ATOM     21  C   UNL     1      11.244  12.381  18.580  0.00  0.00    +0.000 C 
ATOM     22  C   UNL     1      10.385  11.403  17.775  0.00  0.00    +0.000 C 
ENDBRANCH  16  17
ENDBRANCH  15  16
ENDBRANCH   3  15
TORSDOF 6
ENDMDL
MODEL 4
REMARK VINA RESULT:      -6.7      1.052      1.482
REMARK  Name = 
REMARK  7 active torsions:
REMARK  status: ('A' for Active; 'I' for Inactive)
REMARK    1  A    between atoms: C_1  and  C_2
REMARK    2  A    between atoms: C_2  and  O_3
REMARK    3  A    between atoms: C_2  and  C_11
REMARK    4  A    between atoms: O_3  and  C_4
REMARK    5  A    between atoms: N_13  and  C_14
REMARK    6  A    between atoms: C_14  and  C_15
REMARK    7  A    between atoms: C_15  and  N_16
REMARK                            x       y       z     vdW  Elec       q    Type
REMARK                         _______ _______ _______ _____ _____    ______ ____
ROOT
ATOM      1  C   UNL     1       2.225   3.942  18.516  0.00  0.00    +0.000 C 
ATOM      2  O   UNL     1       1.564   3.157  17.832  0.00  0.00    +0.000 OA
ATOM      3  N   UNL     1       3.574   4.138  18.290  0.00  0.00    +0.000 N 
ATOM      4  H   UNL     1       4.143   4.641  18.962  0.00  0.00    +0.000 HD
ENDROOT
BRANCH   1   6
ATOM      5  C   UNL     1       1.359   3.844  20.880  0.00  0.00    +0.000 C 
ATOM      6  C   UNL     1       1.581   4.738  19.663  0.00  0.00    +0.000 C 
BRANCH   6   7
ATOM      7  O   UNL     1       2.432   5.835  19.998  0.00  0.00    +0.000 OA
BRANCH   7   8
ATOM      8  C   UNL     1       2.065   7.098  19.613  0.00  0.00    +0.000 A 
ATOM      9  C   UNL     1       2.367   7.401  18.279  0.00  0.00    +0.000 A 
ATOM     10  C   UNL     1       2.072   8.659  17.742  0.00  0.00    +0.000 A 
ATOM     11  C   UNL     1       1.469   9.633  18.533  0.00  0.00    +0.000 A 
ATOM     12  C   UNL     1       1.164   9.346  19.860  0.00  0.00    +0.000 A 
ATOM     13  C   UNL     1       1.459   8.089  20.389  0.00  0.00    +0.000 A 
ATOM     14  F   UNL     1       1.154   7.892  21.681  0.00  0.00    +0.000 F 
ENDBRANCH   7   8
ENDBRANCH   6   7
ENDBRANCH   1   6
BRANCH   3  15
ATOM     15  C   UNL     1       4.243   3.367  17.261  0.00  0.00    +0.000 C 
BRANCH  15  16
ATOM     16  C   UNL     1       5.583   3.964  16.803  0.00  0.00    +0.000 C 
BRANCH  16  17
ATOM     17  N   UNL     1       6.067   5.140  17.570  0.00  0.00    +0.000 NA
ATOM     18  C   UNL     1       7.420   4.906  18.113  0.00  0.00    +0.000 C 
ATOM     19  C   UNL     1       7.963   6.129  18.853  0.00  0.00    +0.000 C 
ATOM     20  C   UNL     1       7.970   7.359  17.955  0.00  0.00    +0.000 C 
ATOM     21  C   UNL     1       6.582   7.579  17.370  0.00  0.00    +0.000 C 
ATOM     22  C   UNL     1       6.068   6.317  16.676  0.00  0.00    +0.000 C 
ENDBRANCH  16  17
ENDBRANCH  15  16
ENDBRANCH   3  15
TORSDOF 6
ENDMDL
MODEL 5
REMARK VINA RESULT:      -6.6      2.583      4.766
REMARK  Name = 
REMARK  7 active torsions:
REMARK  status: ('A' for Active; 'I' for Inactive)
REMARK    1  A    between atoms: C_1  and  C_2
REMARK    2  A    between atoms: C_2  and  O_3
REMARK    3  A    between atoms: C_2  and  C_11
REMARK    4  A    between atoms: O_3  and  C_4
REMARK    5  A    between atoms: N_13  and  C_14
REMARK    6  A    between atoms: C_14  and  C_15
REMARK    7  A    between atoms: C_15  and  N_16
REMARK                            x       y       z     vdW  Elec       q    Type
REMARK                         _______ _______ _______ _____ _____    ______ ____
ROOT
ATOM      1  C   UNL     1       4.585   6.245  18.196  0.00  0.00    +0.000 C 
ATOM      2  O   UNL     1       5.197   5.537  19.000  0.00  0.00    +0.000 OA
ATOM      3  N   UNL     1       5.176   6.692  17.031  0.00  0.00    +0.000 N 
ATOM      4  H   UNL     1       4.734   7.413  16.470  0.00  0.00    +0.000 HD
ENDROOT
BRANCH   1   6
ATOM      5  C   UNL     1       2.844   8.025  17.813  0.00  0.00    +0.000 C 
ATOM      6  C   UNL     1       3.131   6.671  18.456  0.00  0.00    +0.000 C 
BRANCH   6   7
ATOM      7  O   UNL     1       2.256   5.673  17.930  0.00  0.00    +0.000 OA
BRANCH   7   8
ATOM      8  C   UNL     1       1.926   4.601  18.717  0.00  0.00    +0.000 A 
ATOM      9  C   UNL     1       2.031   3.362  18.072  0.00  0.00    +0.000 A 
ATOM     10  C   UNL     1       1.709   2.173  18.738  0.00  0.00    +0.000 A 
ATOM     11  C   UNL     1       1.278   2.209  20.061  0.00  0.00    +0.000 A 
ATOM     12  C   UNL     1       1.169   3.433  20.714  0.00  0.00    +0.000 A 
ATOM     13  C   UNL     1       1.493   4.613  20.045  0.00  0.00    +0.000 A 
ATOM     14  F   UNL     1       1.344   5.756  20.733  0.00  0.00    +0.000 F 
ENDBRANCH   7   8
ENDBRANCH   6   7
ENDBRANCH   1   6
BRANCH   3  15
ATOM     15  C   UNL     1       6.565   6.370  16.767  0.00  0.00    +0.000 C 
BRANCH  15  16
ATOM     16  C   UNL     1       6.769   5.026  16.050  0.00  0.00    +0.000 C 
BRANCH  16  17
ATOM     17  N   UNL     1       6.553   5.032  14.581  0.00  0.00    +0.000 NA
ATOM     18  C   UNL     1       7.811   5.289  13.855  0.00  0.00    +0.000 C 
ATOM     19  C   UNL     1       7.622   5.237  12.337  0.00  0.00    +0.000 C 
ATOM     20  C   UNL     1       7.033   3.902  11.901  0.00  0.00    +0.000 C 
ATOM     21  C   UNL     1       5.752   3.624  12.675  0.00  0.00    +0.000 C 
ATOM     22  C   UNL     1       5.986   3.727  14.183  0.00  0.00    +0.000 C 
ENDBRANCH  16  17
ENDBRANCH  15  16
ENDBRANCH   3  15
TORSDOF 6
ENDMDL
MODEL 6
REMARK VINA RESULT:      -6.6      2.741      4.576
REMARK  Name = 
REMARK  7 active torsions:
REMARK  status: ('A' for Active; 'I' for Inactive)
REMARK    1  A    between atoms: C_1  and  C_2
REMARK    2  A    between atoms: C_2  and  O_3
REMARK    3  A    between atoms: C_2  and  C_11
REMARK    4  A    between atoms: O_3  and  C_4
REMARK    5  A    between atoms: N_13  and  C_14
REMARK    6  A    between atoms: C_14  and  C_15
REMARK    7  A    between atoms: C_15  and  N_16
REMARK                            x       y       z     vdW  Elec       q    Type
REMARK                         _______ _______ _______ _____ _____    ______ ____
ROOT
ATOM      1  C   UNL     1       4.242   6.241  17.372  0.00  0.00    +0.000 C 
ATOM      2  O   UNL     1       4.488   6.915  16.369  0.00  0.00    +0.000 OA
ATOM      3  N   UNL     1       5.003   5.137  17.705  0.00  0.00    +0.000 N 
ATOM      4  H   UNL     1       4.689   4.490  18.421  0.00  0.00    +0.000 HD
ENDROOT
BRANCH   1   6
ATOM      5  C   UNL     1       2.629   8.039  18.087  0.00  0.00    +0.000 C 
ATOM      6  C   UNL     1       3.069   6.594  18.302  0.00  0.00    +0.000 C 
BRANCH   6   7
ATOM      7  O   UNL     1       1.988   5.699  18.040  0.00  0.00    +0.000 OA
BRANCH   7   8
ATOM      8  C   UNL     1       1.869   4.565  18.800  0.00  0.00    +0.000 A 
ATOM      9  C   UNL     1       1.592   4.806  20.152  0.00  0.00    +0.000 A 
ATOM     10  C   UNL     1       1.462   3.749  21.061  0.00  0.00    +0.000 A 
ATOM     11  C   UNL     1       1.607   2.434  20.628  0.00  0.00    +0.000 A 
ATOM     12  C   UNL     1       1.883   2.179  19.287  0.00  0.00    +0.000 A 
ATOM     13  C   UNL     1       2.010   3.237  18.387  0.00  0.00    +0.000 A 
ATOM     14  F   UNL     1       2.295   2.916  17.115  0.00  0.00    +0.000 F 
ENDBRANCH   7   8
ENDBRANCH   6   7
ENDBRANCH   1   6
BRANCH   3  15
ATOM     15  C   UNL     1       6.082   4.725  16.829  0.00  0.00    +0.000 C 
BRANCH  15  16
ATOM     16  C   UNL     1       5.632   3.837  15.657  0.00  0.00    +0.000 C 
BRANCH  16  17
ATOM     17  N   UNL     1       6.523   3.827  14.470  0.00  0.00    +0.000 NA
ATOM     18  C   UNL     1       5.780   3.475  13.245  0.00  0.00    +0.000 C 
ATOM     19  C   UNL     1       6.667   3.520  11.999  0.00  0.00    +0.000 C 
ATOM     20  C   UNL     1       7.320   4.886  11.836  0.00  0.00    +0.000 C 
ATOM     21  C   UNL     1       8.059   5.261  13.113  0.00  0.00    +0.000 C 
ATOM     22  C   UNL     1       7.140   5.163  14.332  0.00  0.00    +0.000 C 
ENDBRANCH  16  17
ENDBRANCH  15  16
ENDBRANCH   3  15
TORSDOF 6
ENDMDL
MODEL 7
REMARK VINA RESULT:      -6.5      3.301      7.082
REMARK  Name = 
REMARK  7 active torsions:
REMARK  status: ('A' for Active; 'I' for Inactive)
REMARK    1  A    between atoms: C_1  and  C_2
REMARK    2  A    between atoms: C_2  and  O_3
REMARK    3  A    between atoms: C_2  and  C_11
REMARK    4  A    between atoms: O_3  and  C_4
REMARK    5  A    between atoms: N_13  and  C_14
REMARK    6  A    between atoms: C_14  and  C_15
REMARK    7  A    between atoms: C_15  and  N_16
REMARK                            x       y       z     vdW  Elec       q    Type
REMARK                         _______ _______ _______ _____ _____    ______ ____
ROOT
ATOM      1  C   UNL     1       5.594   6.564  16.467  0.00  0.00    +0.000 C 
ATOM      2  O   UNL     1       5.022   7.067  15.497  0.00  0.00    +0.000 OA
ATOM      3  N   UNL     1       4.907   6.222  17.615  0.00  0.00    +0.000 N 
ATOM      4  H   UNL     1       5.406   5.980  18.464  0.00  0.00    +0.000 HD
ENDROOT
BRANCH   1   6
ATOM      5  C   UNL     1       7.704   6.484  17.840  0.00  0.00    +0.000 C 
ATOM      6  C   UNL     1       7.109   6.298  16.448  0.00  0.00    +0.000 C 
BRANCH   6   7
ATOM      7  O   UNL     1       7.338   4.968  15.981  0.00  0.00    +0.000 OA
BRANCH   7   8
ATOM      8  C   UNL     1       7.088   4.677  14.665  0.00  0.00    +0.000 A 
ATOM      9  C   UNL     1       6.000   3.819  14.463  0.00  0.00    +0.000 A 
ATOM     10  C   UNL     1       5.630   3.413  13.176  0.00  0.00    +0.000 A 
ATOM     11  C   UNL     1       6.347   3.862  12.070  0.00  0.00    +0.000 A 
ATOM     12  C   UNL     1       7.431   4.715  12.255  0.00  0.00    +0.000 A 
ATOM     13  C   UNL     1       7.792   5.117  13.541  0.00  0.00    +0.000 A 
ATOM     14  F   UNL     1       8.860   5.924  13.643  0.00  0.00    +0.000 F 
ENDBRANCH   7   8
ENDBRANCH   6   7
ENDBRANCH   1   6
BRANCH   3  15
ATOM     15  C   UNL     1       3.489   6.508  17.708  0.00  0.00    +0.000 C 
BRANCH  15  16
ATOM     16  C   UNL     1       2.922   6.406  19.133  0.00  0.00    +0.000 C 
BRANCH  16  17
ATOM     17  N   UNL     1       1.989   5.278  19.384  0.00  0.00    +0.000 NA
ATOM     18  C   UNL     1       2.045   4.285  18.294  0.00  0.00    +0.000 C 
ATOM     19  C   UNL     1       1.137   3.083  18.563  0.00  0.00    +0.000 C 
ATOM     20  C   UNL     1       1.481   2.419  19.889  0.00  0.00    +0.000 C 
ATOM     21  C   UNL     1       1.456   3.452  21.007  0.00  0.00    +0.000 C 
ATOM     22  C   UNL     1       2.347   4.649  20.672  0.00  0.00    +0.000 C 
ENDBRANCH  16  17
ENDBRANCH  15  16
ENDBRANCH   3  15
TORSDOF 6
ENDMDL
MODEL 8
REMARK VINA RESULT:      -6.5      3.329      7.077
REMARK  Name = 
REMARK  7 active torsions:
REMARK  status: ('A' for Active; 'I' for Inactive)
REMARK    1  A    between atoms: C_1  and  C_2
REMARK    2  A    between atoms: C_2  and  O_3
REMARK    3  A    between atoms: C_2  and  C_11
REMARK    4  A    between atoms: O_3  and  C_4
REMARK    5  A    between atoms: N_13  and  C_14
REMARK    6  A    between atoms: C_14  and  C_15
REMARK    7  A    between atoms: C_15  and  N_16
REMARK                            x       y       z     vdW  Elec       q    Type
REMARK                         _______ _______ _______ _____ _____    ______ ____
ROOT
ATOM      1  C   UNL     1       6.808   5.120  17.807  0.00  0.00    +0.000 C 
ATOM      2  O   UNL     1       7.792   4.430  18.083  0.00  0.00    +0.000 OA
ATOM      3  N   UNL     1       5.655   5.073  18.567  0.00  0.00    +0.000 N 
ATOM      4  H   UNL     1       4.798   5.501  18.233  0.00  0.00    +0.000 HD
ENDROOT
BRANCH   1   6
ATOM      5  C   UNL     1       7.276   7.462  17.005  0.00  0.00    +0.000 C 
ATOM      6  C   UNL     1       6.814   6.067  16.595  0.00  0.00    +0.000 C 
BRANCH   6   7
ATOM      7  O   UNL     1       7.677   5.529  15.593  0.00  0.00    +0.000 OA
BRANCH   7   8
ATOM      8  C   UNL     1       7.122   4.902  14.509  0.00  0.00    +0.000 A 
ATOM      9  C   UNL     1       7.779   5.159  13.299  0.00  0.00    +0.000 A 
ATOM     10  C   UNL     1       7.319   4.605  12.098  0.00  0.00    +0.000 A 
ATOM     11  C   UNL     1       6.194   3.785  12.092  0.00  0.00    +0.000 A 
ATOM     12  C   UNL     1       5.531   3.522  13.287  0.00  0.00    +0.000 A 
ATOM     13  C   UNL     1       5.995   4.076  14.480  0.00  0.00    +0.000 A 
ATOM     14  F   UNL     1       5.294   3.793  15.590  0.00  0.00    +0.000 F 
ENDBRANCH   7   8
ENDBRANCH   6   7
ENDBRANCH   1   6
BRANCH   3  15
ATOM     15  C   UNL     1       5.576   4.152  19.683  0.00  0.00    +0.000 C 
BRANCH  15  16
ATOM     16  C   UNL     1       4.630   2.963  19.448  0.00  0.00    +0.000 C 
BRANCH  16  17
ATOM     17  N   UNL     1       3.200   3.301  19.234  0.00  0.00    +0.000 NA
ATOM     18  C   UNL     1       2.415   2.105  18.871  0.00  0.00    +0.000 C 
ATOM     19  C   UNL     1       0.927   2.421  18.708  0.00  0.00    +0.000 C 
ATOM     20  C   UNL     1       0.356   3.053  19.970  0.00  0.00    +0.000 C 
ATOM     21  C   UNL     1       1.187   4.267  20.361  0.00  0.00    +0.000 C 
ATOM     22  C   UNL     1       2.670   3.908  20.473  0.00  0.00    +0.000 C 
ENDBRANCH  16  17
ENDBRANCH  15  16
ENDBRANCH   3  15
TORSDOF 6
ENDMDL
MODEL 9
REMARK VINA RESULT:      -6.5      3.631      5.622
REMARK  Name = 
REMARK  7 active torsions:
REMARK  status: ('A' for Active; 'I' for Inactive)
REMARK    1  A    between atoms: C_1  and  C_2
REMARK    2  A    between atoms: C_2  and  O_3
REMARK    3  A    between atoms: C_2  and  C_11
REMARK    4  A    between atoms: O_3  and  C_4
REMARK    5  A    between atoms: N_13  and  C_14
REMARK    6  A    between atoms: C_14  and  C_15
REMARK    7  A    between atoms: C_15  and  N_16
REMARK                            x       y       z     vdW  Elec       q    Type
REMARK                         _______ _______ _______ _____ _____    ______ ____
ROOT
ATOM      1  C   UNL     1       6.637   6.514  17.712  0.00  0.00    +0.000 C 
ATOM      2  O   UNL     1       7.301   5.918  18.564  0.00  0.00    +0.000 OA
ATOM      3  N   UNL     1       7.010   7.761  17.247  0.00  0.00    +0.000 N 
ATOM      4  H   UNL     1       6.371   8.317  16.689  0.00  0.00    +0.000 HD
ENDROOT
BRANCH   1   6
ATOM      5  C   UNL     1       5.528   5.605  15.641  0.00  0.00    +0.000 C 
ATOM      6  C   UNL     1       5.354   5.900  17.127  0.00  0.00    +0.000 C 
BRANCH   6   7
ATOM      7  O   UNL     1       5.049   4.702  17.842  0.00  0.00    +0.000 OA
BRANCH   7   8
ATOM      8  C   UNL     1       3.800   4.557  18.388  0.00  0.00    +0.000 A 
ATOM      9  C   UNL     1       3.664   5.116  19.664  0.00  0.00    +0.000 A 
ATOM     10  C   UNL     1       2.453   5.033  20.362  0.00  0.00    +0.000 A 
ATOM     11  C   UNL     1       1.360   4.387  19.790  0.00  0.00    +0.000 A 
ATOM     12  C   UNL     1       1.482   3.826  18.522  0.00  0.00    +0.000 A 
ATOM     13  C   UNL     1       2.691   3.915  17.832  0.00  0.00    +0.000 A 
ATOM     14  F   UNL     1       2.739   3.334  16.622  0.00  0.00    +0.000 F 
ENDBRANCH   7   8
ENDBRANCH   6   7
ENDBRANCH   1   6
BRANCH   3  15
ATOM     15  C   UNL     1       8.177   8.411  17.810  0.00  0.00    +0.000 C 
BRANCH  15  16
ATOM     16  C   UNL     1       8.040   9.936  17.944  0.00  0.00    +0.000 C 
BRANCH  16  17
ATOM     17  N   UNL     1       9.274  10.669  18.325  0.00  0.00    +0.000 NA
ATOM     18  C   UNL     1       9.259  12.050  17.805  0.00  0.00    +0.000 C 
ATOM     19  C   UNL     1      10.493  12.843  18.240  0.00  0.00    +0.000 C 
ATOM     20  C   UNL     1      10.629  12.861  19.756  0.00  0.00    +0.000 C 
ATOM     21  C   UNL     1      10.611  11.437  20.294  0.00  0.00    +0.000 C 
ATOM     22  C   UNL     1       9.380  10.676  19.800  0.00  0.00    +0.000 C 
ENDBRANCH  16  17
ENDBRANCH  15  16
ENDBRANCH   3  15
TORSDOF 6
ENDMDL
