MODEL 1
REMARK VINA RESULT:      -6.5      0.000      0.000
REMARK  Name = 
REMARK  11 active torsions:
REMARK  status: ('A' for Active; 'I' for Inactive)
REMARK    1  A    between atoms: C_1  and  O_2
REMARK    2  A    between atoms: O_2  and  C_3
REMARK    3  A    between atoms: C_3  and  C_4
REMARK    4  A    between atoms: N_8  and  C_9
REMARK    5  A    between atoms: C_11  and  C_12
REMARK    6  A    between atoms: C_14  and  C_15
REMARK    7  A    between atoms: C_15  and  C_17
REMARK    8  A    between atoms: C_18  and  C_19
REMARK    9  A    between atoms: C_21  and  C_22
REMARK   10  A    between atoms: C_24  and  C_25
REMARK   11  A    between atoms: C_26  and  C_27
REMARK                            x       y       z     vdW  Elec       q    Type
REMARK                         _______ _______ _______ _____ _____    ______ ____
ROOT
ATOM      1  C   UNL     1      -4.338  12.399  19.676  0.00  0.00    +0.000 A 
ATOM      2  N   UNL     1      -4.268  11.912  18.414  0.00  0.00    +0.000 NA
ATOM      3  C   UNL     1      -3.087  11.594  17.875  0.00  0.00    +0.000 A 
ATOM      4  C   UNL     1      -3.073  10.977  16.513  0.00  0.00    +0.000 C 
ATOM      5  N   UNL     1      -1.927  11.729  18.502  0.00  0.00    +0.000 NA
ATOM      6  C   UNL     1      -1.991  12.161  19.781  0.00  0.00    +0.000 A 
ATOM      7  C   UNL     1      -3.176  12.541  20.428  0.00  0.00    +0.000 A 
ATOM      8  C   UNL     1      -3.160  13.052  21.834  0.00  0.00    +0.000 C 
ENDROOT
BRANCH   1  13
ATOM      9  C   UNL     1      -6.847  12.037  20.111  0.00  0.00    +0.000 C 
ATOM     10  C   UNL     1      -7.774  12.804  19.159  0.00  0.00    +0.000 C 
ATOM     11  C   UNL     1      -7.444  14.244  19.486  0.00  0.00    +0.000 C 
ATOM     12  C   UNL     1      -5.930  14.216  19.667  0.00  0.00    +0.000 C 
ATOM     13  N   UNL     1      -5.590  12.836  20.100  0.00  0.00    +0.000 N 
BRANCH   9  14
ATOM     14  C   UNL     1      -6.880  10.536  19.816  0.00  0.00    +0.000 C 
BRANCH  14  16
ATOM     15  C   UNL     1      -7.531   8.405  20.545  0.00  0.00    +0.000 C 
ATOM     16  O   UNL     1      -7.782   9.803  20.638  0.00  0.00    +0.000 OA
ENDBRANCH  14  16
ENDBRANCH   9  14
ENDBRANCH   1  13
BRANCH   6  17
ATOM     17  C   UNL     1      -0.658  12.079  20.496  0.00  0.00    +0.000 C 
ATOM     18  O   UNL     1      -0.093  13.079  20.931  0.00  0.00    +0.000 OA
BRANCH  17  19
ATOM     19  C   UNL     1       0.005  10.739  20.675  0.00  0.00    +0.000 A 
ATOM     20  C   UNL     1      -0.226   9.956  21.833  0.00  0.00    +0.000 A 
ATOM     21  C   UNL     1      -0.991  10.413  23.047  0.00  0.00    +0.000 C 
ATOM     22  C   UNL     1       0.285   8.647  21.886  0.00  0.00    +0.000 A 
ATOM     23  C   UNL     1       1.068   8.127  20.857  0.00  0.00    +0.000 A 
ATOM     24  C   UNL     1       1.543   6.705  20.897  0.00  0.00    +0.000 C 
ATOM     25  C   UNL     1       1.391   8.946  19.772  0.00  0.00    +0.000 A 
ATOM     26  C   UNL     1       0.871  10.251  19.663  0.00  0.00    +0.000 A 
ATOM     27  C   UNL     1       1.299  11.075  18.475  0.00  0.00    +0.000 C 
ENDBRANCH  17  19
ENDBRANCH   6  17
TORSDOF 5
ENDMDL
MODEL 2
REMARK VINA RESULT:      -6.3      1.259      2.372
REMARK  Name = 
REMARK  11 active torsions:
REMARK  status: ('A' for Active; 'I' for Inactive)
REMARK    1  A    between atoms: C_1  and  O_2
REMARK    2  A    between atoms: O_2  and  C_3
REMARK    3  A    between atoms: C_3  and  C_4
REMARK    4  A    between atoms: N_8  and  C_9
REMARK    5  A    between atoms: C_11  and  C_12
REMARK    6  A    between atoms: C_14  and  C_15
REMARK    7  A    between atoms: C_15  and  C_17
REMARK    8  A    between atoms: C_18  and  C_19
REMARK    9  A    between atoms: C_21  and  C_22
REMARK   10  A    between atoms: C_24  and  C_25
REMARK   11  A    between atoms: C_26  and  C_27
REMARK                            x       y       z     vdW  Elec       q    Type
REMARK                         _______ _______ _______ _____ _____    ______ ____
ROOT
ATOM      1  C   UNL     1      -2.967  12.591  20.408  0.00  0.00    +0.000 A 
ATOM      2  N   UNL     1      -3.236  12.227  19.131  0.00  0.00    +0.000 NA
ATOM      3  C   UNL     1      -2.293  11.652  18.378  0.00  0.00    +0.000 A 
ATOM      4  C   UNL     1      -2.666  11.188  17.007  0.00  0.00    +0.000 C 
ATOM      5  N   UNL     1      -1.059  11.406  18.797  0.00  0.00    +0.000 NA
ATOM      6  C   UNL     1      -0.799  11.716  20.087  0.00  0.00    +0.000 A 
ATOM      7  C   UNL     1      -1.711  12.340  20.949  0.00  0.00    +0.000 A 
ATOM      8  C   UNL     1      -1.332  12.691  22.353  0.00  0.00    +0.000 C 
ENDROOT
BRANCH   1  13
ATOM      9  C   UNL     1      -5.427  13.047  21.006  0.00  0.00    +0.000 C 
ATOM     10  C   UNL     1      -6.003  14.331  20.396  0.00  0.00    +0.000 C 
ATOM     11  C   UNL     1      -5.156  15.401  21.048  0.00  0.00    +0.000 C 
ATOM     12  C   UNL     1      -3.761  14.782  21.047  0.00  0.00    +0.000 C 
ATOM     13  N   UNL     1      -3.963  13.310  21.066  0.00  0.00    +0.000 N 
BRANCH   9  14
ATOM     14  C   UNL     1      -6.023  11.807  20.336  0.00  0.00    +0.000 C 
BRANCH  14  16
ATOM     15  C   UNL     1      -7.490   9.982  20.464  0.00  0.00    +0.000 C 
ATOM     16  O   UNL     1      -6.851  11.027  21.191  0.00  0.00    +0.000 OA
ENDBRANCH  14  16
ENDBRANCH   9  14
ENDBRANCH   1  13
BRANCH   6  17
ATOM     17  C   UNL     1       0.550  11.207  20.551  0.00  0.00    +0.000 C 
ATOM     18  O   UNL     1       1.387  11.953  21.053  0.00  0.00    +0.000 OA
BRANCH  17  19
ATOM     19  C   UNL     1       0.888   9.749  20.388  0.00  0.00    +0.000 A 
ATOM     20  C   UNL     1       1.547   9.274  19.227  0.00  0.00    +0.000 A 
ATOM     21  C   UNL     1       1.830  10.096  17.997  0.00  0.00    +0.000 C 
ATOM     22  C   UNL     1       1.984   7.938  19.187  0.00  0.00    +0.000 A 
ATOM     23  C   UNL     1       1.723   7.054  20.232  0.00  0.00    +0.000 A 
ATOM     24  C   UNL     1       2.260   5.653  20.205  0.00  0.00    +0.000 C 
ATOM     25  C   UNL     1       0.969   7.496  21.321  0.00  0.00    +0.000 A 
ATOM     26  C   UNL     1       0.543   8.835  21.417  0.00  0.00    +0.000 A 
ATOM     27  C   UNL     1      -0.294   9.217  22.612  0.00  0.00    +0.000 C 
ENDBRANCH  17  19
ENDBRANCH   6  17
TORSDOF 5
ENDMDL
MODEL 3
REMARK VINA RESULT:      -6.2      5.728      9.264
REMARK  Name = 
REMARK  11 active torsions:
REMARK  status: ('A' for Active; 'I' for Inactive)
REMARK    1  A    between atoms: C_1  and  O_2
REMARK    2  A    between atoms: O_2  and  C_3
REMARK    3  A    between atoms: C_3  and  C_4
REMARK    4  A    between atoms: N_8  and  C_9
REMARK    5  A    between atoms: C_11  and  C_12
REMARK    6  A    between atoms: C_14  and  C_15
REMARK    7  A    between atoms: C_15  and  C_17
REMARK    8  A    between atoms: C_18  and  C_19
REMARK    9  A    between atoms: C_21  and  C_22
REMARK   10  A    between atoms: C_24  and  C_25
REMARK   11  A    between atoms: C_26  and  C_27
REMARK                            x       y       z     vdW  Elec       q    Type
REMARK                         _______ _______ _______ _____ _____    ______ ____
ROOT
ATOM      1  C   UNL     1       2.503   6.917  19.286  0.00  0.00    +0.000 A 
ATOM      2  N   UNL     1       1.576   6.118  19.867  0.00  0.00    +0.000 NA
ATOM      3  C   UNL     1       1.774   4.798  19.944  0.00  0.00    +0.000 A 
ATOM      4  C   UNL     1       0.764   3.972  20.674  0.00  0.00    +0.000 C 
ATOM      5  N   UNL     1       2.847   4.181  19.469  0.00  0.00    +0.000 NA
ATOM      6  C   UNL     1       3.802   4.977  18.938  0.00  0.00    +0.000 A 
ATOM      7  C   UNL     1       3.680   6.366  18.792  0.00  0.00    +0.000 A 
ATOM      8  C   UNL     1       4.765   7.174  18.152  0.00  0.00    +0.000 C 
ENDROOT
BRANCH   1  13
ATOM      9  C   UNL     1       1.418   9.100  20.109  0.00  0.00    +0.000 C 
ATOM     10  C   UNL     1       0.130   9.487  19.374  0.00  0.00    +0.000 C 
ATOM     11  C   UNL     1       0.624   9.712  17.962  0.00  0.00    +0.000 C 
ATOM     12  C   UNL     1       1.636   8.586  17.769  0.00  0.00    +0.000 C 
ATOM     13  N   UNL     1       2.148   8.254  19.124  0.00  0.00    +0.000 N 
BRANCH   9  14
ATOM     14  C   UNL     1       1.117   8.640  21.538  0.00  0.00    +0.000 C 
BRANCH  14  16
ATOM     15  C   UNL     1      -0.112   9.643  23.265  0.00  0.00    +0.000 C 
ATOM     16  O   UNL     1       1.083   9.695  22.492  0.00  0.00    +0.000 OA
ENDBRANCH  14  16
ENDBRANCH   9  14
ENDBRANCH   1  13
BRANCH   6  17
ATOM     17  C   UNL     1       5.080   4.229  18.622  0.00  0.00    +0.000 C 
ATOM     18  O   UNL     1       5.682   3.584  19.476  0.00  0.00    +0.000 OA
BRANCH  17  19
ATOM     19  C   UNL     1       5.640   4.279  17.225  0.00  0.00    +0.000 A 
ATOM     20  C   UNL     1       4.858   3.897  16.107  0.00  0.00    +0.000 A 
ATOM     21  C   UNL     1       3.492   3.266  16.183  0.00  0.00    +0.000 C 
ATOM     22  C   UNL     1       5.365   4.111  14.813  0.00  0.00    +0.000 A 
ATOM     23  C   UNL     1       6.644   4.623  14.606  0.00  0.00    +0.000 A 
ATOM     24  C   UNL     1       7.141   4.913  13.221  0.00  0.00    +0.000 C 
ATOM     25  C   UNL     1       7.456   4.885  15.713  0.00  0.00    +0.000 A 
ATOM     26  C   UNL     1       6.974   4.720  17.026  0.00  0.00    +0.000 A 
ATOM     27  C   UNL     1       7.930   4.996  18.159  0.00  0.00    +0.000 C 
ENDBRANCH  17  19
ENDBRANCH   6  17
TORSDOF 5
ENDMDL
MODEL 4
REMARK VINA RESULT:      -6.2      5.666      9.040
REMARK  Name = 
REMARK  11 active torsions:
REMARK  status: ('A' for Active; 'I' for Inactive)
REMARK    1  A    between atoms: C_1  and  O_2
REMARK    2  A    between atoms: O_2  and  C_3
REMARK    3  A    between atoms: C_3  and  C_4
REMARK    4  A    between atoms: N_8  and  C_9
REMARK    5  A    between atoms: C_11  and  C_12
REMARK    6  A    between atoms: C_14  and  C_15
REMARK    7  A    between atoms: C_15  and  C_17
REMARK    8  A    between atoms: C_18  and  C_19
REMARK    9  A    between atoms: C_21  and  C_22
REMARK   10  A    between atoms: C_24  and  C_25
REMARK   11  A    between atoms: C_26  and  C_27
REMARK                            x       y       z     vdW  Elec       q    Type
REMARK                         _______ _______ _______ _____ _____    ______ ____
ROOT
ATOM      1  C   UNL     1       2.430   7.269  19.254  0.00  0.00    +0.000 A 
ATOM      2  N   UNL     1       1.670   6.400  19.962  0.00  0.00    +0.000 NA
ATOM      3  C   UNL     1       2.037   5.120  20.078  0.00  0.00    +0.000 A 
ATOM      4  C   UNL     1       1.212   4.222  20.944  0.00  0.00    +0.000 C 
ATOM      5  N   UNL     1       3.127   4.608  19.524  0.00  0.00    +0.000 NA
ATOM      6  C   UNL     1       3.920   5.481  18.863  0.00  0.00    +0.000 A 
ATOM      7  C   UNL     1       3.614   6.835  18.668  0.00  0.00    +0.000 A 
ATOM      8  C   UNL     1       4.523   7.728  17.884  0.00  0.00    +0.000 C 
ENDROOT
BRANCH   1  13
ATOM      9  C   UNL     1       1.200   9.366  20.096  0.00  0.00    +0.000 C 
ATOM     10  C   UNL     1      -0.208   9.552  19.517  0.00  0.00    +0.000 C 
ATOM     11  C   UNL     1       0.076   9.736  18.043  0.00  0.00    +0.000 C 
ATOM     12  C   UNL     1       1.184   8.721  17.778  0.00  0.00    +0.000 C 
ATOM     13  N   UNL     1       1.898   8.543  19.070  0.00  0.00    +0.000 N 
BRANCH   9  14
ATOM     14  C   UNL     1       1.137   8.974  21.574  0.00  0.00    +0.000 C 
BRANCH  14  16
ATOM     15  C   UNL     1      -0.372   9.737  23.197  0.00  0.00    +0.000 C 
ATOM     16  O   UNL     1      -0.185   8.863  22.089  0.00  0.00    +0.000 OA
ENDBRANCH  14  16
ENDBRANCH   9  14
ENDBRANCH   1  13
BRANCH   6  17
ATOM     17  C   UNL     1       5.245   4.873  18.451  0.00  0.00    +0.000 C 
ATOM     18  O   UNL     1       6.066   4.487  19.278  0.00  0.00    +0.000 OA
BRANCH  17  19
ATOM     19  C   UNL     1       5.576   4.741  16.988  0.00  0.00    +0.000 A 
ATOM     20  C   UNL     1       6.684   5.421  16.423  0.00  0.00    +0.000 A 
ATOM     21  C   UNL     1       7.529   6.442  17.140  0.00  0.00    +0.000 C 
ATOM     22  C   UNL     1       7.051   5.145  15.094  0.00  0.00    +0.000 A 
ATOM     23  C   UNL     1       6.310   4.272  14.300  0.00  0.00    +0.000 A 
ATOM     24  C   UNL     1       6.757   3.932  12.909  0.00  0.00    +0.000 C 
ATOM     25  C   UNL     1       5.150   3.697  14.825  0.00  0.00    +0.000 A 
ATOM     26  C   UNL     1       4.767   3.919  16.163  0.00  0.00    +0.000 A 
ATOM     27  C   UNL     1       3.484   3.284  16.636  0.00  0.00    +0.000 C 
ENDBRANCH  17  19
ENDBRANCH   6  17
TORSDOF 5
ENDMDL
MODEL 5
REMARK VINA RESULT:      -6.0      1.889      2.942
REMARK  Name = 
REMARK  11 active torsions:
REMARK  status: ('A' for Active; 'I' for Inactive)
REMARK    1  A    between atoms: C_1  and  O_2
REMARK    2  A    between atoms: O_2  and  C_3
REMARK    3  A    between atoms: C_3  and  C_4
REMARK    4  A    between atoms: N_8  and  C_9
REMARK    5  A    between atoms: C_11  and  C_12
REMARK    6  A    between atoms: C_14  and  C_15
REMARK    7  A    between atoms: C_15  and  C_17
REMARK    8  A    between atoms: C_18  and  C_19
REMARK    9  A    between atoms: C_21  and  C_22
REMARK   10  A    between atoms: C_24  and  C_25
REMARK   11  A    between atoms: C_26  and  C_27
REMARK                            x       y       z     vdW  Elec       q    Type
REMARK                         _______ _______ _______ _____ _____    ______ ____
ROOT
ATOM      1  C   UNL     1      -4.985  11.444  18.160  0.00  0.00    +0.000 A 
ATOM      2  N   UNL     1      -4.757  10.944  16.922  0.00  0.00    +0.000 NA
ATOM      3  C   UNL     1      -3.545  11.037  16.367  0.00  0.00    +0.000 A 
ATOM      4  C   UNL     1      -3.323  10.390  15.037  0.00  0.00    +0.000 C 
ATOM      5  N   UNL     1      -2.504  11.611  16.954  0.00  0.00    +0.000 NA
ATOM      6  C   UNL     1      -2.708  12.063  18.211  0.00  0.00    +0.000 A 
ATOM      7  C   UNL     1      -3.944  12.031  18.871  0.00  0.00    +0.000 A 
ATOM      8  C   UNL     1      -4.100  12.593  20.249  0.00  0.00    +0.000 C 
ENDROOT
BRANCH   1  13
ATOM      9  C   UNL     1      -7.154  12.619  18.890  0.00  0.00    +0.000 C 
ATOM     10  C   UNL     1      -7.488  12.469  20.379  0.00  0.00    +0.000 C 
ATOM     11  C   UNL     1      -7.696  10.977  20.510  0.00  0.00    +0.000 C 
ATOM     12  C   UNL     1      -6.595  10.398  19.627  0.00  0.00    +0.000 C 
ATOM     13  N   UNL     1      -6.308  11.429  18.596  0.00  0.00    +0.000 N 
BRANCH   9  14
ATOM     14  C   UNL     1      -6.717  14.050  18.567  0.00  0.00    +0.000 C 
BRANCH  14  16
ATOM     15  C   UNL     1      -7.166  14.354  16.286  0.00  0.00    +0.000 C 
ATOM     16  O   UNL     1      -7.543  14.707  17.613  0.00  0.00    +0.000 OA
ENDBRANCH  14  16
ENDBRANCH   9  14
ENDBRANCH   1  13
BRANCH   6  17
ATOM     17  C   UNL     1      -1.427  12.501  18.891  0.00  0.00    +0.000 C 
ATOM     18  O   UNL     1      -0.780  13.467  18.495  0.00  0.00    +0.000 OA
BRANCH  17  19
ATOM     19  C   UNL     1      -0.921  11.732  20.083  0.00  0.00    +0.000 A 
ATOM     20  C   UNL     1      -0.987  12.277  21.389  0.00  0.00    +0.000 A 
ATOM     21  C   UNL     1      -1.397  13.689  21.717  0.00  0.00    +0.000 C 
ATOM     22  C   UNL     1      -0.653  11.464  22.487  0.00  0.00    +0.000 A 
ATOM     23  C   UNL     1      -0.193  10.160  22.316  0.00  0.00    +0.000 A 
ATOM     24  C   UNL     1       0.089   9.284  23.499  0.00  0.00    +0.000 C 
ATOM     25  C   UNL     1      -0.016   9.669  21.020  0.00  0.00    +0.000 A 
ATOM     26  C   UNL     1      -0.373  10.438  19.894  0.00  0.00    +0.000 A 
ATOM     27  C   UNL     1      -0.118   9.840  18.533  0.00  0.00    +0.000 C 
ENDBRANCH  17  19
ENDBRANCH   6  17
TORSDOF 5
ENDMDL
MODEL 6
REMARK VINA RESULT:      -6.0      2.123      3.709
REMARK  Name = 
REMARK  11 active torsions:
REMARK  status: ('A' for Active; 'I' for Inactive)
REMARK    1  A    between atoms: C_1  and  O_2
REMARK    2  A    between atoms: O_2  and  C_3
REMARK    3  A    between atoms: C_3  and  C_4
REMARK    4  A    between atoms: N_8  and  C_9
REMARK    5  A    between atoms: C_11  and  C_12
REMARK    6  A    between atoms: C_14  and  C_15
REMARK    7  A    between atoms: C_15  and  C_17
REMARK    8  A    between atoms: C_18  and  C_19
REMARK    9  A    between atoms: C_21  and  C_22
REMARK   10  A    between atoms: C_24  and  C_25
REMARK   11  A    between atoms: C_26  and  C_27
REMARK                            x       y       z     vdW  Elec       q    Type
REMARK                         _______ _______ _______ _____ _____    ______ ____
ROOT
ATOM      1  C   UNL     1      -4.221  12.663  21.013  0.00  0.00    +0.000 A 
ATOM      2  N   UNL     1      -4.625  12.608  22.304  0.00  0.00    +0.000 NA
ATOM      3  C   UNL     1      -3.733  12.434  23.285  0.00  0.00    +0.000 A 
ATOM      4  C   UNL     1      -4.219  12.471  24.699  0.00  0.00    +0.000 C 
ATOM      5  N   UNL     1      -2.430  12.298  23.085  0.00  0.00    +0.000 NA
ATOM      6  C   UNL     1      -2.012  12.408  21.804  0.00  0.00    +0.000 A 
ATOM      7  C   UNL     1      -2.868  12.568  20.706  0.00  0.00    +0.000 A 
ATOM      8  C   UNL     1      -2.331  12.636  19.311  0.00  0.00    +0.000 C 
ENDROOT
BRANCH   1  13
ATOM      9  C   UNL     1      -6.022  13.898  19.653  0.00  0.00    +0.000 C 
ATOM     10  C   UNL     1      -7.463  13.518  20.014  0.00  0.00    +0.000 C 
ATOM     11  C   UNL     1      -7.511  12.054  19.635  0.00  0.00    +0.000 C 
ATOM     12  C   UNL     1      -6.152  11.537  20.095  0.00  0.00    +0.000 C 
ATOM     13  N   UNL     1      -5.230  12.702  20.054  0.00  0.00    +0.000 N 
BRANCH   9  14
ATOM     14  C   UNL     1      -5.692  15.312  20.133  0.00  0.00    +0.000 C 
BRANCH  14  16
ATOM     15  C   UNL     1      -5.352  17.383  19.087  0.00  0.00    +0.000 C 
ATOM     16  O   UNL     1      -6.288  16.343  19.354  0.00  0.00    +0.000 OA
ENDBRANCH  14  16
ENDBRANCH   9  14
ENDBRANCH   1  13
BRANCH   6  17
ATOM     17  C   UNL     1      -0.504  12.462  21.682  0.00  0.00    +0.000 C 
ATOM     18  O   UNL     1       0.167  13.295  22.287  0.00  0.00    +0.000 OA
BRANCH  17  19
ATOM     19  C   UNL     1       0.203  11.477  20.790  0.00  0.00    +0.000 A 
ATOM     20  C   UNL     1       0.215  10.092  21.091  0.00  0.00    +0.000 A 
ATOM     21  C   UNL     1      -0.307   9.480  22.364  0.00  0.00    +0.000 C 
ATOM     22  C   UNL     1       0.746   9.192  20.150  0.00  0.00    +0.000 A 
ATOM     23  C   UNL     1       1.323   9.635  18.962  0.00  0.00    +0.000 A 
ATOM     24  C   UNL     1       1.819   8.658  17.938  0.00  0.00    +0.000 C 
ATOM     25  C   UNL     1       1.416  11.009  18.725  0.00  0.00    +0.000 A 
ATOM     26  C   UNL     1       0.864  11.943  19.624  0.00  0.00    +0.000 A 
ATOM     27  C   UNL     1       1.039  13.406  19.305  0.00  0.00    +0.000 C 
ENDBRANCH  17  19
ENDBRANCH   6  17
TORSDOF 5
ENDMDL
MODEL 7
REMARK VINA RESULT:      -6.0      1.964      3.381
REMARK  Name = 
REMARK  11 active torsions:
REMARK  status: ('A' for Active; 'I' for Inactive)
REMARK    1  A    between atoms: C_1  and  O_2
REMARK    2  A    between atoms: O_2  and  C_3
REMARK    3  A    between atoms: C_3  and  C_4
REMARK    4  A    between atoms: N_8  and  C_9
REMARK    5  A    between atoms: C_11  and  C_12
REMARK    6  A    between atoms: C_14  and  C_15
REMARK    7  A    between atoms: C_15  and  C_17
REMARK    8  A    between atoms: C_18  and  C_19
REMARK    9  A    between atoms: C_21  and  C_22
REMARK   10  A    between atoms: C_24  and  C_25
REMARK   11  A    between atoms: C_26  and  C_27
REMARK                            x       y       z     vdW  Elec       q    Type
REMARK                         _______ _______ _______ _____ _____    ______ ____
ROOT
ATOM      1  C   UNL     1      -4.141  12.085  19.095  0.00  0.00    +0.000 A 
ATOM      2  N   UNL     1      -4.040  11.608  17.831  0.00  0.00    +0.000 NA
ATOM      3  C   UNL     1      -2.841  11.439  17.265  0.00  0.00    +0.000 A 
ATOM      4  C   UNL     1      -2.781  10.826  15.903  0.00  0.00    +0.000 C 
ATOM      5  N   UNL     1      -1.693  11.719  17.866  0.00  0.00    +0.000 NA
ATOM      6  C   UNL     1      -1.782  12.142  19.146  0.00  0.00    +0.000 A 
ATOM      7  C   UNL     1      -2.989  12.372  19.820  0.00  0.00    +0.000 A 
ATOM      8  C   UNL     1      -3.005  12.885  21.226  0.00  0.00    +0.000 C 
ENDROOT
BRANCH   1  13
ATOM      9  C   UNL     1      -6.614  11.468  19.441  0.00  0.00    +0.000 C 
ATOM     10  C   UNL     1      -7.596  12.266  18.575  0.00  0.00    +0.000 C 
ATOM     11  C   UNL     1      -7.390  13.678  19.078  0.00  0.00    +0.000 C 
ATOM     12  C   UNL     1      -5.879  13.753  19.279  0.00  0.00    +0.000 C 
ATOM     13  N   UNL     1      -5.428  12.363  19.548  0.00  0.00    +0.000 N 
BRANCH   9  14
ATOM     14  C   UNL     1      -6.520  10.016  18.967  0.00  0.00    +0.000 C 
BRANCH  14  16
ATOM     15  C   UNL     1      -7.764   9.591  20.908  0.00  0.00    +0.000 C 
ATOM     16  O   UNL     1      -7.448   9.140  19.595  0.00  0.00    +0.000 OA
ENDBRANCH  14  16
ENDBRANCH   9  14
ENDBRANCH   1  13
BRANCH   6  17
ATOM     17  C   UNL     1      -0.433  12.230  19.830  0.00  0.00    +0.000 C 
ATOM     18  O   UNL     1      -0.208  11.663  20.896  0.00  0.00    +0.000 OA
BRANCH  17  19
ATOM     19  C   UNL     1       0.667  13.039  19.195  0.00  0.00    +0.000 A 
ATOM     20  C   UNL     1       0.642  14.455  19.217  0.00  0.00    +0.000 A 
ATOM     21  C   UNL     1      -0.511  15.292  19.706  0.00  0.00    +0.000 C 
ATOM     22  C   UNL     1       1.765  15.166  18.756  0.00  0.00    +0.000 A 
ATOM     23  C   UNL     1       2.870  14.513  18.215  0.00  0.00    +0.000 A 
ATOM     24  C   UNL     1       4.087  15.282  17.796  0.00  0.00    +0.000 C 
ATOM     25  C   UNL     1       2.839  13.122  18.086  0.00  0.00    +0.000 A 
ATOM     26  C   UNL     1       1.750  12.370  18.568  0.00  0.00    +0.000 A 
ATOM     27  C   UNL     1       1.786  10.877  18.357  0.00  0.00    +0.000 C 
ENDBRANCH  17  19
ENDBRANCH   6  17
TORSDOF 5
ENDMDL
MODEL 8
REMARK VINA RESULT:      -5.9      3.294      5.148
REMARK  Name = 
REMARK  11 active torsions:
REMARK  status: ('A' for Active; 'I' for Inactive)
REMARK    1  A    between atoms: C_1  and  O_2
REMARK    2  A    between atoms: O_2  and  C_3
REMARK    3  A    between atoms: C_3  and  C_4
REMARK    4  A    between atoms: N_8  and  C_9
REMARK    5  A    between atoms: C_11  and  C_12
REMARK    6  A    between atoms: C_14  and  C_15
REMARK    7  A    between atoms: C_15  and  C_17
REMARK    8  A    between atoms: C_18  and  C_19
REMARK    9  A    between atoms: C_21  and  C_22
REMARK   10  A    between atoms: C_24  and  C_25
REMARK   11  A    between atoms: C_26  and  C_27
REMARK                            x       y       z     vdW  Elec       q    Type
REMARK                         _______ _______ _______ _____ _____    ______ ____
ROOT
ATOM      1  C   UNL     1      -1.693  12.786  23.030  0.00  0.00    +0.000 A 
ATOM      2  N   UNL     1      -1.160  11.590  23.377  0.00  0.00    +0.000 NA
ATOM      3  C   UNL     1      -0.666  10.772  22.442  0.00  0.00    +0.000 A 
ATOM      4  C   UNL     1      -0.008   9.505  22.885  0.00  0.00    +0.000 C 
ATOM      5  N   UNL     1      -0.662  11.047  21.145  0.00  0.00    +0.000 NA
ATOM      6  C   UNL     1      -1.141  12.262  20.795  0.00  0.00    +0.000 A 
ATOM      7  C   UNL     1      -1.701  13.179  21.697  0.00  0.00    +0.000 A 
ATOM      8  C   UNL     1      -2.251  14.488  21.225  0.00  0.00    +0.000 C 
ENDROOT
BRANCH   1  13
ATOM      9  C   UNL     1      -3.777  13.649  24.267  0.00  0.00    +0.000 C 
ATOM     10  C   UNL     1      -4.017  15.158  24.132  0.00  0.00    +0.000 C 
ATOM     11  C   UNL     1      -2.795  15.737  24.810  0.00  0.00    +0.000 C 
ATOM     12  C   UNL     1      -1.674  14.815  24.342  0.00  0.00    +0.000 C 
ATOM     13  N   UNL     1      -2.311  13.504  24.051  0.00  0.00    +0.000 N 
BRANCH   9  14
ATOM     14  C   UNL     1      -4.817  12.856  23.472  0.00  0.00    +0.000 C 
BRANCH  14  16
ATOM     15  C   UNL     1      -7.115  12.640  23.885  0.00  0.00    +0.000 C 
ATOM     16  O   UNL     1      -5.809  12.230  24.278  0.00  0.00    +0.000 OA
ENDBRANCH  14  16
ENDBRANCH   9  14
ENDBRANCH   1  13
BRANCH   6  17
ATOM     17  C   UNL     1      -0.903  12.589  19.336  0.00  0.00    +0.000 C 
ATOM     18  O   UNL     1      -1.771  12.422  18.483  0.00  0.00    +0.000 OA
BRANCH  17  19
ATOM     19  C   UNL     1       0.436  13.127  18.907  0.00  0.00    +0.000 A 
ATOM     20  C   UNL     1       0.669  14.521  18.808  0.00  0.00    +0.000 A 
ATOM     21  C   UNL     1      -0.388  15.586  18.949  0.00  0.00    +0.000 C 
ATOM     22  C   UNL     1       1.974  14.982  18.561  0.00  0.00    +0.000 A 
ATOM     23  C   UNL     1       3.030  14.098  18.343  0.00  0.00    +0.000 A 
ATOM     24  C   UNL     1       4.428  14.605  18.153  0.00  0.00    +0.000 C 
ATOM     25  C   UNL     1       2.771  12.725  18.323  0.00  0.00    +0.000 A 
ATOM     26  C   UNL     1       1.485  12.222  18.602  0.00  0.00    +0.000 A 
ATOM     27  C   UNL     1       1.289  10.728  18.527  0.00  0.00    +0.000 C 
ENDBRANCH  17  19
ENDBRANCH   6  17
TORSDOF 5
ENDMDL
MODEL 9
REMARK VINA RESULT:      -5.9      1.729      2.107
REMARK  Name = 
REMARK  11 active torsions:
REMARK  status: ('A' for Active; 'I' for Inactive)
REMARK    1  A    between atoms: C_1  and  O_2
REMARK    2  A    between atoms: O_2  and  C_3
REMARK    3  A    between atoms: C_3  and  C_4
REMARK    4  A    between atoms: N_8  and  C_9
REMARK    5  A    between atoms: C_11  and  C_12
REMARK    6  A    between atoms: C_14  and  C_15
REMARK    7  A    between atoms: C_15  and  C_17
REMARK    8  A    between atoms: C_18  and  C_19
REMARK    9  A    between atoms: C_21  and  C_22
REMARK   10  A    between atoms: C_24  and  C_25
REMARK   11  A    between atoms: C_26  and  C_27
REMARK                            x       y       z     vdW  Elec       q    Type
REMARK                         _______ _______ _______ _____ _____    ______ ____
ROOT
ATOM      1  C   UNL     1      -3.632  12.434  19.558  0.00  0.00    +0.000 A 
ATOM      2  N   UNL     1      -3.940  11.522  18.604  0.00  0.00    +0.000 NA
ATOM      3  C   UNL     1      -2.982  10.768  18.055  0.00  0.00    +0.000 A 
ATOM      4  C   UNL     1      -3.386   9.715  17.073  0.00  0.00    +0.000 C 
ATOM      5  N   UNL     1      -1.699  10.850  18.377  0.00  0.00    +0.000 NA
ATOM      6  C   UNL     1      -1.391  11.718  19.367  0.00  0.00    +0.000 A 
ATOM      7  C   UNL     1      -2.317  12.567  19.989  0.00  0.00    +0.000 A 
ATOM      8  C   UNL     1      -1.889  13.533  21.048  0.00  0.00    +0.000 C 
ENDROOT
BRANCH   1  13
ATOM      9  C   UNL     1      -5.258  13.341  21.333  0.00  0.00    +0.000 C 
ATOM     10  C   UNL     1      -6.722  12.939  21.118  0.00  0.00    +0.000 C 
ATOM     11  C   UNL     1      -7.046  13.608  19.801  0.00  0.00    +0.000 C 
ATOM     12  C   UNL     1      -5.776  13.389  18.984  0.00  0.00    +0.000 C 
ATOM     13  N   UNL     1      -4.668  13.270  19.967  0.00  0.00    +0.000 N 
BRANCH   9  14
ATOM     14  C   UNL     1      -4.659  12.608  22.536  0.00  0.00    +0.000 C 
BRANCH  14  16
ATOM     15  C   UNL     1      -4.555  12.333  24.862  0.00  0.00    +0.000 C 
ATOM     16  O   UNL     1      -5.116  13.090  23.794  0.00  0.00    +0.000 OA
ENDBRANCH  14  16
ENDBRANCH   9  14
ENDBRANCH   1  13
BRANCH   6  17
ATOM     17  C   UNL     1       0.047  11.596  19.827  0.00  0.00    +0.000 C 
ATOM     18  O   UNL     1       0.769  12.579  19.965  0.00  0.00    +0.000 OA
BRANCH  17  19
ATOM     19  C   UNL     1       0.618  10.233  20.117  0.00  0.00    +0.000 A 
ATOM     20  C   UNL     1       0.389   9.592  21.359  0.00  0.00    +0.000 A 
ATOM     21  C   UNL     1      -0.280  10.227  22.550  0.00  0.00    +0.000 C 
ATOM     22  C   UNL     1       0.804   8.258  21.527  0.00  0.00    +0.000 A 
ATOM     23  C   UNL     1       1.496   7.578  20.527  0.00  0.00    +0.000 A 
ATOM     24  C   UNL     1       1.867   6.135  20.695  0.00  0.00    +0.000 C 
ATOM     25  C   UNL     1       1.824   8.256  19.350  0.00  0.00    +0.000 A 
ATOM     26  C   UNL     1       1.396   9.579  19.127  0.00  0.00    +0.000 A 
ATOM     27  C   UNL     1       1.823  10.243  17.842  0.00  0.00    +0.000 C 
ENDBRANCH  17  19
ENDBRANCH   6  17
TORSDOF 5
ENDMDL
