MODEL 1
REMARK VINA RESULT:      -7.8      0.000      0.000
REMARK  Name = 
REMARK  19 active torsions:
REMARK  status: ('A' for Active; 'I' for Inactive)
REMARK    1  A    between atoms: C_1  and  C_2
REMARK    2  A    between atoms: C_2  and  C_3
REMARK    3  A    between atoms: C_3  and  C_4
REMARK    4  A    between atoms: C_6  and  C_7
REMARK    5  A    between atoms: C_7  and  O_8
REMARK    6  A    between atoms: C_7  and  C_9
REMARK    7  A    between atoms: C_7  and  C_11
REMARK    8  A    between atoms: C_9  and  C_10
REMARK    9  A    between atoms: C_11  and  C_12
REMARK   10  A    between atoms: C_15  and  C_16
REMARK   11  A    between atoms: C_18  and  O_19
REMARK   12  A    between atoms: O_19  and  C_20
REMARK   13  A    between atoms: C_20  and  C_21
REMARK   14  A    between atoms: C_24  and  C_25
REMARK   15  A    between atoms: C_25  and  O_26
REMARK   16  A    between atoms: C_27  and  C_28
REMARK   17  A    between atoms: C_28  and  O_29
REMARK   18  A    between atoms: C_33  and  C_34
REMARK   19  A    between atoms: C_34  and  C_35
REMARK                            x       y       z     vdW  Elec       q    Type
REMARK                         _______ _______ _______ _____ _____    ______ ____
ROOT
ATOM      1  C   UNL     1       2.367   7.642  18.828  0.00  0.00    +0.000 A 
ATOM      2  C   UNL     1       1.683   8.755  18.299  0.00  0.00    +0.000 A 
ATOM      3  C   UNL     1       0.881   9.598  19.046  0.00  0.00    +0.000 A 
ATOM      4  C   UNL     1       0.593   9.238  20.348  0.00  0.00    +0.000 A 
ATOM      5  C   UNL     1       1.131   8.065  20.883  0.00  0.00    +0.000 A 
ATOM      6  C   UNL     1       2.043   7.263  20.161  0.00  0.00    +0.000 A 
ENDROOT
BRANCH   1  12
ATOM      7  C   UNL     1       3.135   5.598  17.444  0.00  0.00    +0.000 A 
ATOM      8  C   UNL     1       4.214   4.952  16.794  0.00  0.00    +0.000 A 
ATOM      9  C   UNL     1       5.409   5.609  16.447  0.00  0.00    +0.000 A 
ATOM     10  C   UNL     1       5.502   6.960  16.786  0.00  0.00    +0.000 A 
ATOM     11  C   UNL     1       4.500   7.590  17.521  0.00  0.00    +0.000 A 
ATOM     12  C   UNL     1       3.304   6.951  17.883  0.00  0.00    +0.000 A 
BRANCH   7  13
ATOM     13  C   UNL     1       1.907   4.741  17.756  0.00  0.00    +0.000 C 
BRANCH  13  15
ATOM     14  C   UNL     1       0.940   2.554  18.580  0.00  0.00    +0.000 C 
ATOM     15  C   UNL     1       2.080   3.220  17.828  0.00  0.00    +0.000 C 
ENDBRANCH  13  15
ENDBRANCH   7  13
BRANCH   9  16
ATOM     16  C   UNL     1       6.604   4.861  15.839  0.00  0.00    +0.000 C 
BRANCH  16  17
ATOM     17  O   UNL     1       7.383   5.716  14.988  0.00  0.00    +0.000 OA
ATOM     18  H   UNL     1       6.791   6.259  14.450  0.00  0.00    +0.000 HD
ENDBRANCH  16  17
BRANCH  16  19
ATOM     19  C   UNL     1       7.529   4.316  16.967  0.00  0.00    +0.000 C 
ATOM     20  C   UNL     1       7.645   5.176  18.225  0.00  0.00    +0.000 C 
ENDBRANCH  16  19
BRANCH  16  21
ATOM     21  C   UNL     1       6.206   3.664  14.930  0.00  0.00    +0.000 C 
ATOM     22  C   UNL     1       6.392   3.925  13.436  0.00  0.00    +0.000 C 
ENDBRANCH  16  21
ENDBRANCH   9  16
ENDBRANCH   1  12
BRANCH   6  23
ATOM     23  C   UNL     1       2.532   5.965  20.784  0.00  0.00    +0.000 C 
ATOM     24  C   UNL     1       1.518   4.863  21.076  0.00  0.00    +0.000 C 
ENDBRANCH   6  23
BRANCH   3  25
ATOM     25  O   UNL     1       0.338  10.762  18.592  0.00  0.00    +0.000 OA
BRANCH  25  26
ATOM     26  C   UNL     1      -0.413  11.520  19.544  0.00  0.00    +0.000 C 
BRANCH  26  27
ATOM     27  C   UNL     1      -1.799  11.661  18.995  0.00  0.00    +0.000 A 
ATOM     28  C   UNL     1      -2.851  12.128  19.771  0.00  0.00    +0.000 A 
ATOM     29  C   UNL     1      -4.126  12.204  19.213  0.00  0.00    +0.000 A 
ATOM     30  C   UNL     1      -4.367  11.818  17.881  0.00  0.00    +0.000 A 
ATOM     31  C   UNL     1      -3.302  11.333  17.100  0.00  0.00    +0.000 A 
ATOM     32  C   UNL     1      -2.025  11.267  17.668  0.00  0.00    +0.000 A 
BRANCH  30  33
ATOM     33  C   UNL     1      -5.778  11.881  17.360  0.00  0.00    +0.000 C 
BRANCH  33  34
ATOM     34  O   UNL     1      -6.583  12.626  18.259  0.00  0.00    +0.000 OA
ATOM     35  H   UNL     1      -7.470  12.651  17.850  0.00  0.00    +0.000 HD
ENDBRANCH  33  34
ENDBRANCH  30  33
BRANCH  31  36
ATOM     36  C   UNL     1      -3.480  10.829  15.696  0.00  0.00    +0.000 C 
BRANCH  36  37
ATOM     37  O   UNL     1      -2.651   9.688  15.512  0.00  0.00    +0.000 OA
ATOM     38  H   UNL     1      -1.959   9.963  14.883  0.00  0.00    +0.000 HD
ENDBRANCH  36  37
ENDBRANCH  31  36
ENDBRANCH  26  27
ENDBRANCH  25  26
ENDBRANCH   3  25
TORSDOF 15
ENDMDL
MODEL 2
REMARK VINA RESULT:      -7.8      1.202      2.064
REMARK  Name = 
REMARK  19 active torsions:
REMARK  status: ('A' for Active; 'I' for Inactive)
REMARK    1  A    between atoms: C_1  and  C_2
REMARK    2  A    between atoms: C_2  and  C_3
REMARK    3  A    between atoms: C_3  and  C_4
REMARK    4  A    between atoms: C_6  and  C_7
REMARK    5  A    between atoms: C_7  and  O_8
REMARK    6  A    between atoms: C_7  and  C_9
REMARK    7  A    between atoms: C_7  and  C_11
REMARK    8  A    between atoms: C_9  and  C_10
REMARK    9  A    between atoms: C_11  and  C_12
REMARK   10  A    between atoms: C_15  and  C_16
REMARK   11  A    between atoms: C_18  and  O_19
REMARK   12  A    between atoms: O_19  and  C_20
REMARK   13  A    between atoms: C_20  and  C_21
REMARK   14  A    between atoms: C_24  and  C_25
REMARK   15  A    between atoms: C_25  and  O_26
REMARK   16  A    between atoms: C_27  and  C_28
REMARK   17  A    between atoms: C_28  and  O_29
REMARK   18  A    between atoms: C_33  and  C_34
REMARK   19  A    between atoms: C_34  and  C_35
REMARK                            x       y       z     vdW  Elec       q    Type
REMARK                         _______ _______ _______ _____ _____    ______ ____
ROOT
ATOM      1  C   UNL     1       2.388   7.257  18.898  0.00  0.00    +0.000 A 
ATOM      2  C   UNL     1       1.706   8.396  18.425  0.00  0.00    +0.000 A 
ATOM      3  C   UNL     1       0.997   9.267  19.233  0.00  0.00    +0.000 A 
ATOM      4  C   UNL     1       0.801   8.914  20.555  0.00  0.00    +0.000 A 
ATOM      5  C   UNL     1       1.337   7.721  21.046  0.00  0.00    +0.000 A 
ATOM      6  C   UNL     1       2.158   6.888  20.253  0.00  0.00    +0.000 A 
ENDROOT
BRANCH   1  12
ATOM      7  C   UNL     1       2.959   5.195  17.447  0.00  0.00    +0.000 A 
ATOM      8  C   UNL     1       3.955   4.508  16.714  0.00  0.00    +0.000 A 
ATOM      9  C   UNL     1       5.151   5.114  16.284  0.00  0.00    +0.000 A 
ATOM     10  C   UNL     1       5.329   6.456  16.624  0.00  0.00    +0.000 A 
ATOM     11  C   UNL     1       4.415   7.123  17.436  0.00  0.00    +0.000 A 
ATOM     12  C   UNL     1       3.220   6.535  17.882  0.00  0.00    +0.000 A 
BRANCH   7  13
ATOM     13  C   UNL     1       1.719   4.391  17.843  0.00  0.00    +0.000 C 
BRANCH  13  15
ATOM     14  C   UNL     1       0.715   2.262  18.771  0.00  0.00    +0.000 C 
ATOM     15  C   UNL     1       1.844   2.868  17.953  0.00  0.00    +0.000 C 
ENDBRANCH  13  15
ENDBRANCH   7  13
BRANCH   9  16
ATOM     16  C   UNL     1       6.262   4.320  15.584  0.00  0.00    +0.000 C 
BRANCH  16  17
ATOM     17  O   UNL     1       6.008   2.908  15.627  0.00  0.00    +0.000 OA
ATOM     18  H   UNL     1       6.261   2.511  14.782  0.00  0.00    +0.000 HD
ENDBRANCH  16  17
BRANCH  16  19
ATOM     19  C   UNL     1       6.377   4.753  14.093  0.00  0.00    +0.000 C 
ATOM     20  C   UNL     1       6.210   3.648  13.050  0.00  0.00    +0.000 C 
ENDBRANCH  16  19
BRANCH  16  21
ATOM     21  C   UNL     1       7.664   4.483  16.236  0.00  0.00    +0.000 C 
ATOM     22  C   UNL     1       7.635   4.610  17.758  0.00  0.00    +0.000 C 
ENDBRANCH  16  21
ENDBRANCH   9  16
ENDBRANCH   1  12
BRANCH   6  23
ATOM     23  C   UNL     1       2.647   5.571  20.836  0.00  0.00    +0.000 C 
ATOM     24  C   UNL     1       1.618   4.522  21.246  0.00  0.00    +0.000 C 
ENDBRANCH   6  23
BRANCH   3  25
ATOM     25  O   UNL     1       0.463  10.451  18.823  0.00  0.00    +0.000 OA
BRANCH  25  26
ATOM     26  C   UNL     1      -0.665  10.363  17.950  0.00  0.00    +0.000 C 
BRANCH  26  27
ATOM     27  C   UNL     1      -1.770  11.151  18.583  0.00  0.00    +0.000 A 
ATOM     28  C   UNL     1      -1.579  11.872  19.755  0.00  0.00    +0.000 A 
ATOM     29  C   UNL     1      -2.655  12.558  20.314  0.00  0.00    +0.000 A 
ATOM     30  C   UNL     1      -3.929  12.535  19.717  0.00  0.00    +0.000 A 
ATOM     31  C   UNL     1      -4.124  11.793  18.537  0.00  0.00    +0.000 A 
ATOM     32  C   UNL     1      -3.035  11.114  17.981  0.00  0.00    +0.000 A 
BRANCH  30  33
ATOM     33  C   UNL     1      -5.057  13.258  20.403  0.00  0.00    +0.000 C 
BRANCH  33  34
ATOM     34  O   UNL     1      -5.048  14.624  20.018  0.00  0.00    +0.000 OA
ATOM     35  H   UNL     1      -4.319  15.029  20.526  0.00  0.00    +0.000 HD
ENDBRANCH  33  34
ENDBRANCH  30  33
BRANCH  31  36
ATOM     36  C   UNL     1      -5.464  11.649  17.874  0.00  0.00    +0.000 C 
BRANCH  36  37
ATOM     37  O   UNL     1      -5.652  12.743  16.983  0.00  0.00    +0.000 OA
ATOM     38  H   UNL     1      -4.951  12.662  16.312  0.00  0.00    +0.000 HD
ENDBRANCH  36  37
ENDBRANCH  31  36
ENDBRANCH  26  27
ENDBRANCH  25  26
ENDBRANCH   3  25
TORSDOF 15
ENDMDL
MODEL 3
REMARK VINA RESULT:      -7.8      2.152     10.628
REMARK  Name = 
REMARK  19 active torsions:
REMARK  status: ('A' for Active; 'I' for Inactive)
REMARK    1  A    between atoms: C_1  and  C_2
REMARK    2  A    between atoms: C_2  and  C_3
REMARK    3  A    between atoms: C_3  and  C_4
REMARK    4  A    between atoms: C_6  and  C_7
REMARK    5  A    between atoms: C_7  and  O_8
REMARK    6  A    between atoms: C_7  and  C_9
REMARK    7  A    between atoms: C_7  and  C_11
REMARK    8  A    between atoms: C_9  and  C_10
REMARK    9  A    between atoms: C_11  and  C_12
REMARK   10  A    between atoms: C_15  and  C_16
REMARK   11  A    between atoms: C_18  and  O_19
REMARK   12  A    between atoms: O_19  and  C_20
REMARK   13  A    between atoms: C_20  and  C_21
REMARK   14  A    between atoms: C_24  and  C_25
REMARK   15  A    between atoms: C_25  and  O_26
REMARK   16  A    between atoms: C_27  and  C_28
REMARK   17  A    between atoms: C_28  and  O_29
REMARK   18  A    between atoms: C_33  and  C_34
REMARK   19  A    between atoms: C_34  and  C_35
REMARK                            x       y       z     vdW  Elec       q    Type
REMARK                         _______ _______ _______ _____ _____    ______ ____
ROOT
ATOM      1  C   UNL     1      -0.714  11.346  18.699  0.00  0.00    +0.000 A 
ATOM      2  C   UNL     1      -0.179  10.044  18.650  0.00  0.00    +0.000 A 
ATOM      3  C   UNL     1       1.175   9.762  18.646  0.00  0.00    +0.000 A 
ATOM      4  C   UNL     1       2.059  10.816  18.511  0.00  0.00    +0.000 A 
ATOM      5  C   UNL     1       1.576  12.123  18.411  0.00  0.00    +0.000 A 
ATOM      6  C   UNL     1       0.201  12.423  18.532  0.00  0.00    +0.000 A 
ENDROOT
BRANCH   1  12
ATOM      7  C   UNL     1      -3.129  10.860  17.915  0.00  0.00    +0.000 A 
ATOM      8  C   UNL     1      -4.492  11.236  17.990  0.00  0.00    +0.000 A 
ATOM      9  C   UNL     1      -5.011  12.049  19.015  0.00  0.00    +0.000 A 
ATOM     10  C   UNL     1      -4.106  12.495  19.979  0.00  0.00    +0.000 A 
ATOM     11  C   UNL     1      -2.743  12.229  19.868  0.00  0.00    +0.000 A 
ATOM     12  C   UNL     1      -2.204  11.427  18.850  0.00  0.00    +0.000 A 
BRANCH   7  13
ATOM     13  C   UNL     1      -2.724   9.975  16.735  0.00  0.00    +0.000 C 
BRANCH  13  15
ATOM     14  C   UNL     1      -3.629  10.012  14.372  0.00  0.00    +0.000 C 
ATOM     15  C   UNL     1      -2.628  10.614  15.345  0.00  0.00    +0.000 C 
ENDBRANCH  13  15
ENDBRANCH   7  13
BRANCH   9  16
ATOM     16  C   UNL     1      -6.469  12.529  19.015  0.00  0.00    +0.000 C 
BRANCH  16  17
ATOM     17  O   UNL     1      -6.593  13.838  19.591  0.00  0.00    +0.000 OA
ATOM     18  H   UNL     1      -6.676  14.493  18.884  0.00  0.00    +0.000 HD
ENDBRANCH  16  17
BRANCH  16  19
ATOM     19  C   UNL     1      -7.021  12.579  17.560  0.00  0.00    +0.000 C 
ATOM     20  C   UNL     1      -7.126  13.964  16.921  0.00  0.00    +0.000 C 
ENDBRANCH  16  19
BRANCH  16  21
ATOM     21  C   UNL     1      -7.428  11.641  19.857  0.00  0.00    +0.000 C 
ATOM     22  C   UNL     1      -7.414  11.948  21.353  0.00  0.00    +0.000 C 
ENDBRANCH  16  21
ENDBRANCH   9  16
ENDBRANCH   1  12
BRANCH   6  23
ATOM     23  C   UNL     1      -0.255  13.862  18.343  0.00  0.00    +0.000 C 
ATOM     24  C   UNL     1       0.007  14.868  19.459  0.00  0.00    +0.000 C 
ENDBRANCH   6  23
BRANCH   3  25
ATOM     25  O   UNL     1       1.712   8.515  18.755  0.00  0.00    +0.000 OA
BRANCH  25  26
ATOM     26  C   UNL     1       2.839   8.240  17.920  0.00  0.00    +0.000 C 
BRANCH  26  27
ATOM     27  C   UNL     1       2.989   6.751  17.865  0.00  0.00    +0.000 A 
ATOM     28  C   UNL     1       1.953   5.896  18.216  0.00  0.00    +0.000 A 
ATOM     29  C   UNL     1       2.165   4.519  18.178  0.00  0.00    +0.000 A 
ATOM     30  C   UNL     1       3.406   3.979  17.790  0.00  0.00    +0.000 A 
ATOM     31  C   UNL     1       4.459   4.848  17.447  0.00  0.00    +0.000 A 
ATOM     32  C   UNL     1       4.233   6.228  17.483  0.00  0.00    +0.000 A 
BRANCH  30  33
ATOM     33  C   UNL     1       3.579   2.484  17.819  0.00  0.00    +0.000 C 
BRANCH  33  34
ATOM     34  O   UNL     1       2.310   1.858  17.725  0.00  0.00    +0.000 OA
ATOM     35  H   UNL     1       1.659   2.585  17.791  0.00  0.00    +0.000 HD
ENDBRANCH  33  34
ENDBRANCH  30  33
BRANCH  31  36
ATOM     36  C   UNL     1       5.836   4.364  17.095  0.00  0.00    +0.000 C 
BRANCH  36  37
ATOM     37  O   UNL     1       6.582   4.194  18.295  0.00  0.00    +0.000 OA
ATOM     38  H   UNL     1       5.954   4.356  19.022  0.00  0.00    +0.000 HD
ENDBRANCH  36  37
ENDBRANCH  31  36
ENDBRANCH  26  27
ENDBRANCH  25  26
ENDBRANCH   3  25
TORSDOF 15
ENDMDL
MODEL 4
REMARK VINA RESULT:      -7.7      2.810     10.452
REMARK  Name = 
REMARK  19 active torsions:
REMARK  status: ('A' for Active; 'I' for Inactive)
REMARK    1  A    between atoms: C_1  and  C_2
REMARK    2  A    between atoms: C_2  and  C_3
REMARK    3  A    between atoms: C_3  and  C_4
REMARK    4  A    between atoms: C_6  and  C_7
REMARK    5  A    between atoms: C_7  and  O_8
REMARK    6  A    between atoms: C_7  and  C_9
REMARK    7  A    between atoms: C_7  and  C_11
REMARK    8  A    between atoms: C_9  and  C_10
REMARK    9  A    between atoms: C_11  and  C_12
REMARK   10  A    between atoms: C_15  and  C_16
REMARK   11  A    between atoms: C_18  and  O_19
REMARK   12  A    between atoms: O_19  and  C_20
REMARK   13  A    between atoms: C_20  and  C_21
REMARK   14  A    between atoms: C_24  and  C_25
REMARK   15  A    between atoms: C_25  and  O_26
REMARK   16  A    between atoms: C_27  and  C_28
REMARK   17  A    between atoms: C_28  and  O_29
REMARK   18  A    between atoms: C_33  and  C_34
REMARK   19  A    between atoms: C_34  and  C_35
REMARK                            x       y       z     vdW  Elec       q    Type
REMARK                         _______ _______ _______ _____ _____    ______ ____
ROOT
ATOM      1  C   UNL     1      -0.573  11.784  18.743  0.00  0.00    +0.000 A 
ATOM      2  C   UNL     1      -0.171  10.448  18.545  0.00  0.00    +0.000 A 
ATOM      3  C   UNL     1       1.148  10.041  18.458  0.00  0.00    +0.000 A 
ATOM      4  C   UNL     1       2.127  11.014  18.391  0.00  0.00    +0.000 A 
ATOM      5  C   UNL     1       1.773  12.364  18.440  0.00  0.00    +0.000 A 
ATOM      6  C   UNL     1       0.438  12.780  18.645  0.00  0.00    +0.000 A 
ENDROOT
BRANCH   1  12
ATOM      7  C   UNL     1      -2.603  12.478  20.186  0.00  0.00    +0.000 A 
ATOM      8  C   UNL     1      -3.998  12.362  20.392  0.00  0.00    +0.000 A 
ATOM      9  C   UNL     1      -4.887  11.899  19.404  0.00  0.00    +0.000 A 
ATOM     10  C   UNL     1      -4.326  11.536  18.178  0.00  0.00    +0.000 A 
ATOM     11  C   UNL     1      -2.946  11.538  17.987  0.00  0.00    +0.000 A 
ATOM     12  C   UNL     1      -2.042  11.990  18.962  0.00  0.00    +0.000 A 
BRANCH   7  13
ATOM     13  C   UNL     1      -1.774  12.995  21.363  0.00  0.00    +0.000 C 
BRANCH  13  15
ATOM     14  C   UNL     1      -0.721  10.912  22.339  0.00  0.00    +0.000 C 
ATOM     15  C   UNL     1      -1.630  12.102  22.600  0.00  0.00    +0.000 C 
ENDBRANCH  13  15
ENDBRANCH   7  13
BRANCH   9  16
ATOM     16  C   UNL     1      -6.380  11.682  19.687  0.00  0.00    +0.000 C 
BRANCH  16  17
ATOM     17  O   UNL     1      -6.618  11.394  21.073  0.00  0.00    +0.000 OA
ATOM     18  H   UNL     1      -5.790  11.116  21.489  0.00  0.00    +0.000 HD
ENDBRANCH  16  17
BRANCH  16  19
ATOM     19  C   UNL     1      -7.192  12.954  19.303  0.00  0.00    +0.000 C 
ATOM     20  C   UNL     1      -6.440  14.026  18.513  0.00  0.00    +0.000 C 
ENDBRANCH  16  19
BRANCH  16  21
ATOM     21  C   UNL     1      -7.000  10.476  18.926  0.00  0.00    +0.000 C 
ATOM     22  C   UNL     1      -7.164   9.217  19.777  0.00  0.00    +0.000 C 
ENDBRANCH  16  21
ENDBRANCH   9  16
ENDBRANCH   1  12
BRANCH   6  23
ATOM     23  C   UNL     1       0.121  14.267  18.617  0.00  0.00    +0.000 C 
ATOM     24  C   UNL     1       1.088  15.238  19.288  0.00  0.00    +0.000 C 
ENDBRANCH   6  23
BRANCH   3  25
ATOM     25  O   UNL     1       1.563   8.744  18.423  0.00  0.00    +0.000 OA
BRANCH  25  26
ATOM     26  C   UNL     1       1.828   8.133  19.688  0.00  0.00    +0.000 C 
BRANCH  26  27
ATOM     27  C   UNL     1       2.198   6.708  19.416  0.00  0.00    +0.000 A 
ATOM     28  C   UNL     1       2.659   6.294  18.173  0.00  0.00    +0.000 A 
ATOM     29  C   UNL     1       2.954   4.947  17.972  0.00  0.00    +0.000 A 
ATOM     30  C   UNL     1       2.795   4.000  19.002  0.00  0.00    +0.000 A 
ATOM     31  C   UNL     1       2.317   4.420  20.257  0.00  0.00    +0.000 A 
ATOM     32  C   UNL     1       2.030   5.775  20.449  0.00  0.00    +0.000 A 
BRANCH  30  33
ATOM     33  C   UNL     1       3.087   2.555  18.699  0.00  0.00    +0.000 C 
BRANCH  33  34
ATOM     34  O   UNL     1       1.875   1.877  18.409  0.00  0.00    +0.000 OA
ATOM     35  H   UNL     1       1.605   1.461  19.251  0.00  0.00    +0.000 HD
ENDBRANCH  33  34
ENDBRANCH  30  33
BRANCH  31  36
ATOM     36  C   UNL     1       2.045   3.470  21.388  0.00  0.00    +0.000 C 
BRANCH  36  37
ATOM     37  O   UNL     1       0.771   2.870  21.185  0.00  0.00    +0.000 OA
ATOM     38  H   UNL     1       0.414   3.275  20.375  0.00  0.00    +0.000 HD
ENDBRANCH  36  37
ENDBRANCH  31  36
ENDBRANCH  26  27
ENDBRANCH  25  26
ENDBRANCH   3  25
TORSDOF 15
ENDMDL
MODEL 5
REMARK VINA RESULT:      -7.7      3.078     10.323
REMARK  Name = 
REMARK  19 active torsions:
REMARK  status: ('A' for Active; 'I' for Inactive)
REMARK    1  A    between atoms: C_1  and  C_2
REMARK    2  A    between atoms: C_2  and  C_3
REMARK    3  A    between atoms: C_3  and  C_4
REMARK    4  A    between atoms: C_6  and  C_7
REMARK    5  A    between atoms: C_7  and  O_8
REMARK    6  A    between atoms: C_7  and  C_9
REMARK    7  A    between atoms: C_7  and  C_11
REMARK    8  A    between atoms: C_9  and  C_10
REMARK    9  A    between atoms: C_11  and  C_12
REMARK   10  A    between atoms: C_15  and  C_16
REMARK   11  A    between atoms: C_18  and  O_19
REMARK   12  A    between atoms: O_19  and  C_20
REMARK   13  A    between atoms: C_20  and  C_21
REMARK   14  A    between atoms: C_24  and  C_25
REMARK   15  A    between atoms: C_25  and  O_26
REMARK   16  A    between atoms: C_27  and  C_28
REMARK   17  A    between atoms: C_28  and  O_29
REMARK   18  A    between atoms: C_33  and  C_34
REMARK   19  A    between atoms: C_34  and  C_35
REMARK                            x       y       z     vdW  Elec       q    Type
REMARK                         _______ _______ _______ _____ _____    ______ ____
ROOT
ATOM      1  C   UNL     1       0.305  11.275  19.395  0.00  0.00    +0.000 A 
ATOM      2  C   UNL     1       0.382   9.983  18.837  0.00  0.00    +0.000 A 
ATOM      3  C   UNL     1       1.465   9.514  18.116  0.00  0.00    +0.000 A 
ATOM      4  C   UNL     1       2.458  10.412  17.775  0.00  0.00    +0.000 A 
ATOM      5  C   UNL     1       2.364  11.744  18.182  0.00  0.00    +0.000 A 
ATOM      6  C   UNL     1       1.318  12.199  19.016  0.00  0.00    +0.000 A 
ENDROOT
BRANCH   1  12
ATOM      7  C   UNL     1      -2.179  11.891  19.765  0.00  0.00    +0.000 A 
ATOM      8  C   UNL     1      -3.148  12.390  20.666  0.00  0.00    +0.000 A 
ATOM      9  C   UNL     1      -2.951  12.440  22.059  0.00  0.00    +0.000 A 
ATOM     10  C   UNL     1      -1.724  11.975  22.535  0.00  0.00    +0.000 A 
ATOM     11  C   UNL     1      -0.714  11.581  21.660  0.00  0.00    +0.000 A 
ATOM     12  C   UNL     1      -0.887  11.531  20.268  0.00  0.00    +0.000 A 
BRANCH   7  13
ATOM     13  C   UNL     1      -2.546  11.910  18.280  0.00  0.00    +0.000 C 
BRANCH  13  15
ATOM     14  C   UNL     1      -3.047  10.020  16.674  0.00  0.00    +0.000 C 
ATOM     15  C   UNL     1      -3.594  10.912  17.776  0.00  0.00    +0.000 C 
ENDBRANCH  13  15
ENDBRANCH   7  13
BRANCH   9  16
ATOM     16  C   UNL     1      -3.975  13.083  23.006  0.00  0.00    +0.000 C 
BRANCH  16  17
ATOM     17  O   UNL     1      -4.308  12.209  24.095  0.00  0.00    +0.000 OA
ATOM     18  H   UNL     1      -4.518  12.738  24.877  0.00  0.00    +0.000 HD
ENDBRANCH  16  17
BRANCH  16  19
ATOM     19  C   UNL     1      -3.407  14.408  23.594  0.00  0.00    +0.000 C 
ATOM     20  C   UNL     1      -3.153  14.427  25.102  0.00  0.00    +0.000 C 
ENDBRANCH  16  19
BRANCH  16  21
ATOM     21  C   UNL     1      -5.340  13.408  22.336  0.00  0.00    +0.000 C 
ATOM     22  C   UNL     1      -5.796  14.855  22.516  0.00  0.00    +0.000 C 
ENDBRANCH  16  21
ENDBRANCH   9  16
ENDBRANCH   1  12
BRANCH   6  23
ATOM     23  C   UNL     1       1.246  13.679  19.360  0.00  0.00    +0.000 C 
ATOM     24  C   UNL     1       0.229  14.554  18.633  0.00  0.00    +0.000 C 
ENDBRANCH   6  23
BRANCH   3  25
ATOM     25  O   UNL     1       1.626   8.226  17.702  0.00  0.00    +0.000 OA
BRANCH  25  26
ATOM     26  C   UNL     1       2.859   7.599  18.064  0.00  0.00    +0.000 C 
BRANCH  26  27
ATOM     27  C   UNL     1       2.512   6.310  18.742  0.00  0.00    +0.000 A 
ATOM     28  C   UNL     1       2.109   6.265  20.070  0.00  0.00    +0.000 A 
ATOM     29  C   UNL     1       1.833   5.031  20.656  0.00  0.00    +0.000 A 
ATOM     30  C   UNL     1       1.954   3.832  19.928  0.00  0.00    +0.000 A 
ATOM     31  C   UNL     1       2.374   3.879  18.586  0.00  0.00    +0.000 A 
ATOM     32  C   UNL     1       2.643   5.123  18.007  0.00  0.00    +0.000 A 
BRANCH  30  33
ATOM     33  C   UNL     1       1.687   2.532  20.639  0.00  0.00    +0.000 C 
BRANCH  33  34
ATOM     34  O   UNL     1       1.977   2.678  22.020  0.00  0.00    +0.000 OA
ATOM     35  H   UNL     1       1.429   2.005  22.470  0.00  0.00    +0.000 HD
ENDBRANCH  33  34
ENDBRANCH  30  33
BRANCH  31  36
ATOM     36  C   UNL     1       2.603   2.646  17.758  0.00  0.00    +0.000 C 
BRANCH  36  37
ATOM     37  O   UNL     1       3.985   2.312  17.809  0.00  0.00    +0.000 OA
ATOM     38  H   UNL     1       4.067   1.631  18.501  0.00  0.00    +0.000 HD
ENDBRANCH  36  37
ENDBRANCH  31  36
ENDBRANCH  26  27
ENDBRANCH  25  26
ENDBRANCH   3  25
TORSDOF 15
ENDMDL
MODEL 6
REMARK VINA RESULT:      -7.6      2.194     10.592
REMARK  Name = 
REMARK  19 active torsions:
REMARK  status: ('A' for Active; 'I' for Inactive)
REMARK    1  A    between atoms: C_1  and  C_2
REMARK    2  A    between atoms: C_2  and  C_3
REMARK    3  A    between atoms: C_3  and  C_4
REMARK    4  A    between atoms: C_6  and  C_7
REMARK    5  A    between atoms: C_7  and  O_8
REMARK    6  A    between atoms: C_7  and  C_9
REMARK    7  A    between atoms: C_7  and  C_11
REMARK    8  A    between atoms: C_9  and  C_10
REMARK    9  A    between atoms: C_11  and  C_12
REMARK   10  A    between atoms: C_15  and  C_16
REMARK   11  A    between atoms: C_18  and  O_19
REMARK   12  A    between atoms: O_19  and  C_20
REMARK   13  A    between atoms: C_20  and  C_21
REMARK   14  A    between atoms: C_24  and  C_25
REMARK   15  A    between atoms: C_25  and  O_26
REMARK   16  A    between atoms: C_27  and  C_28
REMARK   17  A    between atoms: C_28  and  O_29
REMARK   18  A    between atoms: C_33  and  C_34
REMARK   19  A    between atoms: C_34  and  C_35
REMARK                            x       y       z     vdW  Elec       q    Type
REMARK                         _______ _______ _______ _____ _____    ______ ____
ROOT
ATOM      1  C   UNL     1      -0.877  11.912  18.699  0.00  0.00    +0.000 A 
ATOM      2  C   UNL     1      -0.417  10.593  18.514  0.00  0.00    +0.000 A 
ATOM      3  C   UNL     1       0.916  10.225  18.550  0.00  0.00    +0.000 A 
ATOM      4  C   UNL     1       1.866  11.227  18.600  0.00  0.00    +0.000 A 
ATOM      5  C   UNL     1       1.469  12.565  18.641  0.00  0.00    +0.000 A 
ATOM      6  C   UNL     1       0.108  12.938  18.722  0.00  0.00    +0.000 A 
ENDROOT
BRANCH   1  12
ATOM      7  C   UNL     1      -3.057  12.536  19.941  0.00  0.00    +0.000 A 
ATOM      8  C   UNL     1      -4.461  12.376  20.012  0.00  0.00    +0.000 A 
ATOM      9  C   UNL     1      -5.236  11.890  18.942  0.00  0.00    +0.000 A 
ATOM     10  C   UNL     1      -4.549  11.551  17.776  0.00  0.00    +0.000 A 
ATOM     11  C   UNL     1      -3.158  11.597  17.718  0.00  0.00    +0.000 A 
ATOM     12  C   UNL     1      -2.366  12.071  18.776  0.00  0.00    +0.000 A 
BRANCH   7  13
ATOM     13  C   UNL     1      -2.361  13.072  21.194  0.00  0.00    +0.000 C 
BRANCH  13  15
ATOM     14  C   UNL     1      -0.642  11.576  22.291  0.00  0.00    +0.000 C 
ATOM     15  C   UNL     1      -2.069  12.096  22.338  0.00  0.00    +0.000 C 
ENDBRANCH  13  15
ENDBRANCH   7  13
BRANCH   9  16
ATOM     16  C   UNL     1      -6.742  11.625  19.080  0.00  0.00    +0.000 C 
BRANCH  16  17
ATOM     17  O   UNL     1      -7.246  10.860  17.974  0.00  0.00    +0.000 OA
ATOM     18  H   UNL     1      -8.188  11.047  17.859  0.00  0.00    +0.000 HD
ENDBRANCH  16  17
BRANCH  16  19
ATOM     19  C   UNL     1      -7.034  10.842  20.393  0.00  0.00    +0.000 C 
ATOM     20  C   UNL     1      -7.372   9.359  20.238  0.00  0.00    +0.000 C 
ENDBRANCH  16  19
BRANCH  16  21
ATOM     21  C   UNL     1      -7.613  12.913  19.092  0.00  0.00    +0.000 C 
ATOM     22  C   UNL     1      -7.637  13.664  17.761  0.00  0.00    +0.000 C 
ENDBRANCH  16  21
ENDBRANCH   9  16
ENDBRANCH   1  12
BRANCH   6  23
ATOM     23  C   UNL     1      -0.250  14.416  18.694  0.00  0.00    +0.000 C 
ATOM     24  C   UNL     1       0.252  15.316  19.819  0.00  0.00    +0.000 C 
ENDBRANCH   6  23
BRANCH   3  25
ATOM     25  O   UNL     1       1.371   8.941  18.528  0.00  0.00    +0.000 OA
BRANCH  25  26
ATOM     26  C   UNL     1       1.659   8.355  19.800  0.00  0.00    +0.000 C 
BRANCH  26  27
ATOM     27  C   UNL     1       2.244   7.002  19.535  0.00  0.00    +0.000 A 
ATOM     28  C   UNL     1       2.020   5.927  20.385  0.00  0.00    +0.000 A 
ATOM     29  C   UNL     1       2.620   4.701  20.104  0.00  0.00    +0.000 A 
ATOM     30  C   UNL     1       3.446   4.531  18.976  0.00  0.00    +0.000 A 
ATOM     31  C   UNL     1       3.681   5.625  18.123  0.00  0.00    +0.000 A 
ATOM     32  C   UNL     1       3.069   6.849  18.412  0.00  0.00    +0.000 A 
BRANCH  30  33
ATOM     33  C   UNL     1       4.100   3.193  18.761  0.00  0.00    +0.000 C 
BRANCH  33  34
ATOM     34  O   UNL     1       5.386   3.191  19.361  0.00  0.00    +0.000 OA
ATOM     35  H   UNL     1       5.896   2.516  18.872  0.00  0.00    +0.000 HD
ENDBRANCH  33  34
ENDBRANCH  30  33
BRANCH  31  36
ATOM     36  C   UNL     1       4.607   5.556  16.942  0.00  0.00    +0.000 C 
BRANCH  36  37
ATOM     37  O   UNL     1       5.838   6.179  17.290  0.00  0.00    +0.000 OA
ATOM     38  H   UNL     1       6.411   5.465  17.624  0.00  0.00    +0.000 HD
ENDBRANCH  36  37
ENDBRANCH  31  36
ENDBRANCH  26  27
ENDBRANCH  25  26
ENDBRANCH   3  25
TORSDOF 15
ENDMDL
MODEL 7
REMARK VINA RESULT:      -7.6      3.444     10.907
REMARK  Name = 
REMARK  19 active torsions:
REMARK  status: ('A' for Active; 'I' for Inactive)
REMARK    1  A    between atoms: C_1  and  C_2
REMARK    2  A    between atoms: C_2  and  C_3
REMARK    3  A    between atoms: C_3  and  C_4
REMARK    4  A    between atoms: C_6  and  C_7
REMARK    5  A    between atoms: C_7  and  O_8
REMARK    6  A    between atoms: C_7  and  C_9
REMARK    7  A    between atoms: C_7  and  C_11
REMARK    8  A    between atoms: C_9  and  C_10
REMARK    9  A    between atoms: C_11  and  C_12
REMARK   10  A    between atoms: C_15  and  C_16
REMARK   11  A    between atoms: C_18  and  O_19
REMARK   12  A    between atoms: O_19  and  C_20
REMARK   13  A    between atoms: C_20  and  C_21
REMARK   14  A    between atoms: C_24  and  C_25
REMARK   15  A    between atoms: C_25  and  O_26
REMARK   16  A    between atoms: C_27  and  C_28
REMARK   17  A    between atoms: C_28  and  O_29
REMARK   18  A    between atoms: C_33  and  C_34
REMARK   19  A    between atoms: C_34  and  C_35
REMARK                            x       y       z     vdW  Elec       q    Type
REMARK                         _______ _______ _______ _____ _____    ______ ____
ROOT
ATOM      1  C   UNL     1      -0.228  11.636  20.102  0.00  0.00    +0.000 A 
ATOM      2  C   UNL     1       0.061  10.287  19.815  0.00  0.00    +0.000 A 
ATOM      3  C   UNL     1       1.166   9.867  19.098  0.00  0.00    +0.000 A 
ATOM      4  C   UNL     1       1.944  10.827  18.480  0.00  0.00    +0.000 A 
ATOM      5  C   UNL     1       1.621  12.179  18.613  0.00  0.00    +0.000 A 
ATOM      6  C   UNL     1       0.562  12.617  19.440  0.00  0.00    +0.000 A 
ENDROOT
BRANCH   1  12
ATOM      7  C   UNL     1      -2.683  12.293  20.579  0.00  0.00    +0.000 A 
ATOM      8  C   UNL     1      -3.614  12.757  21.538  0.00  0.00    +0.000 A 
ATOM      9  C   UNL     1      -3.380  12.709  22.925  0.00  0.00    +0.000 A 
ATOM     10  C   UNL     1      -2.155  12.180  23.335  0.00  0.00    +0.000 A 
ATOM     11  C   UNL     1      -1.179  11.818  22.410  0.00  0.00    +0.000 A 
ATOM     12  C   UNL     1      -1.389  11.866  21.022  0.00  0.00    +0.000 A 
BRANCH   7  13
ATOM     13  C   UNL     1      -3.087  12.421  19.109  0.00  0.00    +0.000 C 
BRANCH  13  15
ATOM     14  C   UNL     1      -2.304  11.142  17.072  0.00  0.00    +0.000 C 
ATOM     15  C   UNL     1      -3.227  11.140  18.279  0.00  0.00    +0.000 C 
ENDBRANCH  13  15
ENDBRANCH   7  13
BRANCH   9  16
ATOM     16  C   UNL     1      -4.361  13.315  23.939  0.00  0.00    +0.000 C 
BRANCH  16  17
ATOM     17  O   UNL     1      -3.687  13.742  25.133  0.00  0.00    +0.000 OA
ATOM     18  H   UNL     1      -2.736  13.788  24.965  0.00  0.00    +0.000 HD
ENDBRANCH  16  17
BRANCH  16  19
ATOM     19  C   UNL     1      -5.087  14.544  23.318  0.00  0.00    +0.000 C 
ATOM     20  C   UNL     1      -4.685  15.916  23.861  0.00  0.00    +0.000 C 
ENDBRANCH  16  19
BRANCH  16  21
ATOM     21  C   UNL     1      -5.449  12.323  24.439  0.00  0.00    +0.000 C 
ATOM     22  C   UNL     1      -6.862  12.651  23.958  0.00  0.00    +0.000 C 
ENDBRANCH  16  21
ENDBRANCH   9  16
ENDBRANCH   1  12
BRANCH   6  23
ATOM     23  C   UNL     1       0.228  14.100  19.480  0.00  0.00    +0.000 C 
ATOM     24  C   UNL     1       1.216  15.093  18.875  0.00  0.00    +0.000 C 
ENDBRANCH   6  23
BRANCH   3  25
ATOM     25  O   UNL     1       1.546   8.568  18.942  0.00  0.00    +0.000 OA
BRANCH  25  26
ATOM     26  C   UNL     1       1.825   7.846  20.143  0.00  0.00    +0.000 C 
BRANCH  26  27
ATOM     27  C   UNL     1       2.149   6.440  19.743  0.00  0.00    +0.000 A 
ATOM     28  C   UNL     1       2.705   6.138  18.506  0.00  0.00    +0.000 A 
ATOM     29  C   UNL     1       2.951   4.807  18.178  0.00  0.00    +0.000 A 
ATOM     30  C   UNL     1       2.647   3.763  19.072  0.00  0.00    +0.000 A 
ATOM     31  C   UNL     1       2.071   4.070  20.319  0.00  0.00    +0.000 A 
ATOM     32  C   UNL     1       1.835   5.410  20.641  0.00  0.00    +0.000 A 
BRANCH  30  33
ATOM     33  C   UNL     1       2.895   2.345  18.631  0.00  0.00    +0.000 C 
BRANCH  33  34
ATOM     34  O   UNL     1       4.163   1.917  19.101  0.00  0.00    +0.000 OA
ATOM     35  H   UNL     1       4.601   2.725  19.430  0.00  0.00    +0.000 HD
ENDBRANCH  33  34
ENDBRANCH  30  33
BRANCH  31  36
ATOM     36  C   UNL     1       1.646   3.018  21.303  0.00  0.00    +0.000 C 
BRANCH  36  37
ATOM     37  O   UNL     1       2.800   2.524  21.973  0.00  0.00    +0.000 OA
ATOM     38  H   UNL     1       3.552   3.020  21.603  0.00  0.00    +0.000 HD
ENDBRANCH  36  37
ENDBRANCH  31  36
ENDBRANCH  26  27
ENDBRANCH  25  26
ENDBRANCH   3  25
TORSDOF 15
ENDMDL
MODEL 8
REMARK VINA RESULT:      -7.6      3.189     10.597
REMARK  Name = 
REMARK  19 active torsions:
REMARK  status: ('A' for Active; 'I' for Inactive)
REMARK    1  A    between atoms: C_1  and  C_2
REMARK    2  A    between atoms: C_2  and  C_3
REMARK    3  A    between atoms: C_3  and  C_4
REMARK    4  A    between atoms: C_6  and  C_7
REMARK    5  A    between atoms: C_7  and  O_8
REMARK    6  A    between atoms: C_7  and  C_9
REMARK    7  A    between atoms: C_7  and  C_11
REMARK    8  A    between atoms: C_9  and  C_10
REMARK    9  A    between atoms: C_11  and  C_12
REMARK   10  A    between atoms: C_15  and  C_16
REMARK   11  A    between atoms: C_18  and  O_19
REMARK   12  A    between atoms: O_19  and  C_20
REMARK   13  A    between atoms: C_20  and  C_21
REMARK   14  A    between atoms: C_24  and  C_25
REMARK   15  A    between atoms: C_25  and  O_26
REMARK   16  A    between atoms: C_27  and  C_28
REMARK   17  A    between atoms: C_28  and  O_29
REMARK   18  A    between atoms: C_33  and  C_34
REMARK   19  A    between atoms: C_34  and  C_35
REMARK                            x       y       z     vdW  Elec       q    Type
REMARK                         _______ _______ _______ _____ _____    ______ ____
ROOT
ATOM      1  C   UNL     1      -0.186  11.552  19.405  0.00  0.00    +0.000 A 
ATOM      2  C   UNL     1       0.142  10.206  19.150  0.00  0.00    +0.000 A 
ATOM      3  C   UNL     1       1.349   9.789  18.619  0.00  0.00    +0.000 A 
ATOM      4  C   UNL     1       2.222  10.754  18.151  0.00  0.00    +0.000 A 
ATOM      5  C   UNL     1       1.885  12.105  18.249  0.00  0.00    +0.000 A 
ATOM      6  C   UNL     1       0.705  12.538  18.895  0.00  0.00    +0.000 A 
ENDROOT
BRANCH   1  12
ATOM      7  C   UNL     1      -2.745  11.917  19.462  0.00  0.00    +0.000 A 
ATOM      8  C   UNL     1      -3.850  12.409  20.196  0.00  0.00    +0.000 A 
ATOM      9  C   UNL     1      -3.806  12.657  21.581  0.00  0.00    +0.000 A 
ATOM     10  C   UNL     1      -2.593  12.403  22.224  0.00  0.00    +0.000 A 
ATOM     11  C   UNL     1      -1.462  12.022  21.506  0.00  0.00    +0.000 A 
ATOM     12  C   UNL     1      -1.483  11.776  20.124  0.00  0.00    +0.000 A 
BRANCH   7  13
ATOM     13  C   UNL     1      -2.956  11.704  17.961  0.00  0.00    +0.000 C 
BRANCH  13  15
ATOM     14  C   UNL     1      -2.359   9.875  16.319  0.00  0.00    +0.000 C 
ATOM     15  C   UNL     1      -3.269  10.289  17.464  0.00  0.00    +0.000 C 
ENDBRANCH  13  15
ENDBRANCH   7  13
BRANCH   9  16
ATOM     16  C   UNL     1      -4.984  13.291  22.334  0.00  0.00    +0.000 C 
BRANCH  16  17
ATOM     17  O   UNL     1      -5.248  12.609  23.569  0.00  0.00    +0.000 OA
ATOM     18  H   UNL     1      -4.634  11.867  23.664  0.00  0.00    +0.000 HD
ENDBRANCH  16  17
BRANCH  16  19
ATOM     19  C   UNL     1      -4.679  14.784  22.654  0.00  0.00    +0.000 C 
ATOM     20  C   UNL     1      -4.338  15.111  24.108  0.00  0.00    +0.000 C 
ENDBRANCH  16  19
BRANCH  16  21
ATOM     21  C   UNL     1      -6.332  13.236  21.563  0.00  0.00    +0.000 C 
ATOM     22  C   UNL     1      -7.278  14.395  21.875  0.00  0.00    +0.000 C 
ENDBRANCH  16  21
ENDBRANCH   9  16
ENDBRANCH   1  12
BRANCH   6  23
ATOM     23  C   UNL     1       0.374  14.022  18.900  0.00  0.00    +0.000 C 
ATOM     24  C   UNL     1       1.517  15.031  18.850  0.00  0.00    +0.000 C 
ENDBRANCH   6  23
BRANCH   3  25
ATOM     25  O   UNL     1       1.746   8.491  18.509  0.00  0.00    +0.000 OA
BRANCH  25  26
ATOM     26  C   UNL     1       2.077   7.829  19.733  0.00  0.00    +0.000 C 
BRANCH  26  27
ATOM     27  C   UNL     1       2.112   6.361  19.440  0.00  0.00    +0.000 A 
ATOM     28  C   UNL     1       2.383   5.873  18.168  0.00  0.00    +0.000 A 
ATOM     29  C   UNL     1       2.367   4.496  17.951  0.00  0.00    +0.000 A 
ATOM     30  C   UNL     1       2.082   3.593  18.993  0.00  0.00    +0.000 A 
ATOM     31  C   UNL     1       1.795   4.091  20.277  0.00  0.00    +0.000 A 
ATOM     32  C   UNL     1       1.820   5.474  20.486  0.00  0.00    +0.000 A 
BRANCH  30  33
ATOM     33  C   UNL     1       2.033   2.123  18.674  0.00  0.00    +0.000 C 
BRANCH  33  34
ATOM     34  O   UNL     1       0.713   1.762  18.300  0.00  0.00    +0.000 OA
ATOM     35  H   UNL     1       0.200   2.592  18.337  0.00  0.00    +0.000 HD
ENDBRANCH  33  34
ENDBRANCH  30  33
BRANCH  31  36
ATOM     36  C   UNL     1       1.406   3.207  21.428  0.00  0.00    +0.000 C 
BRANCH  36  37
ATOM     37  O   UNL     1       2.587   2.798  22.109  0.00  0.00    +0.000 OA
ATOM     38  H   UNL     1       3.028   3.619  22.390  0.00  0.00    +0.000 HD
ENDBRANCH  36  37
ENDBRANCH  31  36
ENDBRANCH  26  27
ENDBRANCH  25  26
ENDBRANCH   3  25
TORSDOF 15
ENDMDL
MODEL 9
REMARK VINA RESULT:      -7.6      2.405     10.814
REMARK  Name = 
REMARK  19 active torsions:
REMARK  status: ('A' for Active; 'I' for Inactive)
REMARK    1  A    between atoms: C_1  and  C_2
REMARK    2  A    between atoms: C_2  and  C_3
REMARK    3  A    between atoms: C_3  and  C_4
REMARK    4  A    between atoms: C_6  and  C_7
REMARK    5  A    between atoms: C_7  and  O_8
REMARK    6  A    between atoms: C_7  and  C_9
REMARK    7  A    between atoms: C_7  and  C_11
REMARK    8  A    between atoms: C_9  and  C_10
REMARK    9  A    between atoms: C_11  and  C_12
REMARK   10  A    between atoms: C_15  and  C_16
REMARK   11  A    between atoms: C_18  and  O_19
REMARK   12  A    between atoms: O_19  and  C_20
REMARK   13  A    between atoms: C_20  and  C_21
REMARK   14  A    between atoms: C_24  and  C_25
REMARK   15  A    between atoms: C_25  and  O_26
REMARK   16  A    between atoms: C_27  and  C_28
REMARK   17  A    between atoms: C_28  and  O_29
REMARK   18  A    between atoms: C_33  and  C_34
REMARK   19  A    between atoms: C_34  and  C_35
REMARK                            x       y       z     vdW  Elec       q    Type
REMARK                         _______ _______ _______ _____ _____    ______ ____
ROOT
ATOM      1  C   UNL     1      -0.647  11.869  18.973  0.00  0.00    +0.000 A 
ATOM      2  C   UNL     1      -0.295  10.506  18.932  0.00  0.00    +0.000 A 
ATOM      3  C   UNL     1       1.005  10.043  18.833  0.00  0.00    +0.000 A 
ATOM      4  C   UNL     1       2.006  10.963  18.589  0.00  0.00    +0.000 A 
ATOM      5  C   UNL     1       1.695  12.320  18.478  0.00  0.00    +0.000 A 
ATOM      6  C   UNL     1       0.386  12.807  18.694  0.00  0.00    +0.000 A 
ENDROOT
BRANCH   1  12
ATOM      7  C   UNL     1      -2.581  12.741  20.450  0.00  0.00    +0.000 A 
ATOM      8  C   UNL     1      -3.970  12.702  20.718  0.00  0.00    +0.000 A 
ATOM      9  C   UNL     1      -4.919  12.222  19.796  0.00  0.00    +0.000 A 
ATOM     10  C   UNL     1      -4.427  11.761  18.574  0.00  0.00    +0.000 A 
ATOM     11  C   UNL     1      -3.058  11.688  18.328  0.00  0.00    +0.000 A 
ATOM     12  C   UNL     1      -2.095  12.155  19.237  0.00  0.00    +0.000 A 
BRANCH   7  13
ATOM     13  C   UNL     1      -1.682  13.289  21.559  0.00  0.00    +0.000 C 
BRANCH  13  15
ATOM     14  C   UNL     1      -1.021  11.077  22.594  0.00  0.00    +0.000 C 
ATOM     15  C   UNL     1      -1.547  12.479  22.853  0.00  0.00    +0.000 C 
ENDBRANCH  13  15
ENDBRANCH   7  13
BRANCH   9  16
ATOM     16  C   UNL     1      -6.407  12.091  20.150  0.00  0.00    +0.000 C 
BRANCH  16  17
ATOM     17  O   UNL     1      -6.670  10.887  20.887  0.00  0.00    +0.000 OA
ATOM     18  H   UNL     1      -5.977  10.239  20.699  0.00  0.00    +0.000 HD
ENDBRANCH  16  17
BRANCH  16  19
ATOM     19  C   UNL     1      -6.865  13.304  21.013  0.00  0.00    +0.000 C 
ATOM     20  C   UNL     1      -7.269  12.997  22.455  0.00  0.00    +0.000 C 
ENDBRANCH  16  19
BRANCH  16  21
ATOM     21  C   UNL     1      -7.347  12.005  18.915  0.00  0.00    +0.000 C 
ATOM     22  C   UNL     1      -7.840  13.359  18.408  0.00  0.00    +0.000 C 
ENDBRANCH  16  21
ENDBRANCH   9  16
ENDBRANCH   1  12
BRANCH   6  23
ATOM     23  C   UNL     1       0.112  14.289  18.486  0.00  0.00    +0.000 C 
ATOM     24  C   UNL     1       0.790  15.298  19.408  0.00  0.00    +0.000 C 
ENDBRANCH   6  23
BRANCH   3  25
ATOM     25  O   UNL     1       1.378   8.738  18.948  0.00  0.00    +0.000 OA
BRANCH  25  26
ATOM     26  C   UNL     1       2.436   8.308  18.088  0.00  0.00    +0.000 C 
BRANCH  26  27
ATOM     27  C   UNL     1       2.742   6.887  18.447  0.00  0.00    +0.000 A 
ATOM     28  C   UNL     1       2.405   6.354  19.685  0.00  0.00    +0.000 A 
ATOM     29  C   UNL     1       2.748   5.035  19.973  0.00  0.00    +0.000 A 
ATOM     30  C   UNL     1       3.427   4.233  19.036  0.00  0.00    +0.000 A 
ATOM     31  C   UNL     1       3.779   4.779  17.788  0.00  0.00    +0.000 A 
ATOM     32  C   UNL     1       3.424   6.102  17.507  0.00  0.00    +0.000 A 
BRANCH  30  33
ATOM     33  C   UNL     1       3.808   2.832  19.434  0.00  0.00    +0.000 C 
BRANCH  33  34
ATOM     34  O   UNL     1       5.192   2.787  19.745  0.00  0.00    +0.000 OA
ATOM     35  H   UNL     1       5.511   1.940  19.377  0.00  0.00    +0.000 HD
ENDBRANCH  33  34
ENDBRANCH  30  33
BRANCH  31  36
ATOM     36  C   UNL     1       4.569   4.022  16.758  0.00  0.00    +0.000 C 
BRANCH  36  37
ATOM     37  O   UNL     1       5.941   4.035  17.135  0.00  0.00    +0.000 OA
ATOM     38  H   UNL     1       6.051   3.295  17.759  0.00  0.00    +0.000 HD
ENDBRANCH  36  37
ENDBRANCH  31  36
ENDBRANCH  26  27
ENDBRANCH  25  26
ENDBRANCH   3  25
TORSDOF 15
ENDMDL
