MODEL 1
REMARK VINA RESULT:      -7.3      0.000      0.000
REMARK  Name = 
REMARK  2 active torsions:
REMARK  status: ('A' for Active; 'I' for Inactive)
REMARK    1  A    between atoms: C_1  and  N_2
REMARK    2  A    between atoms: N_2  and  C_8
REMARK                            x       y       z     vdW  Elec       q    Type
REMARK                         _______ _______ _______ _____ _____    ______ ____
ROOT
ATOM      1  C   UNL     1       4.048   3.791  18.024  0.00  0.00    +0.000 A 
ATOM      2  C   UNL     1       3.848   2.399  17.853  0.00  0.00    +0.000 A 
ATOM      3  C   UNL     1       2.851   1.711  18.537  0.00  0.00    +0.000 A 
ATOM      4  C   UNL     1       2.011   2.379  19.414  0.00  0.00    +0.000 A 
ATOM      5  C   UNL     1       2.147   3.756  19.606  0.00  0.00    +0.000 A 
ATOM      6  C   UNL     1       1.260   4.407  20.486  0.00  0.00    +0.000 A 
ATOM      7  C   UNL     1       1.341   5.781  20.682  0.00  0.00    +0.000 A 
ATOM      8  C   UNL     1       2.290   6.522  19.992  0.00  0.00    +0.000 A 
ATOM      9  C   UNL     1       3.172   5.897  19.110  0.00  0.00    +0.000 A 
ATOM     10  C   UNL     1       3.153   4.492  18.915  0.00  0.00    +0.000 A 
ENDROOT
BRANCH   1  12
ATOM     11  C   UNL     1       5.075   4.421  15.817  0.00  0.00    +0.000 C 
ATOM     12  N   UNL     1       5.106   4.440  17.277  0.00  0.00    +0.000 N 
ATOM     13  C   UNL     1       6.192   5.112  17.932  0.00  0.00    +0.000 C 
ATOM     14  N   UNL     1       6.881   6.031  17.372  0.00  0.00    +0.000 NA
ATOM     15  C   UNL     1       7.812   6.567  18.323  0.00  0.00    +0.000 C 
ATOM     16  C   UNL     1       7.608   5.677  19.554  0.00  0.00    +0.000 C 
ATOM     17  O   UNL     1       6.560   4.857  19.201  0.00  0.00    +0.000 OA
ENDBRANCH   1  12
TORSDOF 1
ENDMDL
MODEL 2
REMARK VINA RESULT:      -7.2      1.988      5.506
REMARK  Name = 
REMARK  2 active torsions:
REMARK  status: ('A' for Active; 'I' for Inactive)
REMARK    1  A    between atoms: C_1  and  N_2
REMARK    2  A    between atoms: N_2  and  C_8
REMARK                            x       y       z     vdW  Elec       q    Type
REMARK                         _______ _______ _______ _____ _____    ______ ____
ROOT
ATOM      1  C   UNL     1       4.748   5.179  18.224  0.00  0.00    +0.000 A 
ATOM      2  C   UNL     1       5.571   5.473  19.339  0.00  0.00    +0.000 A 
ATOM      3  C   UNL     1       6.960   5.479  19.246  0.00  0.00    +0.000 A 
ATOM      4  C   UNL     1       7.584   5.198  18.041  0.00  0.00    +0.000 A 
ATOM      5  C   UNL     1       6.823   4.923  16.902  0.00  0.00    +0.000 A 
ATOM      6  C   UNL     1       7.491   4.666  15.689  0.00  0.00    +0.000 A 
ATOM      7  C   UNL     1       6.771   4.418  14.525  0.00  0.00    +0.000 A 
ATOM      8  C   UNL     1       5.384   4.443  14.553  0.00  0.00    +0.000 A 
ATOM      9  C   UNL     1       4.704   4.704  15.743  0.00  0.00    +0.000 A 
ATOM     10  C   UNL     1       5.400   4.917  16.962  0.00  0.00    +0.000 A 
ENDROOT
BRANCH   1  12
ATOM     11  C   UNL     1       2.582   6.455  18.285  0.00  0.00    +0.000 C 
ATOM     12  N   UNL     1       3.310   5.193  18.396  0.00  0.00    +0.000 N 
ATOM     13  C   UNL     1       2.570   3.995  18.671  0.00  0.00    +0.000 C 
ATOM     14  N   UNL     1       1.325   3.872  18.410  0.00  0.00    +0.000 NA
ATOM     15  C   UNL     1       0.914   2.528  18.702  0.00  0.00    +0.000 C 
ATOM     16  C   UNL     1       2.173   1.901  19.313  0.00  0.00    +0.000 C 
ATOM     17  O   UNL     1       3.125   2.887  19.195  0.00  0.00    +0.000 OA
ENDBRANCH   1  12
TORSDOF 1
ENDMDL
MODEL 3
REMARK VINA RESULT:      -6.9      1.345      2.214
REMARK  Name = 
REMARK  2 active torsions:
REMARK  status: ('A' for Active; 'I' for Inactive)
REMARK    1  A    between atoms: C_1  and  N_2
REMARK    2  A    between atoms: N_2  and  C_8
REMARK                            x       y       z     vdW  Elec       q    Type
REMARK                         _______ _______ _______ _____ _____    ______ ____
ROOT
ATOM      1  C   UNL     1       4.404   3.779  18.455  0.00  0.00    +0.000 A 
ATOM      2  C   UNL     1       4.272   2.402  18.152  0.00  0.00    +0.000 A 
ATOM      3  C   UNL     1       3.165   1.663  18.559  0.00  0.00    +0.000 A 
ATOM      4  C   UNL     1       2.145   2.264  19.280  0.00  0.00    +0.000 A 
ATOM      5  C   UNL     1       2.211   3.625  19.589  0.00  0.00    +0.000 A 
ATOM      6  C   UNL     1       1.145   4.209  20.301  0.00  0.00    +0.000 A 
ATOM      7  C   UNL     1       1.156   5.566  20.602  0.00  0.00    +0.000 A 
ATOM      8  C   UNL     1       2.215   6.358  20.182  0.00  0.00    +0.000 A 
ATOM      9  C   UNL     1       3.276   5.800  19.469  0.00  0.00    +0.000 A 
ATOM     10  C   UNL     1       3.326   4.412  19.180  0.00  0.00    +0.000 A 
ENDROOT
BRANCH   1  12
ATOM     11  C   UNL     1       6.462   5.128  18.971  0.00  0.00    +0.000 C 
ATOM     12  N   UNL     1       5.584   4.484  17.997  0.00  0.00    +0.000 N 
ATOM     13  C   UNL     1       5.923   4.567  16.605  0.00  0.00    +0.000 C 
ATOM     14  N   UNL     1       7.113   4.781  16.191  0.00  0.00    +0.000 NA
ATOM     15  C   UNL     1       7.132   4.700  14.758  0.00  0.00    +0.000 C 
ATOM     16  C   UNL     1       5.656   4.505  14.397  0.00  0.00    +0.000 C 
ATOM     17  O   UNL     1       5.027   4.396  15.616  0.00  0.00    +0.000 OA
ENDBRANCH   1  12
TORSDOF 1
ENDMDL
MODEL 4
REMARK VINA RESULT:      -6.8      0.936      2.737
REMARK  Name = 
REMARK  2 active torsions:
REMARK  status: ('A' for Active; 'I' for Inactive)
REMARK    1  A    between atoms: C_1  and  N_2
REMARK    2  A    between atoms: N_2  and  C_8
REMARK                            x       y       z     vdW  Elec       q    Type
REMARK                         _______ _______ _______ _____ _____    ______ ____
ROOT
ATOM      1  C   UNL     1       3.519   5.598  18.741  0.00  0.00    +0.000 A 
ATOM      2  C   UNL     1       2.949   6.564  19.606  0.00  0.00    +0.000 A 
ATOM      3  C   UNL     1       1.854   6.272  20.413  0.00  0.00    +0.000 A 
ATOM      4  C   UNL     1       1.285   5.008  20.395  0.00  0.00    +0.000 A 
ATOM      5  C   UNL     1       1.819   4.009  19.578  0.00  0.00    +0.000 A 
ATOM      6  C   UNL     1       1.230   2.729  19.604  0.00  0.00    +0.000 A 
ATOM      7  C   UNL     1       1.749   1.698  18.828  0.00  0.00    +0.000 A 
ATOM      8  C   UNL     1       2.867   1.923  18.038  0.00  0.00    +0.000 A 
ATOM      9  C   UNL     1       3.469   3.181  18.005  0.00  0.00    +0.000 A 
ATOM     10  C   UNL     1       2.944   4.273  18.745  0.00  0.00    +0.000 A 
ENDROOT
BRANCH   1  12
ATOM     11  C   UNL     1       4.454   6.382  16.542  0.00  0.00    +0.000 C 
ATOM     12  N   UNL     1       4.659   5.974  17.930  0.00  0.00    +0.000 N 
ATOM     13  C   UNL     1       5.995   5.962  18.452  0.00  0.00    +0.000 C 
ATOM     14  N   UNL     1       6.942   6.664  17.957  0.00  0.00    +0.000 NA
ATOM     15  C   UNL     1       8.116   6.508  18.769  0.00  0.00    +0.000 C 
ATOM     16  C   UNL     1       7.693   5.457  19.800  0.00  0.00    +0.000 C 
ATOM     17  O   UNL     1       6.362   5.238  19.526  0.00  0.00    +0.000 OA
ENDBRANCH   1  12
TORSDOF 1
ENDMDL
MODEL 5
REMARK VINA RESULT:      -6.8      1.929      3.684
REMARK  Name = 
REMARK  2 active torsions:
REMARK  status: ('A' for Active; 'I' for Inactive)
REMARK    1  A    between atoms: C_1  and  N_2
REMARK    2  A    between atoms: N_2  and  C_8
REMARK                            x       y       z     vdW  Elec       q    Type
REMARK                         _______ _______ _______ _____ _____    ______ ____
ROOT
ATOM      1  C   UNL     1       4.637   6.311  17.693  0.00  0.00    +0.000 A 
ATOM      2  C   UNL     1       3.776   7.433  17.616  0.00  0.00    +0.000 A 
ATOM      3  C   UNL     1       2.555   7.469  18.282  0.00  0.00    +0.000 A 
ATOM      4  C   UNL     1       2.144   6.393  19.054  0.00  0.00    +0.000 A 
ATOM      5  C   UNL     1       2.963   5.268  19.185  0.00  0.00    +0.000 A 
ATOM      6  C   UNL     1       2.525   4.204  19.997  0.00  0.00    +0.000 A 
ATOM      7  C   UNL     1       3.322   3.080  20.179  0.00  0.00    +0.000 A 
ATOM      8  C   UNL     1       4.568   3.012  19.572  0.00  0.00    +0.000 A 
ATOM      9  C   UNL     1       5.023   4.059  18.771  0.00  0.00    +0.000 A 
ATOM     10  C   UNL     1       4.222   5.204  18.522  0.00  0.00    +0.000 A 
ENDROOT
BRANCH   1  12
ATOM     11  C   UNL     1       6.979   7.198  17.456  0.00  0.00    +0.000 C 
ATOM     12  N   UNL     1       5.894   6.346  16.973  0.00  0.00    +0.000 N 
ATOM     13  C   UNL     1       6.111   5.562  15.791  0.00  0.00    +0.000 C 
ATOM     14  N   UNL     1       7.275   5.226  15.384  0.00  0.00    +0.000 NA
ATOM     15  C   UNL     1       7.142   4.361  14.246  0.00  0.00    +0.000 C 
ATOM     16  C   UNL     1       5.631   4.349  13.988  0.00  0.00    +0.000 C 
ATOM     17  O   UNL     1       5.111   5.084  15.028  0.00  0.00    +0.000 OA
ENDBRANCH   1  12
TORSDOF 1
ENDMDL
MODEL 6
REMARK VINA RESULT:      -6.8      1.382      3.361
REMARK  Name = 
REMARK  2 active torsions:
REMARK  status: ('A' for Active; 'I' for Inactive)
REMARK    1  A    between atoms: C_1  and  N_2
REMARK    2  A    between atoms: N_2  and  C_8
REMARK                            x       y       z     vdW  Elec       q    Type
REMARK                         _______ _______ _______ _____ _____    ______ ____
ROOT
ATOM      1  C   UNL     1       4.292   5.269  18.795  0.00  0.00    +0.000 A 
ATOM      2  C   UNL     1       3.710   6.466  19.278  0.00  0.00    +0.000 A 
ATOM      3  C   UNL     1       2.401   6.510  19.745  0.00  0.00    +0.000 A 
ATOM      4  C   UNL     1       1.619   5.365  19.755  0.00  0.00    +0.000 A 
ATOM      5  C   UNL     1       2.147   4.150  19.312  0.00  0.00    +0.000 A 
ATOM      6  C   UNL     1       1.333   3.002  19.360  0.00  0.00    +0.000 A 
ATOM      7  C   UNL     1       1.829   1.767  18.957  0.00  0.00    +0.000 A 
ATOM      8  C   UNL     1       3.143   1.659  18.523  0.00  0.00    +0.000 A 
ATOM      9  C   UNL     1       3.967   2.783  18.476  0.00  0.00    +0.000 A 
ATOM     10  C   UNL     1       3.487   4.070  18.835  0.00  0.00    +0.000 A 
ENDROOT
BRANCH   1  12
ATOM     11  C   UNL     1       6.750   5.466  19.285  0.00  0.00    +0.000 C 
ATOM     12  N   UNL     1       5.662   5.299  18.325  0.00  0.00    +0.000 N 
ATOM     13  C   UNL     1       5.988   5.164  16.934  0.00  0.00    +0.000 C 
ATOM     14  N   UNL     1       7.129   4.761  16.523  0.00  0.00    +0.000 NA
ATOM     15  C   UNL     1       7.095   4.635  15.094  0.00  0.00    +0.000 C 
ATOM     16  C   UNL     1       5.707   5.170  14.726  0.00  0.00    +0.000 C 
ATOM     17  O   UNL     1       5.114   5.418  15.943  0.00  0.00    +0.000 OA
ENDBRANCH   1  12
TORSDOF 1
ENDMDL
MODEL 7
REMARK VINA RESULT:      -6.7      2.028      3.246
REMARK  Name = 
REMARK  2 active torsions:
REMARK  status: ('A' for Active; 'I' for Inactive)
REMARK    1  A    between atoms: C_1  and  N_2
REMARK    2  A    between atoms: N_2  and  C_8
REMARK                            x       y       z     vdW  Elec       q    Type
REMARK                         _______ _______ _______ _____ _____    ______ ____
ROOT
ATOM      1  C   UNL     1       5.362   5.443  17.854  0.00  0.00    +0.000 A 
ATOM      2  C   UNL     1       5.506   4.201  18.520  0.00  0.00    +0.000 A 
ATOM      3  C   UNL     1       4.595   3.773  19.480  0.00  0.00    +0.000 A 
ATOM      4  C   UNL     1       3.503   4.559  19.813  0.00  0.00    +0.000 A 
ATOM      5  C   UNL     1       3.298   5.783  19.173  0.00  0.00    +0.000 A 
ATOM      6  C   UNL     1       2.164   6.544  19.519  0.00  0.00    +0.000 A 
ATOM      7  C   UNL     1       1.905   7.754  18.884  0.00  0.00    +0.000 A 
ATOM      8  C   UNL     1       2.758   8.208  17.888  0.00  0.00    +0.000 A 
ATOM      9  C   UNL     1       3.881   7.464  17.526  0.00  0.00    +0.000 A 
ATOM     10  C   UNL     1       4.207   6.247  18.179  0.00  0.00    +0.000 A 
ENDROOT
BRANCH   1  12
ATOM     11  C   UNL     1       7.357   6.826  17.199  0.00  0.00    +0.000 C 
ATOM     12  N   UNL     1       6.349   5.823  16.864  0.00  0.00    +0.000 N 
ATOM     13  C   UNL     1       6.372   5.237  15.554  0.00  0.00    +0.000 C 
ATOM     14  N   UNL     1       7.421   5.203  14.826  0.00  0.00    +0.000 NA
ATOM     15  C   UNL     1       7.139   4.460  13.630  0.00  0.00    +0.000 C 
ATOM     16  C   UNL     1       5.642   4.156  13.751  0.00  0.00    +0.000 C 
ATOM     17  O   UNL     1       5.302   4.645  14.992  0.00  0.00    +0.000 OA
ENDBRANCH   1  12
TORSDOF 1
ENDMDL
MODEL 8
REMARK VINA RESULT:      -6.7      1.794      4.920
REMARK  Name = 
REMARK  2 active torsions:
REMARK  status: ('A' for Active; 'I' for Inactive)
REMARK    1  A    between atoms: C_1  and  N_2
REMARK    2  A    between atoms: N_2  and  C_8
REMARK                            x       y       z     vdW  Elec       q    Type
REMARK                         _______ _______ _______ _____ _____    ______ ____
ROOT
ATOM      1  C   UNL     1       4.628   3.957  17.488  0.00  0.00    +0.000 A 
ATOM      2  C   UNL     1       4.323   3.899  16.106  0.00  0.00    +0.000 A 
ATOM      3  C   UNL     1       5.020   4.655  15.168  0.00  0.00    +0.000 A 
ATOM      4  C   UNL     1       6.048   5.495  15.566  0.00  0.00    +0.000 A 
ATOM      5  C   UNL     1       6.408   5.576  16.914  0.00  0.00    +0.000 A 
ATOM      6  C   UNL     1       7.474   6.420  17.278  0.00  0.00    +0.000 A 
ATOM      7  C   UNL     1       7.884   6.507  18.605  0.00  0.00    +0.000 A 
ATOM      8  C   UNL     1       7.252   5.742  19.574  0.00  0.00    +0.000 A 
ATOM      9  C   UNL     1       6.199   4.894  19.231  0.00  0.00    +0.000 A 
ATOM     10  C   UNL     1       5.720   4.809  17.898  0.00  0.00    +0.000 A 
ENDROOT
BRANCH   1  12
ATOM     11  C   UNL     1       3.882   1.686  18.269  0.00  0.00    +0.000 C 
ATOM     12  N   UNL     1       3.860   3.141  18.407  0.00  0.00    +0.000 N 
ATOM     13  C   UNL     1       3.076   3.720  19.459  0.00  0.00    +0.000 C 
ATOM     14  N   UNL     1       2.748   3.079  20.515  0.00  0.00    +0.000 NA
ATOM     15  C   UNL     1       2.062   3.968  21.409  0.00  0.00    +0.000 C 
ATOM     16  C   UNL     1       1.945   5.262  20.597  0.00  0.00    +0.000 C 
ATOM     17  O   UNL     1       2.643   4.994  19.442  0.00  0.00    +0.000 OA
ENDBRANCH   1  12
TORSDOF 1
ENDMDL
MODEL 9
REMARK VINA RESULT:      -6.7      1.355      2.470
REMARK  Name = 
REMARK  2 active torsions:
REMARK  status: ('A' for Active; 'I' for Inactive)
REMARK    1  A    between atoms: C_1  and  N_2
REMARK    2  A    between atoms: N_2  and  C_8
REMARK                            x       y       z     vdW  Elec       q    Type
REMARK                         _______ _______ _______ _____ _____    ______ ____
ROOT
ATOM      1  C   UNL     1       3.320   4.675  18.978  0.00  0.00    +0.000 A 
ATOM      2  C   UNL     1       2.898   3.885  20.075  0.00  0.00    +0.000 A 
ATOM      3  C   UNL     1       2.107   4.405  21.094  0.00  0.00    +0.000 A 
ATOM      4  C   UNL     1       1.701   5.730  21.062  0.00  0.00    +0.000 A 
ATOM      5  C   UNL     1       2.068   6.551  19.993  0.00  0.00    +0.000 A 
ATOM      6  C   UNL     1       1.616   7.885  19.981  0.00  0.00    +0.000 A 
ATOM      7  C   UNL     1       1.932   8.728  18.921  0.00  0.00    +0.000 A 
ATOM      8  C   UNL     1       2.682   8.248  17.857  0.00  0.00    +0.000 A 
ATOM      9  C   UNL     1       3.132   6.927  17.847  0.00  0.00    +0.000 A 
ATOM     10  C   UNL     1       2.870   6.047  18.929  0.00  0.00    +0.000 A 
ENDROOT
BRANCH   1  12
ATOM     11  C   UNL     1       3.534   3.143  16.996  0.00  0.00    +0.000 C 
ATOM     12  N   UNL     1       4.141   4.065  17.953  0.00  0.00    +0.000 N 
ATOM     13  C   UNL     1       5.545   4.342  17.844  0.00  0.00    +0.000 C 
ATOM     14  N   UNL     1       6.201   4.192  16.757  0.00  0.00    +0.000 NA
ATOM     15  C   UNL     1       7.545   4.654  16.953  0.00  0.00    +0.000 C 
ATOM     16  C   UNL     1       7.582   5.006  18.444  0.00  0.00    +0.000 C 
ATOM     17  O   UNL     1       6.286   4.813  18.863  0.00  0.00    +0.000 OA
ENDBRANCH   1  12
TORSDOF 1
ENDMDL
