MODEL 1
REMARK VINA RESULT:      -7.7      0.000      0.000
REMARK  Name = 
REMARK  2 active torsions:
REMARK  status: ('A' for Active; 'I' for Inactive)
REMARK    1  A    between atoms: N_3  and  C_4
REMARK    2  A    between atoms: C_16  and  N_17
REMARK                            x       y       z     vdW  Elec       q    Type
REMARK                         _______ _______ _______ _____ _____    ______ ____
ROOT
ATOM      1  O   UNL     1       0.809   8.266  21.584  0.00  0.00    +0.000 OA
ATOM      2  C   UNL     1       1.378   8.199  20.492  0.00  0.00    +0.000 C 
ATOM      3  N   UNL     1       1.221   9.098  19.479  0.00  0.00    +0.000 N 
ATOM      4  N   UNL     1       2.201   7.141  20.334  0.00  0.00    +0.000 N 
ATOM      5  C   UNL     1       3.030   6.693  19.354  0.00  0.00    +0.000 A 
ATOM      6  N   UNL     1       3.789   5.650  19.577  0.00  0.00    +0.000 NA
ATOM      7  C   UNL     1       4.567   5.385  18.473  0.00  0.00    +0.000 A 
ATOM      8  C   UNL     1       5.526   4.356  18.377  0.00  0.00    +0.000 A 
ATOM      9  C   UNL     1       6.253   4.189  17.196  0.00  0.00    +0.000 A 
ATOM     10  C   UNL     1       6.019   5.037  16.110  0.00  0.00    +0.000 A 
ATOM     11  C   UNL     1       5.067   6.073  16.175  0.00  0.00    +0.000 A 
ATOM     12  C   UNL     1       4.356   6.227  17.379  0.00  0.00    +0.000 A 
ATOM     13  S   UNL     1       3.151   7.390  17.811  0.00  0.00    +0.000 S 
ATOM     14  H   UNL     1       1.532   8.806  18.565  0.00  0.00    +0.000 HD
ATOM     15  H   UNL     1       2.244   6.574  21.171  0.00  0.00    +0.000 HD
ENDROOT
BRANCH   3  16
ATOM     16  C   UNL     1       0.442  10.278  19.535  0.00  0.00    +0.000 A 
ATOM     17  C   UNL     1       0.845  11.432  20.218  0.00  0.00    +0.000 A 
ATOM     18  C   UNL     1       0.008  12.546  20.301  0.00  0.00    +0.000 A 
ATOM     19  C   UNL     1      -1.241  12.526  19.689  0.00  0.00    +0.000 A 
ATOM     20  C   UNL     1      -1.638  11.401  18.970  0.00  0.00    +0.000 A 
ATOM     21  C   UNL     1      -0.796  10.286  18.882  0.00  0.00    +0.000 A 
ENDBRANCH   3  16
BRANCH  10  22
ATOM     22  N   UNL     1       6.788   4.847  14.872  0.00  0.00    +0.000 N 
ATOM     23  O   UNL     1       7.830   5.504  14.734  0.00  0.00    +0.000 OA
ATOM     24  O   UNL     1       6.349   4.040  14.042  0.00  0.00    +0.000 OA
ENDBRANCH  10  22
TORSDOF 2
ENDMDL
MODEL 2
REMARK VINA RESULT:      -7.7      0.229      1.018
REMARK  Name = 
REMARK  2 active torsions:
REMARK  status: ('A' for Active; 'I' for Inactive)
REMARK    1  A    between atoms: N_3  and  C_4
REMARK    2  A    between atoms: C_16  and  N_17
REMARK                            x       y       z     vdW  Elec       q    Type
REMARK                         _______ _______ _______ _____ _____    ______ ____
ROOT
ATOM      1  O   UNL     1       0.866   8.290  21.540  0.00  0.00    +0.000 OA
ATOM      2  C   UNL     1       1.424   8.220  20.442  0.00  0.00    +0.000 C 
ATOM      3  N   UNL     1       1.248   9.110  19.425  0.00  0.00    +0.000 N 
ATOM      4  N   UNL     1       2.256   7.169  20.284  0.00  0.00    +0.000 N 
ATOM      5  C   UNL     1       3.079   6.722  19.299  0.00  0.00    +0.000 A 
ATOM      6  N   UNL     1       3.851   5.689  19.521  0.00  0.00    +0.000 NA
ATOM      7  C   UNL     1       4.619   5.422  18.412  0.00  0.00    +0.000 A 
ATOM      8  C   UNL     1       5.588   4.402  18.314  0.00  0.00    +0.000 A 
ATOM      9  C   UNL     1       6.305   4.233  17.127  0.00  0.00    +0.000 A 
ATOM     10  C   UNL     1       6.052   5.071  16.037  0.00  0.00    +0.000 A 
ATOM     11  C   UNL     1       5.090   6.098  16.104  0.00  0.00    +0.000 A 
ATOM     12  C   UNL     1       4.390   6.255  17.314  0.00  0.00    +0.000 A 
ATOM     13  S   UNL     1       3.178   7.409  17.750  0.00  0.00    +0.000 S 
ATOM     14  H   UNL     1       1.553   8.814  18.510  0.00  0.00    +0.000 HD
ATOM     15  H   UNL     1       2.312   6.608  21.124  0.00  0.00    +0.000 HD
ENDROOT
BRANCH   3  16
ATOM     16  C   UNL     1       0.458  10.284  19.480  0.00  0.00    +0.000 A 
ATOM     17  C   UNL     1      -0.921  10.291  19.241  0.00  0.00    +0.000 A 
ATOM     18  C   UNL     1      -1.642  11.487  19.240  0.00  0.00    +0.000 A 
ATOM     19  C   UNL     1      -0.994  12.692  19.493  0.00  0.00    +0.000 A 
ATOM     20  C   UNL     1       0.370  12.694  19.775  0.00  0.00    +0.000 A 
ATOM     21  C   UNL     1       1.092  11.494  19.781  0.00  0.00    +0.000 A 
ENDBRANCH   3  16
BRANCH  10  22
ATOM     22  N   UNL     1       6.810   4.879  14.793  0.00  0.00    +0.000 N 
ATOM     23  O   UNL     1       7.823   5.573  14.622  0.00  0.00    +0.000 OA
ATOM     24  O   UNL     1       6.391   4.035  13.990  0.00  0.00    +0.000 OA
ENDBRANCH  10  22
TORSDOF 2
ENDMDL
MODEL 3
REMARK VINA RESULT:      -7.2      0.849      1.406
REMARK  Name = 
REMARK  2 active torsions:
REMARK  status: ('A' for Active; 'I' for Inactive)
REMARK    1  A    between atoms: N_3  and  C_4
REMARK    2  A    between atoms: C_16  and  N_17
REMARK                            x       y       z     vdW  Elec       q    Type
REMARK                         _______ _______ _______ _____ _____    ______ ____
ROOT
ATOM      1  O   UNL     1       0.047   8.569  21.753  0.00  0.00    +0.000 OA
ATOM      2  C   UNL     1       0.774   8.529  20.758  0.00  0.00    +0.000 C 
ATOM      3  N   UNL     1       0.857   9.511  19.817  0.00  0.00    +0.000 N 
ATOM      4  N   UNL     1       1.521   7.411  20.635  0.00  0.00    +0.000 N 
ATOM      5  C   UNL     1       2.455   6.959  19.756  0.00  0.00    +0.000 A 
ATOM      6  N   UNL     1       3.080   5.835  19.999  0.00  0.00    +0.000 NA
ATOM      7  C   UNL     1       3.998   5.578  19.007  0.00  0.00    +0.000 A 
ATOM      8  C   UNL     1       4.871   4.471  18.969  0.00  0.00    +0.000 A 
ATOM      9  C   UNL     1       5.761   4.323  17.902  0.00  0.00    +0.000 A 
ATOM     10  C   UNL     1       5.775   5.268  16.872  0.00  0.00    +0.000 A 
ATOM     11  C   UNL     1       4.914   6.383  16.883  0.00  0.00    +0.000 A 
ATOM     12  C   UNL     1       4.036   6.515  17.973  0.00  0.00    +0.000 A 
ATOM     13  S   UNL     1       2.879   7.754  18.318  0.00  0.00    +0.000 S 
ATOM     14  H   UNL     1       1.285   9.259  18.939  0.00  0.00    +0.000 HD
ATOM     15  H   UNL     1       1.382   6.782  21.415  0.00  0.00    +0.000 HD
ENDROOT
BRANCH   3  16
ATOM     16  C   UNL     1       0.180  10.754  19.858  0.00  0.00    +0.000 A 
ATOM     17  C   UNL     1      -1.044  10.981  19.220  0.00  0.00    +0.000 A 
ATOM     18  C   UNL     1      -1.636  12.246  19.233  0.00  0.00    +0.000 A 
ATOM     19  C   UNL     1      -1.016  13.298  19.899  0.00  0.00    +0.000 A 
ATOM     20  C   UNL     1       0.182  13.076  20.574  0.00  0.00    +0.000 A 
ATOM     21  C   UNL     1       0.772  11.806  20.565  0.00  0.00    +0.000 A 
ENDBRANCH   3  16
BRANCH  10  22
ATOM     22  N   UNL     1       6.713   5.096  15.753  0.00  0.00    +0.000 N 
ATOM     23  O   UNL     1       6.346   5.472  14.630  0.00  0.00    +0.000 OA
ATOM     24  O   UNL     1       7.815   4.588  16.001  0.00  0.00    +0.000 OA
ENDBRANCH  10  22
TORSDOF 2
ENDMDL
MODEL 4
REMARK VINA RESULT:      -7.1      2.912      3.500
REMARK  Name = 
REMARK  2 active torsions:
REMARK  status: ('A' for Active; 'I' for Inactive)
REMARK    1  A    between atoms: N_3  and  C_4
REMARK    2  A    between atoms: C_16  and  N_17
REMARK                            x       y       z     vdW  Elec       q    Type
REMARK                         _______ _______ _______ _____ _____    ______ ____
ROOT
ATOM      1  O   UNL     1       1.290  11.124  18.202  0.00  0.00    +0.000 OA
ATOM      2  C   UNL     1       1.416  10.026  18.748  0.00  0.00    +0.000 C 
ATOM      3  N   UNL     1       0.806   9.663  19.912  0.00  0.00    +0.000 N 
ATOM      4  N   UNL     1       2.228   9.155  18.111  0.00  0.00    +0.000 N 
ATOM      5  C   UNL     1       2.623   7.870  18.314  0.00  0.00    +0.000 A 
ATOM      6  N   UNL     1       3.362   7.272  17.414  0.00  0.00    +0.000 NA
ATOM      7  C   UNL     1       3.623   5.977  17.798  0.00  0.00    +0.000 A 
ATOM      8  C   UNL     1       4.359   5.035  17.050  0.00  0.00    +0.000 A 
ATOM      9  C   UNL     1       4.554   3.746  17.551  0.00  0.00    +0.000 A 
ATOM     10  C   UNL     1       4.027   3.398  18.798  0.00  0.00    +0.000 A 
ATOM     11  C   UNL     1       3.288   4.318  19.569  0.00  0.00    +0.000 A 
ATOM     12  C   UNL     1       3.096   5.605  19.037  0.00  0.00    +0.000 A 
ATOM     13  S   UNL     1       2.232   6.954  19.689  0.00  0.00    +0.000 S 
ATOM     14  H   UNL     1       1.177   8.851  20.382  0.00  0.00    +0.000 HD
ATOM     15  H   UNL     1       2.589   9.543  17.250  0.00  0.00    +0.000 HD
ENDROOT
BRANCH   3  16
ATOM     16  C   UNL     1      -0.114  10.453  20.643  0.00  0.00    +0.000 A 
ATOM     17  C   UNL     1      -1.053  11.295  20.037  0.00  0.00    +0.000 A 
ATOM     18  C   UNL     1      -1.891  12.106  20.805  0.00  0.00    +0.000 A 
ATOM     19  C   UNL     1      -1.810  12.073  22.194  0.00  0.00    +0.000 A 
ATOM     20  C   UNL     1      -0.909  11.209  22.811  0.00  0.00    +0.000 A 
ATOM     21  C   UNL     1      -0.073  10.392  22.041  0.00  0.00    +0.000 A 
ENDBRANCH   3  16
BRANCH  10  22
ATOM     22  N   UNL     1       4.244   2.040  19.316  0.00  0.00    +0.000 N 
ATOM     23  O   UNL     1       3.770   1.094  18.670  0.00  0.00    +0.000 OA
ATOM     24  O   UNL     1       4.888   1.923  20.367  0.00  0.00    +0.000 OA
ENDBRANCH  10  22
TORSDOF 2
ENDMDL
MODEL 5
REMARK VINA RESULT:      -7.0      2.656      8.336
REMARK  Name = 
REMARK  2 active torsions:
REMARK  status: ('A' for Active; 'I' for Inactive)
REMARK    1  A    between atoms: N_3  and  C_4
REMARK    2  A    between atoms: C_16  and  N_17
REMARK                            x       y       z     vdW  Elec       q    Type
REMARK                         _______ _______ _______ _____ _____    ______ ____
ROOT
ATOM      1  O   UNL     1       4.222   4.668  19.558  0.00  0.00    +0.000 OA
ATOM      2  C   UNL     1       3.719   5.679  19.063  0.00  0.00    +0.000 C 
ATOM      3  N   UNL     1       3.891   6.078  17.771  0.00  0.00    +0.000 N 
ATOM      4  N   UNL     1       2.953   6.411  19.900  0.00  0.00    +0.000 N 
ATOM      5  C   UNL     1       2.201   7.538  19.791  0.00  0.00    +0.000 A 
ATOM      6  N   UNL     1       1.477   7.932  20.808  0.00  0.00    +0.000 NA
ATOM      7  C   UNL     1       0.775   9.068  20.480  0.00  0.00    +0.000 A 
ATOM      8  C   UNL     1      -0.131   9.742  21.325  0.00  0.00    +0.000 A 
ATOM      9  C   UNL     1      -0.784  10.891  20.871  0.00  0.00    +0.000 A 
ATOM     10  C   UNL     1      -0.528  11.373  19.585  0.00  0.00    +0.000 A 
ATOM     11  C   UNL     1       0.372  10.723  18.718  0.00  0.00    +0.000 A 
ATOM     12  C   UNL     1       1.008   9.562  19.194  0.00  0.00    +0.000 A 
ATOM     13  S   UNL     1       2.134   8.514  18.404  0.00  0.00    +0.000 S 
ATOM     14  H   UNL     1       3.644   7.033  17.557  0.00  0.00    +0.000 HD
ATOM     15  H   UNL     1       2.890   5.986  20.815  0.00  0.00    +0.000 HD
ENDROOT
BRANCH   3  16
ATOM     16  C   UNL     1       4.613   5.373  16.777  0.00  0.00    +0.000 A 
ATOM     17  C   UNL     1       4.570   3.981  16.641  0.00  0.00    +0.000 A 
ATOM     18  C   UNL     1       5.355   3.329  15.689  0.00  0.00    +0.000 A 
ATOM     19  C   UNL     1       6.185   4.064  14.848  0.00  0.00    +0.000 A 
ATOM     20  C   UNL     1       6.205   5.454  14.944  0.00  0.00    +0.000 A 
ATOM     21  C   UNL     1       5.414   6.108  15.896  0.00  0.00    +0.000 A 
ENDBRANCH   3  16
BRANCH  10  22
ATOM     22  N   UNL     1      -1.219  12.586  19.122  0.00  0.00    +0.000 N 
ATOM     23  O   UNL     1      -2.280  12.895  19.683  0.00  0.00    +0.000 OA
ATOM     24  O   UNL     1      -0.697  13.227  18.200  0.00  0.00    +0.000 OA
ENDBRANCH  10  22
TORSDOF 2
ENDMDL
MODEL 6
REMARK VINA RESULT:      -7.0      2.945      3.481
REMARK  Name = 
REMARK  2 active torsions:
REMARK  status: ('A' for Active; 'I' for Inactive)
REMARK    1  A    between atoms: N_3  and  C_4
REMARK    2  A    between atoms: C_16  and  N_17
REMARK                            x       y       z     vdW  Elec       q    Type
REMARK                         _______ _______ _______ _____ _____    ______ ____
ROOT
ATOM      1  O   UNL     1       1.069  11.200  18.504  0.00  0.00    +0.000 OA
ATOM      2  C   UNL     1       1.244  10.097  19.028  0.00  0.00    +0.000 C 
ATOM      3  N   UNL     1       0.711   9.713  20.222  0.00  0.00    +0.000 N 
ATOM      4  N   UNL     1       2.028   9.246  18.333  0.00  0.00    +0.000 N 
ATOM      5  C   UNL     1       2.453   7.965  18.495  0.00  0.00    +0.000 A 
ATOM      6  N   UNL     1       3.145   7.389  17.545  0.00  0.00    +0.000 NA
ATOM      7  C   UNL     1       3.446   6.093  17.896  0.00  0.00    +0.000 A 
ATOM      8  C   UNL     1       4.149   5.171  17.093  0.00  0.00    +0.000 A 
ATOM      9  C   UNL     1       4.393   3.879  17.567  0.00  0.00    +0.000 A 
ATOM     10  C   UNL     1       3.948   3.510  18.839  0.00  0.00    +0.000 A 
ATOM     11  C   UNL     1       3.245   4.409  19.664  0.00  0.00    +0.000 A 
ATOM     12  C   UNL     1       3.002   5.700  19.160  0.00  0.00    +0.000 A 
ATOM     13  S   UNL     1       2.160   7.028  19.880  0.00  0.00    +0.000 S 
ATOM     14  H   UNL     1       1.123   8.901  20.659  0.00  0.00    +0.000 HD
ATOM     15  H   UNL     1       2.330   9.649  17.456  0.00  0.00    +0.000 HD
ENDROOT
BRANCH   3  16
ATOM     16  C   UNL     1      -0.173  10.480  21.018  0.00  0.00    +0.000 A 
ATOM     17  C   UNL     1      -0.280  10.332  22.406  0.00  0.00    +0.000 A 
ATOM     18  C   UNL     1      -1.218  11.065  23.135  0.00  0.00    +0.000 A 
ATOM     19  C   UNL     1      -2.054  11.969  22.486  0.00  0.00    +0.000 A 
ATOM     20  C   UNL     1      -1.928  12.158  21.111  0.00  0.00    +0.000 A 
ATOM     21  C   UNL     1      -0.984  11.426  20.381  0.00  0.00    +0.000 A 
ENDBRANCH   3  16
BRANCH  10  22
ATOM     22  N   UNL     1       4.216   2.149  19.326  0.00  0.00    +0.000 N 
ATOM     23  O   UNL     1       3.736   1.203  18.686  0.00  0.00    +0.000 OA
ATOM     24  O   UNL     1       4.906   2.031  20.348  0.00  0.00    +0.000 OA
ENDBRANCH  10  22
TORSDOF 2
ENDMDL
MODEL 7
REMARK VINA RESULT:      -6.9      2.622      8.252
REMARK  Name = 
REMARK  2 active torsions:
REMARK  status: ('A' for Active; 'I' for Inactive)
REMARK    1  A    between atoms: N_3  and  C_4
REMARK    2  A    between atoms: C_16  and  N_17
REMARK                            x       y       z     vdW  Elec       q    Type
REMARK                         _______ _______ _______ _____ _____    ______ ____
ROOT
ATOM      1  O   UNL     1       4.441   4.641  19.651  0.00  0.00    +0.000 OA
ATOM      2  C   UNL     1       3.950   5.647  19.134  0.00  0.00    +0.000 C 
ATOM      3  N   UNL     1       4.230   6.086  17.874  0.00  0.00    +0.000 N 
ATOM      4  N   UNL     1       3.083   6.331  19.910  0.00  0.00    +0.000 N 
ATOM      5  C   UNL     1       2.304   7.434  19.756  0.00  0.00    +0.000 A 
ATOM      6  N   UNL     1       1.473   7.776  20.708  0.00  0.00    +0.000 NA
ATOM      7  C   UNL     1       0.764   8.897  20.340  0.00  0.00    +0.000 A 
ATOM      8  C   UNL     1      -0.242   9.517  21.110  0.00  0.00    +0.000 A 
ATOM      9  C   UNL     1      -0.890  10.655  20.623  0.00  0.00    +0.000 A 
ATOM     10  C   UNL     1      -0.530  11.179  19.378  0.00  0.00    +0.000 A 
ATOM     11  C   UNL     1       0.471  10.583  18.587  0.00  0.00    +0.000 A 
ATOM     12  C   UNL     1       1.101   9.432  19.095  0.00  0.00    +0.000 A 
ATOM     13  S   UNL     1       2.334   8.444  18.392  0.00  0.00    +0.000 S 
ATOM     14  H   UNL     1       3.970   7.037  17.660  0.00  0.00    +0.000 HD
ATOM     15  H   UNL     1       2.948   5.880  20.805  0.00  0.00    +0.000 HD
ENDROOT
BRANCH   3  16
ATOM     16  C   UNL     1       5.068   5.433  16.938  0.00  0.00    +0.000 A 
ATOM     17  C   UNL     1       6.361   5.870  16.631  0.00  0.00    +0.000 A 
ATOM     18  C   UNL     1       7.121   5.230  15.650  0.00  0.00    +0.000 A 
ATOM     19  C   UNL     1       6.600   4.133  14.970  0.00  0.00    +0.000 A 
ATOM     20  C   UNL     1       5.330   3.661  15.296  0.00  0.00    +0.000 A 
ATOM     21  C   UNL     1       4.571   4.300  16.284  0.00  0.00    +0.000 A 
ENDBRANCH   3  16
BRANCH  10  22
ATOM     22  N   UNL     1      -1.217  12.380  18.880  0.00  0.00    +0.000 N 
ATOM     23  O   UNL     1      -0.522  13.276  18.380  0.00  0.00    +0.000 OA
ATOM     24  O   UNL     1      -2.450  12.423  18.990  0.00  0.00    +0.000 OA
ENDBRANCH  10  22
TORSDOF 2
ENDMDL
MODEL 8
REMARK VINA RESULT:      -6.7      3.309      4.134
REMARK  Name = 
REMARK  2 active torsions:
REMARK  status: ('A' for Active; 'I' for Inactive)
REMARK    1  A    between atoms: N_3  and  C_4
REMARK    2  A    between atoms: C_16  and  N_17
REMARK                            x       y       z     vdW  Elec       q    Type
REMARK                         _______ _______ _______ _____ _____    ______ ____
ROOT
ATOM      1  O   UNL     1       0.661  11.823  18.651  0.00  0.00    +0.000 OA
ATOM      2  C   UNL     1       0.876  10.803  19.310  0.00  0.00    +0.000 C 
ATOM      3  N   UNL     1       0.581  10.659  20.633  0.00  0.00    +0.000 N 
ATOM      4  N   UNL     1       1.446   9.786  18.630  0.00  0.00    +0.000 N 
ATOM      5  C   UNL     1       1.819   8.511  18.922  0.00  0.00    +0.000 A 
ATOM      6  N   UNL     1       2.263   7.734  17.968  0.00  0.00    +0.000 NA
ATOM      7  C   UNL     1       2.555   6.486  18.469  0.00  0.00    +0.000 A 
ATOM      8  C   UNL     1       3.019   5.390  17.713  0.00  0.00    +0.000 A 
ATOM      9  C   UNL     1       3.280   4.170  18.342  0.00  0.00    +0.000 A 
ATOM     10  C   UNL     1       3.088   4.045  19.721  0.00  0.00    +0.000 A 
ATOM     11  C   UNL     1       2.626   5.122  20.502  0.00  0.00    +0.000 A 
ATOM     12  C   UNL     1       2.360   6.336  19.843  0.00  0.00    +0.000 A 
ATOM     13  S   UNL     1       1.766   7.831  20.477  0.00  0.00    +0.000 S 
ATOM     14  H   UNL     1       1.026   9.890  21.113  0.00  0.00    +0.000 HD
ATOM     15  H   UNL     1       1.583  10.019  17.656  0.00  0.00    +0.000 HD
ENDROOT
BRANCH   3  16
ATOM     16  C   UNL     1      -0.072  11.618  21.444  0.00  0.00    +0.000 A 
ATOM     17  C   UNL     1       0.286  12.971  21.469  0.00  0.00    +0.000 A 
ATOM     18  C   UNL     1      -0.344  13.864  22.339  0.00  0.00    +0.000 A 
ATOM     19  C   UNL     1      -1.353  13.416  23.186  0.00  0.00    +0.000 A 
ATOM     20  C   UNL     1      -1.749  12.081  23.141  0.00  0.00    +0.000 A 
ATOM     21  C   UNL     1      -1.120  11.187  22.265  0.00  0.00    +0.000 A 
ENDBRANCH   3  16
BRANCH  10  22
ATOM     22  N   UNL     1       3.370   2.757  20.371  0.00  0.00    +0.000 N 
ATOM     23  O   UNL     1       4.155   1.984  19.802  0.00  0.00    +0.000 OA
ATOM     24  O   UNL     1       2.807   2.522  21.448  0.00  0.00    +0.000 OA
ENDBRANCH  10  22
TORSDOF 2
ENDMDL
MODEL 9
REMARK VINA RESULT:      -6.7      2.925      4.025
REMARK  Name = 
REMARK  2 active torsions:
REMARK  status: ('A' for Active; 'I' for Inactive)
REMARK    1  A    between atoms: N_3  and  C_4
REMARK    2  A    between atoms: C_16  and  N_17
REMARK                            x       y       z     vdW  Elec       q    Type
REMARK                         _______ _______ _______ _____ _____    ______ ____
ROOT
ATOM      1  O   UNL     1      -0.158  12.568  18.440  0.00  0.00    +0.000 OA
ATOM      2  C   UNL     1       0.147  11.504  18.985  0.00  0.00    +0.000 C 
ATOM      3  N   UNL     1      -0.350  11.075  20.180  0.00  0.00    +0.000 N 
ATOM      4  N   UNL     1       1.040  10.747  18.313  0.00  0.00    +0.000 N 
ATOM      5  C   UNL     1       1.620   9.532  18.503  0.00  0.00    +0.000 A 
ATOM      6  N   UNL     1       2.391   9.032  17.571  0.00  0.00    +0.000 NA
ATOM      7  C   UNL     1       2.848   7.790  17.948  0.00  0.00    +0.000 A 
ATOM      8  C   UNL     1       3.670   6.951  17.169  0.00  0.00    +0.000 A 
ATOM      9  C   UNL     1       4.068   5.707  17.667  0.00  0.00    +0.000 A 
ATOM     10  C   UNL     1       3.655   5.305  18.941  0.00  0.00    +0.000 A 
ATOM     11  C   UNL     1       2.834   6.123  19.743  0.00  0.00    +0.000 A 
ATOM     12  C   UNL     1       2.439   7.364  19.214  0.00  0.00    +0.000 A 
ATOM     13  S   UNL     1       1.428   8.588  19.901  0.00  0.00    +0.000 S 
ATOM     14  H   UNL     1       0.154  10.329  20.635  0.00  0.00    +0.000 HD
ATOM     15  H   UNL     1       1.301  11.171  17.433  0.00  0.00    +0.000 HD
ENDROOT
BRANCH   3  16
ATOM     16  C   UNL     1      -1.333  11.738  20.952  0.00  0.00    +0.000 A 
ATOM     17  C   UNL     1      -2.467  12.341  20.395  0.00  0.00    +0.000 A 
ATOM     18  C   UNL     1      -3.372  13.043  21.194  0.00  0.00    +0.000 A 
ATOM     19  C   UNL     1      -3.161  13.138  22.567  0.00  0.00    +0.000 A 
ATOM     20  C   UNL     1      -2.060  12.507  23.140  0.00  0.00    +0.000 A 
ATOM     21  C   UNL     1      -1.156  11.799  22.339  0.00  0.00    +0.000 A 
ENDBRANCH   3  16
BRANCH  10  22
ATOM     22  N   UNL     1       4.085   3.997  19.455  0.00  0.00    +0.000 N 
ATOM     23  O   UNL     1       5.293   3.724  19.400  0.00  0.00    +0.000 OA
ATOM     24  O   UNL     1       3.213   3.245  19.912  0.00  0.00    +0.000 OA
ENDBRANCH  10  22
TORSDOF 2
ENDMDL
