MODEL 1
REMARK VINA RESULT:      -7.3      0.000      0.000
REMARK  Name = 
REMARK  12 active torsions:
REMARK  status: ('A' for Active; 'I' for Inactive)
REMARK    1  A    between atoms: C_2  and  C_3
REMARK    2  A    between atoms: C_3  and  C_4
REMARK    3  A    between atoms: N_10  and  C_11
REMARK    4  A    between atoms: C_14  and  C_15
REMARK    5  A    between atoms: C_15  and  C_16
REMARK    6  A    between atoms: C_16  and  N_17
REMARK    7  A    between atoms: N_17  and  C_18
REMARK    8  A    between atoms: C_18  and  C_19
REMARK    9  A    between atoms: C_19  and  O_20
REMARK   10  A    between atoms: C_19  and  C_21
REMARK   11  A    between atoms: C_21  and  O_22
REMARK   12  A    between atoms: O_22  and  C_23
REMARK                            x       y       z     vdW  Elec       q    Type
REMARK                         _______ _______ _______ _____ _____    ______ ____
ROOT
ATOM      1  C   UNL     1       0.855   9.195  20.205  0.00  0.00    +0.000 A 
ATOM      2  C   UNL     1       1.375   7.997  20.692  0.00  0.00    +0.000 A 
ATOM      3  C   UNL     1       2.140   7.161  19.877  0.00  0.00    +0.000 A 
ATOM      4  C   UNL     1       2.390   7.496  18.541  0.00  0.00    +0.000 A 
ATOM      5  C   UNL     1       1.911   8.719  18.060  0.00  0.00    +0.000 A 
ATOM      6  C   UNL     1       1.152   9.563  18.887  0.00  0.00    +0.000 A 
ENDROOT
BRANCH   1   9
ATOM      7  O   UNL     1       0.809   9.691  23.132  0.00  0.00    +0.000 OA
ATOM      8  C   UNL     1       0.012  10.195  22.341  0.00  0.00    +0.000 C 
ATOM      9  N   UNL     1       0.015  10.044  20.961  0.00  0.00    +0.000 N 
ATOM     10  H   UNL     1      -0.662  10.592  20.442  0.00  0.00    +0.000 HD
BRANCH   8  11
ATOM     11  C   UNL     1      -1.112  11.064  22.857  0.00  0.00    +0.000 C 
BRANCH  11  12
ATOM     12  C   UNL     1      -0.793  12.529  22.770  0.00  0.00    +0.000 A 
ATOM     13  C   UNL     1      -1.540  13.473  23.472  0.00  0.00    +0.000 A 
ATOM     14  C   UNL     1      -1.236  14.823  23.320  0.00  0.00    +0.000 A 
ATOM     15  C   UNL     1      -0.208  15.195  22.463  0.00  0.00    +0.000 A 
ATOM     16  C   UNL     1       0.486  14.195  21.803  0.00  0.00    +0.000 A 
ATOM     17  N   UNL     1       0.222  12.877  21.940  0.00  0.00    +0.000 NA
ENDBRANCH  11  12
ENDBRANCH   8  11
ENDBRANCH   1   9
BRANCH   4  18
ATOM     18  C   UNL     1       3.144   6.536  17.651  0.00  0.00    +0.000 C 
BRANCH  18  19
ATOM     19  C   UNL     1       4.635   6.903  17.556  0.00  0.00    +0.000 C 
BRANCH  19  20
ATOM     20  N   UNL     1       5.274   6.239  16.412  0.00  0.00    +0.000 NA
ATOM     21  H   UNL     1       6.070   6.811  16.123  0.00  0.00    +0.000 HD
BRANCH  20  22
ATOM     22  C   UNL     1       5.784   4.911  16.813  0.00  0.00    +0.000 C 
BRANCH  22  23
ATOM     23  C   UNL     1       6.368   4.933  18.239  0.00  0.00    +0.000 C 
BRANCH  23  24
ATOM     24  O   UNL     1       7.706   4.412  18.193  0.00  0.00    +0.000 OA
ATOM     25  H   UNL     1       7.884   4.168  17.269  0.00  0.00    +0.000 HD
ENDBRANCH  23  24
BRANCH  23  26
ATOM     26  C   UNL     1       5.483   4.134  19.209  0.00  0.00    +0.000 C 
BRANCH  26  27
ATOM     27  O   UNL     1       4.639   3.230  18.487  0.00  0.00    +0.000 OA
BRANCH  27  28
ATOM     28  C   UNL     1       3.341   3.166  18.914  0.00  0.00    +0.000 A 
ATOM     29  C   UNL     1       2.844   3.679  20.110  0.00  0.00    +0.000 A 
ATOM     30  C   UNL     1       1.490   3.542  20.414  0.00  0.00    +0.000 A 
ATOM     31  C   UNL     1       0.672   2.889  19.505  0.00  0.00    +0.000 A 
ATOM     32  N   UNL     1       1.115   2.372  18.341  0.00  0.00    +0.000 NA
ATOM     33  C   UNL     1       2.438   2.522  18.076  0.00  0.00    +0.000 A 
ENDBRANCH  27  28
ENDBRANCH  26  27
ENDBRANCH  23  26
ENDBRANCH  22  23
ENDBRANCH  20  22
ENDBRANCH  19  20
ENDBRANCH  18  19
ENDBRANCH   4  18
TORSDOF 12
ENDMDL
MODEL 2
REMARK VINA RESULT:      -7.2      1.685      2.042
REMARK  Name = 
REMARK  12 active torsions:
REMARK  status: ('A' for Active; 'I' for Inactive)
REMARK    1  A    between atoms: C_2  and  C_3
REMARK    2  A    between atoms: C_3  and  C_4
REMARK    3  A    between atoms: N_10  and  C_11
REMARK    4  A    between atoms: C_14  and  C_15
REMARK    5  A    between atoms: C_15  and  C_16
REMARK    6  A    between atoms: C_16  and  N_17
REMARK    7  A    between atoms: N_17  and  C_18
REMARK    8  A    between atoms: C_18  and  C_19
REMARK    9  A    between atoms: C_19  and  O_20
REMARK   10  A    between atoms: C_19  and  C_21
REMARK   11  A    between atoms: C_21  and  O_22
REMARK   12  A    between atoms: O_22  and  C_23
REMARK                            x       y       z     vdW  Elec       q    Type
REMARK                         _______ _______ _______ _____ _____    ______ ____
ROOT
ATOM      1  C   UNL     1       1.391   8.942  20.279  0.00  0.00    +0.000 A 
ATOM      2  C   UNL     1       1.483   9.502  19.006  0.00  0.00    +0.000 A 
ATOM      3  C   UNL     1       2.126   8.825  17.967  0.00  0.00    +0.000 A 
ATOM      4  C   UNL     1       2.714   7.573  18.184  0.00  0.00    +0.000 A 
ATOM      5  C   UNL     1       2.584   6.986  19.447  0.00  0.00    +0.000 A 
ATOM      6  C   UNL     1       1.925   7.665  20.485  0.00  0.00    +0.000 A 
ENDROOT
BRANCH   1   9
ATOM      7  O   UNL     1      -0.928   8.166  21.962  0.00  0.00    +0.000 OA
ATOM      8  C   UNL     1      -0.304   9.218  22.102  0.00  0.00    +0.000 C 
ATOM      9  N   UNL     1       0.816   9.612  21.384  0.00  0.00    +0.000 N 
ATOM     10  H   UNL     1       1.264  10.473  21.674  0.00  0.00    +0.000 HD
BRANCH   8  11
ATOM     11  C   UNL     1      -0.757  10.231  23.129  0.00  0.00    +0.000 C 
BRANCH  11  12
ATOM     12  C   UNL     1      -1.535  11.361  22.518  0.00  0.00    +0.000 A 
ATOM     13  C   UNL     1      -2.614  11.938  23.185  0.00  0.00    +0.000 A 
ATOM     14  C   UNL     1      -3.334  12.949  22.555  0.00  0.00    +0.000 A 
ATOM     15  C   UNL     1      -2.969  13.347  21.276  0.00  0.00    +0.000 A 
ATOM     16  C   UNL     1      -1.885  12.723  20.683  0.00  0.00    +0.000 A 
ATOM     17  N   UNL     1      -1.159  11.748  21.273  0.00  0.00    +0.000 NA
ENDBRANCH  11  12
ENDBRANCH   8  11
ENDBRANCH   1   9
BRANCH   4  18
ATOM     18  C   UNL     1       3.482   6.899  17.072  0.00  0.00    +0.000 C 
BRANCH  18  19
ATOM     19  C   UNL     1       4.997   6.909  17.344  0.00  0.00    +0.000 C 
BRANCH  19  20
ATOM     20  N   UNL     1       5.759   6.664  16.112  0.00  0.00    +0.000 NA
ATOM     21  H   UNL     1       6.726   6.464  16.377  0.00  0.00    +0.000 HD
BRANCH  20  22
ATOM     22  C   UNL     1       5.222   5.483  15.406  0.00  0.00    +0.000 C 
BRANCH  22  23
ATOM     23  C   UNL     1       5.712   4.167  16.043  0.00  0.00    +0.000 C 
BRANCH  23  24
ATOM     24  O   UNL     1       6.344   3.374  15.025  0.00  0.00    +0.000 OA
ATOM     25  H   UNL     1       7.256   3.210  15.319  0.00  0.00    +0.000 HD
ENDBRANCH  23  24
BRANCH  23  26
ATOM     26  C   UNL     1       4.551   3.411  16.708  0.00  0.00    +0.000 C 
BRANCH  26  27
ATOM     27  O   UNL     1       4.615   3.550  18.133  0.00  0.00    +0.000 OA
BRANCH  27  28
ATOM     28  C   UNL     1       3.432   3.371  18.797  0.00  0.00    +0.000 A 
ATOM     29  C   UNL     1       2.156   3.538  18.261  0.00  0.00    +0.000 A 
ATOM     30  C   UNL     1       1.035   3.316  19.059  0.00  0.00    +0.000 A 
ATOM     31  C   UNL     1       1.228   2.937  20.378  0.00  0.00    +0.000 A 
ATOM     32  N   UNL     1       2.444   2.771  20.936  0.00  0.00    +0.000 NA
ATOM     33  C   UNL     1       3.515   2.995  20.132  0.00  0.00    +0.000 A 
ENDBRANCH  27  28
ENDBRANCH  26  27
ENDBRANCH  23  26
ENDBRANCH  22  23
ENDBRANCH  20  22
ENDBRANCH  19  20
ENDBRANCH  18  19
ENDBRANCH   4  18
TORSDOF 12
ENDMDL
MODEL 3
REMARK VINA RESULT:      -7.2      5.592     10.315
REMARK  Name = 
REMARK  12 active torsions:
REMARK  status: ('A' for Active; 'I' for Inactive)
REMARK    1  A    between atoms: C_2  and  C_3
REMARK    2  A    between atoms: C_3  and  C_4
REMARK    3  A    between atoms: N_10  and  C_11
REMARK    4  A    between atoms: C_14  and  C_15
REMARK    5  A    between atoms: C_15  and  C_16
REMARK    6  A    between atoms: C_16  and  N_17
REMARK    7  A    between atoms: N_17  and  C_18
REMARK    8  A    between atoms: C_18  and  C_19
REMARK    9  A    between atoms: C_19  and  O_20
REMARK   10  A    between atoms: C_19  and  C_21
REMARK   11  A    between atoms: C_21  and  O_22
REMARK   12  A    between atoms: O_22  and  C_23
REMARK                            x       y       z     vdW  Elec       q    Type
REMARK                         _______ _______ _______ _____ _____    ______ ____
ROOT
ATOM      1  C   UNL     1       5.991   5.233  18.036  0.00  0.00    +0.000 A 
ATOM      2  C   UNL     1       5.462   6.294  17.302  0.00  0.00    +0.000 A 
ATOM      3  C   UNL     1       6.157   7.499  17.178  0.00  0.00    +0.000 A 
ATOM      4  C   UNL     1       7.396   7.680  17.806  0.00  0.00    +0.000 A 
ATOM      5  C   UNL     1       7.952   6.603  18.505  0.00  0.00    +0.000 A 
ATOM      6  C   UNL     1       7.255   5.389  18.616  0.00  0.00    +0.000 A 
ENDROOT
BRANCH   1   9
ATOM      7  O   UNL     1       4.249   3.689  16.194  0.00  0.00    +0.000 OA
ATOM      8  C   UNL     1       4.458   3.370  17.364  0.00  0.00    +0.000 C 
ATOM      9  N   UNL     1       5.301   4.019  18.255  0.00  0.00    +0.000 N 
ATOM     10  H   UNL     1       5.427   3.583  19.162  0.00  0.00    +0.000 HD
BRANCH   8  11
ATOM     11  C   UNL     1       3.751   2.171  17.955  0.00  0.00    +0.000 C 
BRANCH  11  12
ATOM     12  C   UNL     1       2.867   2.538  19.112  0.00  0.00    +0.000 A 
ATOM     13  C   UNL     1       1.575   3.017  18.909  0.00  0.00    +0.000 A 
ATOM     14  C   UNL     1       0.813   3.391  20.012  0.00  0.00    +0.000 A 
ATOM     15  C   UNL     1       1.363   3.290  21.283  0.00  0.00    +0.000 A 
ATOM     16  C   UNL     1       2.655   2.805  21.399  0.00  0.00    +0.000 A 
ATOM     17  N   UNL     1       3.414   2.423  20.349  0.00  0.00    +0.000 NA
ENDBRANCH  11  12
ENDBRANCH   8  11
ENDBRANCH   1   9
BRANCH   4  18
ATOM     18  C   UNL     1       8.088   9.020  17.734  0.00  0.00    +0.000 C 
BRANCH  18  19
ATOM     19  C   UNL     1       8.946   9.282  18.985  0.00  0.00    +0.000 C 
BRANCH  19  20
ATOM     20  N   UNL     1       9.264  10.710  19.122  0.00  0.00    +0.000 NA
ATOM     21  H   UNL     1       9.923  10.810  19.896  0.00  0.00    +0.000 HD
BRANCH  20  22
ATOM     22  C   UNL     1       9.917  11.207  17.893  0.00  0.00    +0.000 C 
BRANCH  22  23
ATOM     23  C   UNL     1      11.148  12.078  18.216  0.00  0.00    +0.000 C 
BRANCH  23  24
ATOM     24  O   UNL     1      11.971  11.374  19.160  0.00  0.00    +0.000 OA
ATOM     25  H   UNL     1      12.864  11.751  19.095  0.00  0.00    +0.000 HD
ENDBRANCH  23  24
BRANCH  23  26
ATOM     26  C   UNL     1      10.723  13.454  18.753  0.00  0.00    +0.000 C 
BRANCH  26  27
ATOM     27  O   UNL     1      10.012  14.185  17.746  0.00  0.00    +0.000 OA
BRANCH  27  28
ATOM     28  C   UNL     1       8.944  14.916  18.192  0.00  0.00    +0.000 A 
ATOM     29  C   UNL     1       7.844  14.421  18.889  0.00  0.00    +0.000 A 
ATOM     30  C   UNL     1       6.826  15.288  19.285  0.00  0.00    +0.000 A 
ATOM     31  C   UNL     1       6.943  16.631  18.966  0.00  0.00    +0.000 A 
ATOM     32  N   UNL     1       7.987  17.149  18.288  0.00  0.00    +0.000 NA
ATOM     33  C   UNL     1       8.960  16.277  17.917  0.00  0.00    +0.000 A 
ENDBRANCH  27  28
ENDBRANCH  26  27
ENDBRANCH  23  26
ENDBRANCH  22  23
ENDBRANCH  20  22
ENDBRANCH  19  20
ENDBRANCH  18  19
ENDBRANCH   4  18
TORSDOF 12
ENDMDL
MODEL 4
REMARK VINA RESULT:      -7.1      4.314      7.354
REMARK  Name = 
REMARK  12 active torsions:
REMARK  status: ('A' for Active; 'I' for Inactive)
REMARK    1  A    between atoms: C_2  and  C_3
REMARK    2  A    between atoms: C_3  and  C_4
REMARK    3  A    between atoms: N_10  and  C_11
REMARK    4  A    between atoms: C_14  and  C_15
REMARK    5  A    between atoms: C_15  and  C_16
REMARK    6  A    between atoms: C_16  and  N_17
REMARK    7  A    between atoms: N_17  and  C_18
REMARK    8  A    between atoms: C_18  and  C_19
REMARK    9  A    between atoms: C_19  and  O_20
REMARK   10  A    between atoms: C_19  and  C_21
REMARK   11  A    between atoms: C_21  and  O_22
REMARK   12  A    between atoms: O_22  and  C_23
REMARK                            x       y       z     vdW  Elec       q    Type
REMARK                         _______ _______ _______ _____ _____    ______ ____
ROOT
ATOM      1  C   UNL     1       7.648   7.033  18.264  0.00  0.00    +0.000 A 
ATOM      2  C   UNL     1       7.646   5.722  18.737  0.00  0.00    +0.000 A 
ATOM      3  C   UNL     1       6.698   4.799  18.292  0.00  0.00    +0.000 A 
ATOM      4  C   UNL     1       5.711   5.172  17.371  0.00  0.00    +0.000 A 
ATOM      5  C   UNL     1       5.737   6.473  16.858  0.00  0.00    +0.000 A 
ATOM      6  C   UNL     1       6.701   7.395  17.299  0.00  0.00    +0.000 A 
ENDROOT
BRANCH   1   9
ATOM      7  O   UNL     1       7.691   9.948  17.699  0.00  0.00    +0.000 OA
ATOM      8  C   UNL     1       8.532   9.373  18.390  0.00  0.00    +0.000 C 
ATOM      9  N   UNL     1       8.537   8.029  18.732  0.00  0.00    +0.000 N 
ATOM     10  H   UNL     1       9.258   7.725  19.377  0.00  0.00    +0.000 HD
BRANCH   8  11
ATOM     11  C   UNL     1       9.709  10.147  18.941  0.00  0.00    +0.000 C 
BRANCH  11  12
ATOM     12  C   UNL     1       9.446  11.625  19.005  0.00  0.00    +0.000 A 
ATOM     13  C   UNL     1       9.513  12.420  17.863  0.00  0.00    +0.000 A 
ATOM     14  C   UNL     1       9.310  13.791  17.983  0.00  0.00    +0.000 A 
ATOM     15  C   UNL     1       9.060  14.334  19.237  0.00  0.00    +0.000 A 
ATOM     16  C   UNL     1       9.010  13.474  20.322  0.00  0.00    +0.000 A 
ATOM     17  N   UNL     1       9.191  12.138  20.235  0.00  0.00    +0.000 NA
ENDBRANCH  11  12
ENDBRANCH   8  11
ENDBRANCH   1   9
BRANCH   4  18
ATOM     18  C   UNL     1       4.641   4.184  16.971  0.00  0.00    +0.000 C 
BRANCH  18  19
ATOM     19  C   UNL     1       4.287   3.233  18.128  0.00  0.00    +0.000 C 
BRANCH  19  20
ATOM     20  N   UNL     1       2.871   3.354  18.502  0.00  0.00    +0.000 NA
ATOM     21  H   UNL     1       2.315   2.920  17.762  0.00  0.00    +0.000 HD
BRANCH  20  22
ATOM     22  C   UNL     1       2.613   2.626  19.761  0.00  0.00    +0.000 C 
BRANCH  22  23
ATOM     23  C   UNL     1       2.481   3.589  20.958  0.00  0.00    +0.000 C 
BRANCH  23  24
ATOM     24  O   UNL     1       1.712   2.941  21.983  0.00  0.00    +0.000 OA
ATOM     25  H   UNL     1       1.068   3.591  22.309  0.00  0.00    +0.000 HD
ENDBRANCH  23  24
BRANCH  23  26
ATOM     26  C   UNL     1       1.840   4.918  20.527  0.00  0.00    +0.000 C 
BRANCH  26  27
ATOM     27  O   UNL     1       2.843   5.830  20.062  0.00  0.00    +0.000 OA
BRANCH  27  28
ATOM     28  C   UNL     1       2.375   6.999  19.528  0.00  0.00    +0.000 A 
ATOM     29  C   UNL     1       2.523   7.417  18.207  0.00  0.00    +0.000 A 
ATOM     30  C   UNL     1       1.987   8.639  17.802  0.00  0.00    +0.000 A 
ATOM     31  C   UNL     1       1.319   9.410  18.740  0.00  0.00    +0.000 A 
ATOM     32  N   UNL     1       1.159   9.045  20.028  0.00  0.00    +0.000 NA
ATOM     33  C   UNL     1       1.693   7.850  20.390  0.00  0.00    +0.000 A 
ENDBRANCH  27  28
ENDBRANCH  26  27
ENDBRANCH  23  26
ENDBRANCH  22  23
ENDBRANCH  20  22
ENDBRANCH  19  20
ENDBRANCH  18  19
ENDBRANCH   4  18
TORSDOF 12
ENDMDL
MODEL 5
REMARK VINA RESULT:      -7.1      2.419      4.190
REMARK  Name = 
REMARK  12 active torsions:
REMARK  status: ('A' for Active; 'I' for Inactive)
REMARK    1  A    between atoms: C_2  and  C_3
REMARK    2  A    between atoms: C_3  and  C_4
REMARK    3  A    between atoms: N_10  and  C_11
REMARK    4  A    between atoms: C_14  and  C_15
REMARK    5  A    between atoms: C_15  and  C_16
REMARK    6  A    between atoms: C_16  and  N_17
REMARK    7  A    between atoms: N_17  and  C_18
REMARK    8  A    between atoms: C_18  and  C_19
REMARK    9  A    between atoms: C_19  and  O_20
REMARK   10  A    between atoms: C_19  and  C_21
REMARK   11  A    between atoms: C_21  and  O_22
REMARK   12  A    between atoms: O_22  and  C_23
REMARK                            x       y       z     vdW  Elec       q    Type
REMARK                         _______ _______ _______ _____ _____    ______ ____
ROOT
ATOM      1  C   UNL     1       1.011   9.839  19.407  0.00  0.00    +0.000 A 
ATOM      2  C   UNL     1       1.006   8.986  20.510  0.00  0.00    +0.000 A 
ATOM      3  C   UNL     1       1.636   7.741  20.459  0.00  0.00    +0.000 A 
ATOM      4  C   UNL     1       2.272   7.307  19.289  0.00  0.00    +0.000 A 
ATOM      5  C   UNL     1       2.320   8.177  18.195  0.00  0.00    +0.000 A 
ATOM      6  C   UNL     1       1.697   9.434  18.256  0.00  0.00    +0.000 A 
ENDROOT
BRANCH   1   9
ATOM      7  O   UNL     1       0.393  11.709  21.628  0.00  0.00    +0.000 OA
ATOM      8  C   UNL     1       0.029  11.885  20.466  0.00  0.00    +0.000 C 
ATOM      9  N   UNL     1       0.330  11.078  19.378  0.00  0.00    +0.000 N 
ATOM     10  H   UNL     1       0.022  11.404  18.469  0.00  0.00    +0.000 HD
BRANCH   8  11
ATOM     11  C   UNL     1      -0.844  13.071  20.122  0.00  0.00    +0.000 C 
BRANCH  11  12
ATOM     12  C   UNL     1      -2.223  12.663  19.690  0.00  0.00    +0.000 A 
ATOM     13  C   UNL     1      -3.342  12.972  20.461  0.00  0.00    +0.000 A 
ATOM     14  C   UNL     1      -4.593  12.529  20.044  0.00  0.00    +0.000 A 
ATOM     15  C   UNL     1      -4.694  11.779  18.879  0.00  0.00    +0.000 A 
ATOM     16  C   UNL     1      -3.534  11.515  18.170  0.00  0.00    +0.000 A 
ATOM     17  N   UNL     1      -2.308  11.942  18.544  0.00  0.00    +0.000 NA
ENDBRANCH  11  12
ENDBRANCH   8  11
ENDBRANCH   1   9
BRANCH   4  18
ATOM     18  C   UNL     1       2.868   5.921  19.225  0.00  0.00    +0.000 C 
BRANCH  18  19
ATOM     19  C   UNL     1       2.108   4.935  20.130  0.00  0.00    +0.000 C 
BRANCH  19  20
ATOM     20  N   UNL     1       1.279   4.017  19.338  0.00  0.00    +0.000 NA
ATOM     21  H   UNL     1       0.323   4.377  19.342  0.00  0.00    +0.000 HD
BRANCH  20  22
ATOM     22  C   UNL     1       1.752   3.981  17.939  0.00  0.00    +0.000 C 
BRANCH  22  23
ATOM     23  C   UNL     1       2.493   2.667  17.622  0.00  0.00    +0.000 C 
BRANCH  23  24
ATOM     24  O   UNL     1       2.116   1.683  18.599  0.00  0.00    +0.000 OA
ATOM     25  H   UNL     1       1.232   1.363  18.353  0.00  0.00    +0.000 HD
ENDBRANCH  23  24
BRANCH  23  26
ATOM     26  C   UNL     1       4.015   2.885  17.598  0.00  0.00    +0.000 C 
BRANCH  26  27
ATOM     27  O   UNL     1       4.363   3.873  16.620  0.00  0.00    +0.000 OA
BRANCH  27  28
ATOM     28  C   UNL     1       5.345   4.750  16.992  0.00  0.00    +0.000 A 
ATOM     29  C   UNL     1       6.257   4.571  18.030  0.00  0.00    +0.000 A 
ATOM     30  C   UNL     1       7.210   5.554  18.293  0.00  0.00    +0.000 A 
ATOM     31  C   UNL     1       7.217   6.694  17.506  0.00  0.00    +0.000 A 
ATOM     32  N   UNL     1       6.348   6.909  16.496  0.00  0.00    +0.000 NA
ATOM     33  C   UNL     1       5.433   5.932  16.267  0.00  0.00    +0.000 A 
ENDBRANCH  27  28
ENDBRANCH  26  27
ENDBRANCH  23  26
ENDBRANCH  22  23
ENDBRANCH  20  22
ENDBRANCH  19  20
ENDBRANCH  18  19
ENDBRANCH   4  18
TORSDOF 12
ENDMDL
MODEL 6
REMARK VINA RESULT:      -7.1      1.911      2.223
REMARK  Name = 
REMARK  12 active torsions:
REMARK  status: ('A' for Active; 'I' for Inactive)
REMARK    1  A    between atoms: C_2  and  C_3
REMARK    2  A    between atoms: C_3  and  C_4
REMARK    3  A    between atoms: N_10  and  C_11
REMARK    4  A    between atoms: C_14  and  C_15
REMARK    5  A    between atoms: C_15  and  C_16
REMARK    6  A    between atoms: C_16  and  N_17
REMARK    7  A    between atoms: N_17  and  C_18
REMARK    8  A    between atoms: C_18  and  C_19
REMARK    9  A    between atoms: C_19  and  O_20
REMARK   10  A    between atoms: C_19  and  C_21
REMARK   11  A    between atoms: C_21  and  O_22
REMARK   12  A    between atoms: O_22  and  C_23
REMARK                            x       y       z     vdW  Elec       q    Type
REMARK                         _______ _______ _______ _____ _____    ______ ____
ROOT
ATOM      1  C   UNL     1       0.943   9.186  20.116  0.00  0.00    +0.000 A 
ATOM      2  C   UNL     1       1.633   8.016  20.424  0.00  0.00    +0.000 A 
ATOM      3  C   UNL     1       2.463   7.402  19.483  0.00  0.00    +0.000 A 
ATOM      4  C   UNL     1       2.606   7.936  18.197  0.00  0.00    +0.000 A 
ATOM      5  C   UNL     1       1.952   9.136  17.897  0.00  0.00    +0.000 A 
ATOM      6  C   UNL     1       1.129   9.757  18.851  0.00  0.00    +0.000 A 
ENDROOT
BRANCH   1   9
ATOM      7  O   UNL     1       1.159  11.796  21.516  0.00  0.00    +0.000 OA
ATOM      8  C   UNL     1       0.219  11.016  21.665  0.00  0.00    +0.000 C 
ATOM      9  N   UNL     1       0.035   9.811  21.002  0.00  0.00    +0.000 N 
ATOM     10  H   UNL     1      -0.835   9.322  21.179  0.00  0.00    +0.000 HD
BRANCH   8  11
ATOM     11  C   UNL     1      -0.872  11.336  22.663  0.00  0.00    +0.000 C 
BRANCH  11  12
ATOM     12  C   UNL     1      -2.065  11.985  22.022  0.00  0.00    +0.000 A 
ATOM     13  C   UNL     1      -3.177  12.356  22.776  0.00  0.00    +0.000 A 
ATOM     14  C   UNL     1      -4.277  12.908  22.128  0.00  0.00    +0.000 A 
ATOM     15  C   UNL     1      -4.247  13.063  20.748  0.00  0.00    +0.000 A 
ATOM     16  C   UNL     1      -3.104  12.669  20.073  0.00  0.00    +0.000 A 
ATOM     17  N   UNL     1      -2.016  12.141  20.675  0.00  0.00    +0.000 NA
ENDBRANCH  11  12
ENDBRANCH   8  11
ENDBRANCH   1   9
BRANCH   4  18
ATOM     18  C   UNL     1       3.436   7.208  17.166  0.00  0.00    +0.000 C 
BRANCH  18  19
ATOM     19  C   UNL     1       4.859   6.926  17.681  0.00  0.00    +0.000 C 
BRANCH  19  20
ATOM     20  N   UNL     1       5.816   6.830  16.571  0.00  0.00    +0.000 NA
ATOM     21  H   UNL     1       6.655   6.363  16.921  0.00  0.00    +0.000 HD
BRANCH  20  22
ATOM     22  C   UNL     1       5.252   6.007  15.481  0.00  0.00    +0.000 C 
BRANCH  22  23
ATOM     23  C   UNL     1       5.880   4.599  15.449  0.00  0.00    +0.000 C 
BRANCH  23  24
ATOM     24  O   UNL     1       5.665   4.033  14.146  0.00  0.00    +0.000 OA
ATOM     25  H   UNL     1       5.617   4.774  13.519  0.00  0.00    +0.000 HD
ENDBRANCH  23  24
BRANCH  23  26
ATOM     26  C   UNL     1       5.292   3.708  16.555  0.00  0.00    +0.000 C 
BRANCH  26  27
ATOM     27  O   UNL     1       3.861   3.710  16.491  0.00  0.00    +0.000 OA
BRANCH  27  28
ATOM     28  C   UNL     1       3.216   3.579  17.691  0.00  0.00    +0.000 A 
ATOM     29  C   UNL     1       1.916   3.992  17.975  0.00  0.00    +0.000 A 
ATOM     30  C   UNL     1       1.386   3.789  19.248  0.00  0.00    +0.000 A 
ATOM     31  C   UNL     1       2.182   3.178  20.205  0.00  0.00    +0.000 A 
ATOM     32  N   UNL     1       3.447   2.771  19.973  0.00  0.00    +0.000 NA
ATOM     33  C   UNL     1       3.932   2.983  18.723  0.00  0.00    +0.000 A 
ENDBRANCH  27  28
ENDBRANCH  26  27
ENDBRANCH  23  26
ENDBRANCH  22  23
ENDBRANCH  20  22
ENDBRANCH  19  20
ENDBRANCH  18  19
ENDBRANCH   4  18
TORSDOF 12
ENDMDL
MODEL 7
REMARK VINA RESULT:      -7.1      2.178      3.986
REMARK  Name = 
REMARK  12 active torsions:
REMARK  status: ('A' for Active; 'I' for Inactive)
REMARK    1  A    between atoms: C_2  and  C_3
REMARK    2  A    between atoms: C_3  and  C_4
REMARK    3  A    between atoms: N_10  and  C_11
REMARK    4  A    between atoms: C_14  and  C_15
REMARK    5  A    between atoms: C_15  and  C_16
REMARK    6  A    between atoms: C_16  and  N_17
REMARK    7  A    between atoms: N_17  and  C_18
REMARK    8  A    between atoms: C_18  and  C_19
REMARK    9  A    between atoms: C_19  and  O_20
REMARK   10  A    between atoms: C_19  and  C_21
REMARK   11  A    between atoms: C_21  and  O_22
REMARK   12  A    between atoms: O_22  and  C_23
REMARK                            x       y       z     vdW  Elec       q    Type
REMARK                         _______ _______ _______ _____ _____    ______ ____
ROOT
ATOM      1  C   UNL     1       0.843   9.975  19.634  0.00  0.00    +0.000 A 
ATOM      2  C   UNL     1       1.057   8.987  20.594  0.00  0.00    +0.000 A 
ATOM      3  C   UNL     1       1.778   7.832  20.288  0.00  0.00    +0.000 A 
ATOM      4  C   UNL     1       2.289   7.626  19.001  0.00  0.00    +0.000 A 
ATOM      5  C   UNL     1       2.118   8.634  18.047  0.00  0.00    +0.000 A 
ATOM      6  C   UNL     1       1.402   9.801  18.363  0.00  0.00    +0.000 A 
ENDROOT
BRANCH   1   9
ATOM      7  O   UNL     1      -1.927  10.590  18.758  0.00  0.00    +0.000 OA
ATOM      8  C   UNL     1      -1.218  11.377  19.385  0.00  0.00    +0.000 C 
ATOM      9  N   UNL     1       0.060  11.130  19.866  0.00  0.00    +0.000 N 
ATOM     10  H   UNL     1       0.482  11.855  20.435  0.00  0.00    +0.000 HD
BRANCH   8  11
ATOM     11  C   UNL     1      -1.722  12.771  19.683  0.00  0.00    +0.000 C 
BRANCH  11  12
ATOM     12  C   UNL     1      -2.648  12.807  20.865  0.00  0.00    +0.000 A 
ATOM     13  C   UNL     1      -2.195  12.498  22.146  0.00  0.00    +0.000 A 
ATOM     14  C   UNL     1      -3.103  12.497  23.200  0.00  0.00    +0.000 A 
ATOM     15  C   UNL     1      -4.437  12.790  22.949  0.00  0.00    +0.000 A 
ATOM     16  C   UNL     1      -4.805  13.087  21.647  0.00  0.00    +0.000 A 
ATOM     17  N   UNL     1      -3.945  13.107  20.606  0.00  0.00    +0.000 NA
ENDBRANCH  11  12
ENDBRANCH   8  11
ENDBRANCH   1   9
BRANCH   4  18
ATOM     18  C   UNL     1       2.988   6.329  18.666  0.00  0.00    +0.000 C 
BRANCH  18  19
ATOM     19  C   UNL     1       2.649   5.224  19.681  0.00  0.00    +0.000 C 
BRANCH  19  20
ATOM     20  N   UNL     1       1.642   4.298  19.142  0.00  0.00    +0.000 NA
ATOM     21  H   UNL     1       0.729   4.749  19.223  0.00  0.00    +0.000 HD
BRANCH  20  22
ATOM     22  C   UNL     1       1.904   4.038  17.712  0.00  0.00    +0.000 C 
BRANCH  22  23
ATOM     23  C   UNL     1       2.575   2.666  17.497  0.00  0.00    +0.000 C 
BRANCH  23  24
ATOM     24  O   UNL     1       2.028   1.736  18.444  0.00  0.00    +0.000 OA
ATOM     25  H   UNL     1       2.762   1.178  18.751  0.00  0.00    +0.000 HD
ENDBRANCH  23  24
BRANCH  23  26
ATOM     26  C   UNL     1       4.103   2.775  17.631  0.00  0.00    +0.000 C 
BRANCH  26  27
ATOM     27  O   UNL     1       4.629   3.674  16.647  0.00  0.00    +0.000 OA
BRANCH  27  28
ATOM     28  C   UNL     1       5.565   4.563  17.101  0.00  0.00    +0.000 A 
ATOM     29  C   UNL     1       6.129   4.583  18.375  0.00  0.00    +0.000 A 
ATOM     30  C   UNL     1       7.080   5.550  18.698  0.00  0.00    +0.000 A 
ATOM     31  C   UNL     1       7.436   6.474  17.729  0.00  0.00    +0.000 A 
ATOM     32  N   UNL     1       6.909   6.494  16.487  0.00  0.00    +0.000 NA
ATOM     33  C   UNL     1       5.986   5.539  16.206  0.00  0.00    +0.000 A 
ENDBRANCH  27  28
ENDBRANCH  26  27
ENDBRANCH  23  26
ENDBRANCH  22  23
ENDBRANCH  20  22
ENDBRANCH  19  20
ENDBRANCH  18  19
ENDBRANCH   4  18
TORSDOF 12
ENDMDL
MODEL 8
REMARK VINA RESULT:      -7.1      2.410      4.259
REMARK  Name = 
REMARK  12 active torsions:
REMARK  status: ('A' for Active; 'I' for Inactive)
REMARK    1  A    between atoms: C_2  and  C_3
REMARK    2  A    between atoms: C_3  and  C_4
REMARK    3  A    between atoms: N_10  and  C_11
REMARK    4  A    between atoms: C_14  and  C_15
REMARK    5  A    between atoms: C_15  and  C_16
REMARK    6  A    between atoms: C_16  and  N_17
REMARK    7  A    between atoms: N_17  and  C_18
REMARK    8  A    between atoms: C_18  and  C_19
REMARK    9  A    between atoms: C_19  and  O_20
REMARK   10  A    between atoms: C_19  and  C_21
REMARK   11  A    between atoms: C_21  and  O_22
REMARK   12  A    between atoms: O_22  and  C_23
REMARK                            x       y       z     vdW  Elec       q    Type
REMARK                         _______ _______ _______ _____ _____    ______ ____
ROOT
ATOM      1  C   UNL     1       0.598   9.902  19.670  0.00  0.00    +0.000 A 
ATOM      2  C   UNL     1       1.347   9.451  18.584  0.00  0.00    +0.000 A 
ATOM      3  C   UNL     1       2.041   8.241  18.643  0.00  0.00    +0.000 A 
ATOM      4  C   UNL     1       2.020   7.458  19.804  0.00  0.00    +0.000 A 
ATOM      5  C   UNL     1       1.233   7.883  20.879  0.00  0.00    +0.000 A 
ATOM      6  C   UNL     1       0.526   9.094  20.810  0.00  0.00    +0.000 A 
ENDROOT
BRANCH   1   9
ATOM      7  O   UNL     1       0.312  11.850  21.892  0.00  0.00    +0.000 OA
ATOM      8  C   UNL     1      -0.205  11.997  20.785  0.00  0.00    +0.000 C 
ATOM      9  N   UNL     1      -0.065  11.151  19.693  0.00  0.00    +0.000 N 
ATOM     10  H   UNL     1      -0.491  11.454  18.825  0.00  0.00    +0.000 HD
BRANCH   8  11
ATOM     11  C   UNL     1      -1.102  13.185  20.524  0.00  0.00    +0.000 C 
BRANCH  11  12
ATOM     12  C   UNL     1      -2.485  12.779  20.101  0.00  0.00    +0.000 A 
ATOM     13  C   UNL     1      -3.577  12.942  20.952  0.00  0.00    +0.000 A 
ATOM     14  C   UNL     1      -4.830  12.505  20.533  0.00  0.00    +0.000 A 
ATOM     15  C   UNL     1      -4.959  11.906  19.287  0.00  0.00    +0.000 A 
ATOM     16  C   UNL     1      -3.824  11.783  18.502  0.00  0.00    +0.000 A 
ATOM     17  N   UNL     1      -2.598  12.208  18.876  0.00  0.00    +0.000 NA
ENDBRANCH  11  12
ENDBRANCH   8  11
ENDBRANCH   1   9
BRANCH   4  18
ATOM     18  C   UNL     1       2.850   6.199  19.878  0.00  0.00    +0.000 C 
BRANCH  18  19
ATOM     19  C   UNL     1       2.044   5.022  20.456  0.00  0.00    +0.000 C 
BRANCH  19  20
ATOM     20  N   UNL     1       2.019   3.886  19.525  0.00  0.00    +0.000 NA
ATOM     21  H   UNL     1       2.530   4.160  18.684  0.00  0.00    +0.000 HD
BRANCH  20  22
ATOM     22  C   UNL     1       2.706   2.722  20.122  0.00  0.00    +0.000 C 
BRANCH  22  23
ATOM     23  C   UNL     1       3.862   2.226  19.231  0.00  0.00    +0.000 C 
BRANCH  23  24
ATOM     24  O   UNL     1       5.103   2.488  19.905  0.00  0.00    +0.000 OA
ATOM     25  H   UNL     1       5.572   3.162  19.385  0.00  0.00    +0.000 HD
ENDBRANCH  23  24
BRANCH  23  26
ATOM     26  C   UNL     1       3.818   2.895  17.848  0.00  0.00    +0.000 C 
BRANCH  26  27
ATOM     27  O   UNL     1       4.601   4.095  17.847  0.00  0.00    +0.000 OA
BRANCH  27  28
ATOM     28  C   UNL     1       5.385   4.287  16.742  0.00  0.00    +0.000 A 
ATOM     29  C   UNL     1       4.982   4.149  15.416  0.00  0.00    +0.000 A 
ATOM     30  C   UNL     1       5.894   4.382  14.386  0.00  0.00    +0.000 A 
ATOM     31  C   UNL     1       7.189   4.745  14.721  0.00  0.00    +0.000 A 
ATOM     32  N   UNL     1       7.620   4.882  15.992  0.00  0.00    +0.000 NA
ATOM     33  C   UNL     1       6.707   4.648  16.970  0.00  0.00    +0.000 A 
ENDBRANCH  27  28
ENDBRANCH  26  27
ENDBRANCH  23  26
ENDBRANCH  22  23
ENDBRANCH  20  22
ENDBRANCH  19  20
ENDBRANCH  18  19
ENDBRANCH   4  18
TORSDOF 12
ENDMDL
MODEL 9
REMARK VINA RESULT:      -7.0      2.342      4.292
REMARK  Name = 
REMARK  12 active torsions:
REMARK  status: ('A' for Active; 'I' for Inactive)
REMARK    1  A    between atoms: C_2  and  C_3
REMARK    2  A    between atoms: C_3  and  C_4
REMARK    3  A    between atoms: N_10  and  C_11
REMARK    4  A    between atoms: C_14  and  C_15
REMARK    5  A    between atoms: C_15  and  C_16
REMARK    6  A    between atoms: C_16  and  N_17
REMARK    7  A    between atoms: N_17  and  C_18
REMARK    8  A    between atoms: C_18  and  C_19
REMARK    9  A    between atoms: C_19  and  O_20
REMARK   10  A    between atoms: C_19  and  C_21
REMARK   11  A    between atoms: C_21  and  O_22
REMARK   12  A    between atoms: O_22  and  C_23
REMARK                            x       y       z     vdW  Elec       q    Type
REMARK                         _______ _______ _______ _____ _____    ______ ____
ROOT
ATOM      1  C   UNL     1       1.461   9.192  19.351  0.00  0.00    +0.000 A 
ATOM      2  C   UNL     1       2.099   8.434  18.371  0.00  0.00    +0.000 A 
ATOM      3  C   UNL     1       2.510   7.124  18.628  0.00  0.00    +0.000 A 
ATOM      4  C   UNL     1       2.309   6.545  19.886  0.00  0.00    +0.000 A 
ATOM      5  C   UNL     1       1.628   7.284  20.859  0.00  0.00    +0.000 A 
ATOM      6  C   UNL     1       1.206   8.596  20.592  0.00  0.00    +0.000 A 
ENDROOT
BRANCH   1   9
ATOM      7  O   UNL     1      -1.124  10.336  18.445  0.00  0.00    +0.000 OA
ATOM      8  C   UNL     1      -0.127  11.013  18.695  0.00  0.00    +0.000 C 
ATOM      9  N   UNL     1       1.089  10.544  19.171  0.00  0.00    +0.000 N 
ATOM     10  H   UNL     1       1.787  11.241  19.404  0.00  0.00    +0.000 HD
BRANCH   8  11
ATOM     11  C   UNL     1      -0.159  12.509  18.471  0.00  0.00    +0.000 C 
BRANCH  11  12
ATOM     12  C   UNL     1       1.078  13.192  18.981  0.00  0.00    +0.000 A 
ATOM     13  C   UNL     1       2.077  13.621  18.109  0.00  0.00    +0.000 A 
ATOM     14  C   UNL     1       3.226  14.204  18.634  0.00  0.00    +0.000 A 
ATOM     15  C   UNL     1       3.355  14.330  20.011  0.00  0.00    +0.000 A 
ATOM     16  C   UNL     1       2.317  13.878  20.808  0.00  0.00    +0.000 A 
ATOM     17  N   UNL     1       1.185  13.320  20.327  0.00  0.00    +0.000 NA
ENDBRANCH  11  12
ENDBRANCH   8  11
ENDBRANCH   1   9
BRANCH   4  18
ATOM     18  C   UNL     1       2.842   5.160  20.172  0.00  0.00    +0.000 C 
BRANCH  18  19
ATOM     19  C   UNL     1       1.710   4.120  20.236  0.00  0.00    +0.000 C 
BRANCH  19  20
ATOM     20  N   UNL     1       1.165   3.844  18.899  0.00  0.00    +0.000 NA
ATOM     21  H   UNL     1       1.745   4.336  18.218  0.00  0.00    +0.000 HD
BRANCH  20  22
ATOM     22  C   UNL     1       1.238   2.398  18.608  0.00  0.00    +0.000 C 
BRANCH  22  23
ATOM     23  C   UNL     1       2.435   2.061  17.695  0.00  0.00    +0.000 C 
BRANCH  23  24
ATOM     24  O   UNL     1       3.378   1.282  18.447  0.00  0.00    +0.000 OA
ATOM     25  H   UNL     1       3.355   0.381  18.085  0.00  0.00    +0.000 HD
ENDBRANCH  23  24
BRANCH  23  26
ATOM     26  C   UNL     1       3.077   3.341  17.135  0.00  0.00    +0.000 C 
BRANCH  26  27
ATOM     27  O   UNL     1       4.506   3.235  17.159  0.00  0.00    +0.000 OA
BRANCH  27  28
ATOM     28  C   UNL     1       5.183   4.420  17.262  0.00  0.00    +0.000 A 
ATOM     29  C   UNL     1       6.095   4.761  18.259  0.00  0.00    +0.000 A 
ATOM     30  C   UNL     1       6.715   6.009  18.234  0.00  0.00    +0.000 A 
ATOM     31  C   UNL     1       6.397   6.884  17.207  0.00  0.00    +0.000 A 
ATOM     32  N   UNL     1       5.515   6.595  16.228  0.00  0.00    +0.000 NA
ATOM     33  C   UNL     1       4.929   5.371  16.282  0.00  0.00    +0.000 A 
ENDBRANCH  27  28
ENDBRANCH  26  27
ENDBRANCH  23  26
ENDBRANCH  22  23
ENDBRANCH  20  22
ENDBRANCH  19  20
ENDBRANCH  18  19
ENDBRANCH   4  18
TORSDOF 12
ENDMDL
