MODEL 1
REMARK VINA RESULT:      -8.3      0.000      0.000
REMARK  Name = 
REMARK  10 active torsions:
REMARK  status: ('A' for Active; 'I' for Inactive)
REMARK    1  A    between atoms: C_1  and  O_2
REMARK    2  A    between atoms: O_2  and  C_3
REMARK    3  A    between atoms: C_7  and  O_8
REMARK    4  A    between atoms: O_8  and  C_9
REMARK    5  A    between atoms: C_9  and  C_10
REMARK    6  A    between atoms: C_10  and  C_11
REMARK    7  A    between atoms: C_10  and  O_21
REMARK    8  A    between atoms: C_11  and  N_12
REMARK    9  A    between atoms: O_21  and  C_22
REMARK   10  A    between atoms: C_22  and  C_23
REMARK                            x       y       z     vdW  Elec       q    Type
REMARK                         _______ _______ _______ _____ _____    ______ ____
ROOT
ATOM      1  C   UNL     1       5.546   5.558  16.676  0.00  0.00    +0.000 C 
ENDROOT
BRANCH   1   2
ATOM      2  C   UNL     1       4.583   6.793  16.804  0.00  0.00    +0.000 C 
BRANCH   2   3
ATOM      3  O   UNL     1       3.385   6.432  17.434  0.00  0.00    +0.000 OA
BRANCH   3   8
ATOM      4  C   UNL     1       1.543   9.431  18.675  0.00  0.00    +0.000 A 
ATOM      5  C   UNL     1       1.307   8.965  19.977  0.00  0.00    +0.000 A 
ATOM      6  C   UNL     1       1.781   7.724  20.366  0.00  0.00    +0.000 A 
ATOM      7  C   UNL     1       2.471   6.944  19.456  0.00  0.00    +0.000 A 
ATOM      8  C   UNL     1       2.695   7.377  18.144  0.00  0.00    +0.000 A 
ATOM      9  C   UNL     1       2.242   8.637  17.747  0.00  0.00    +0.000 A 
BRANCH   4  11
ATOM     10  C   UNL     1       0.856  11.493  19.608  0.00  0.00    +0.000 C 
ATOM     11  O   UNL     1       1.110  10.715  18.444  0.00  0.00    +0.000 OA
ENDBRANCH   4  11
ENDBRANCH   3   8
ENDBRANCH   2   3
ENDBRANCH   1   2
BRANCH   1  12
ATOM     12  C   UNL     1       5.097   3.961  17.083  0.00  0.00    +0.000 C 
BRANCH  12  13
ATOM     13  N   UNL     1       4.289   3.442  18.278  0.00  0.00    +0.000 N 
ATOM     14  C   UNL     1       4.927   3.832  19.425  0.00  0.00    +0.000 A 
ATOM     15  N   UNL     1       4.820   2.742  20.106  0.00  0.00    +0.000 NA
ATOM     16  C   UNL     1       3.472   2.718  20.043  0.00  0.00    +0.000 A 
ATOM     17  C   UNL     1       2.806   2.311  21.258  0.00  0.00    +0.000 A 
ATOM     18  C   UNL     1       1.537   2.644  21.622  0.00  0.00    +0.000 A 
ATOM     19  C   UNL     1       0.866   3.269  20.626  0.00  0.00    +0.000 A 
ATOM     20  C   UNL     1       1.509   3.520  19.306  0.00  0.00    +0.000 A 
ATOM     21  C   UNL     1       2.914   3.485  18.761  0.00  0.00    +0.000 A 
ENDBRANCH  12  13
ENDBRANCH   1  12
BRANCH   1  22
ATOM     22  O   UNL     1       5.772   5.653  15.190  0.00  0.00    +0.000 OA
BRANCH  22  23
ATOM     23  C   UNL     1       6.703   5.042  14.430  0.00  0.00    +0.000 C 
ATOM     24  C   UNL     1       6.187   3.916  13.589  0.00  0.00    +0.000 C 
ATOM     25  O   UNL     1       7.853   5.450  14.335  0.00  0.00    +0.000 OA
ENDBRANCH  22  23
ENDBRANCH   1  22
TORSDOF 8
ENDMDL
MODEL 2
REMARK VINA RESULT:      -8.3      2.852      6.238
REMARK  Name = 
REMARK  10 active torsions:
REMARK  status: ('A' for Active; 'I' for Inactive)
REMARK    1  A    between atoms: C_1  and  O_2
REMARK    2  A    between atoms: O_2  and  C_3
REMARK    3  A    between atoms: C_7  and  O_8
REMARK    4  A    between atoms: O_8  and  C_9
REMARK    5  A    between atoms: C_9  and  C_10
REMARK    6  A    between atoms: C_10  and  C_11
REMARK    7  A    between atoms: C_10  and  O_21
REMARK    8  A    between atoms: C_11  and  N_12
REMARK    9  A    between atoms: O_21  and  C_22
REMARK   10  A    between atoms: C_22  and  C_23
REMARK                            x       y       z     vdW  Elec       q    Type
REMARK                         _______ _______ _______ _____ _____    ______ ____
ROOT
ATOM      1  C   UNL     1       5.623   6.316  17.023  0.00  0.00    +0.000 C 
ENDROOT
BRANCH   1   2
ATOM      2  C   UNL     1       6.462   5.096  16.498  0.00  0.00    +0.000 C 
BRANCH   2   3
ATOM      3  O   UNL     1       7.262   5.469  15.409  0.00  0.00    +0.000 OA
BRANCH   3   8
ATOM      4  C   UNL     1       6.032   3.528  12.469  0.00  0.00    +0.000 A 
ATOM      5  C   UNL     1       6.922   4.058  11.524  0.00  0.00    +0.000 A 
ATOM      6  C   UNL     1       7.872   4.987  11.911  0.00  0.00    +0.000 A 
ATOM      7  C   UNL     1       7.921   5.400  13.231  0.00  0.00    +0.000 A 
ATOM      8  C   UNL     1       7.025   4.905  14.185  0.00  0.00    +0.000 A 
ATOM      9  C   UNL     1       6.078   3.950  13.811  0.00  0.00    +0.000 A 
BRANCH   4  11
ATOM     10  C   UNL     1       4.106   2.999  11.202  0.00  0.00    +0.000 C 
ATOM     11  O   UNL     1       5.206   2.544  11.982  0.00  0.00    +0.000 OA
ENDBRANCH   4  11
ENDBRANCH   3   8
ENDBRANCH   2   3
ENDBRANCH   1   2
BRANCH   1  12
ATOM     12  C   UNL     1       3.920   6.303  17.164  0.00  0.00    +0.000 C 
BRANCH  12  13
ATOM     13  N   UNL     1       3.010   5.393  17.996  0.00  0.00    +0.000 N 
ATOM     14  C   UNL     1       3.090   4.127  17.481  0.00  0.00    +0.000 A 
ATOM     15  N   UNL     1       1.842   3.803  17.524  0.00  0.00    +0.000 NA
ATOM     16  C   UNL     1       1.736   3.999  18.855  0.00  0.00    +0.000 A 
ATOM     17  C   UNL     1       0.937   3.023  19.559  0.00  0.00    +0.000 A 
ATOM     18  C   UNL     1       1.050   2.701  20.877  0.00  0.00    +0.000 A 
ATOM     19  C   UNL     1       1.889   3.533  21.538  0.00  0.00    +0.000 A 
ATOM     20  C   UNL     1       2.568   4.657  20.834  0.00  0.00    +0.000 A 
ATOM     21  C   UNL     1       2.803   5.051  19.398  0.00  0.00    +0.000 A 
ENDBRANCH  12  13
ENDBRANCH   1  12
BRANCH   1  22
ATOM     22  O   UNL     1       6.241   6.388  18.394  0.00  0.00    +0.000 OA
BRANCH  22  23
ATOM     23  C   UNL     1       6.804   5.405  19.126  0.00  0.00    +0.000 C 
ATOM     24  C   UNL     1       8.168   5.721  19.657  0.00  0.00    +0.000 C 
ATOM     25  O   UNL     1       6.204   4.386  19.441  0.00  0.00    +0.000 OA
ENDBRANCH  22  23
ENDBRANCH   1  22
TORSDOF 8
ENDMDL
MODEL 3
REMARK VINA RESULT:      -8.3      2.481      5.479
REMARK  Name = 
REMARK  10 active torsions:
REMARK  status: ('A' for Active; 'I' for Inactive)
REMARK    1  A    between atoms: C_1  and  O_2
REMARK    2  A    between atoms: O_2  and  C_3
REMARK    3  A    between atoms: C_7  and  O_8
REMARK    4  A    between atoms: O_8  and  C_9
REMARK    5  A    between atoms: C_9  and  C_10
REMARK    6  A    between atoms: C_10  and  C_11
REMARK    7  A    between atoms: C_10  and  O_21
REMARK    8  A    between atoms: C_11  and  N_12
REMARK    9  A    between atoms: O_21  and  C_22
REMARK   10  A    between atoms: C_22  and  C_23
REMARK                            x       y       z     vdW  Elec       q    Type
REMARK                         _______ _______ _______ _____ _____    ______ ____
ROOT
ATOM      1  C   UNL     1       3.740   4.486  17.897  0.00  0.00    +0.000 C 
ENDROOT
BRANCH   1   2
ATOM      2  C   UNL     1       2.502   5.268  18.466  0.00  0.00    +0.000 C 
BRANCH   2   3
ATOM      3  O   UNL     1       2.906   6.248  19.383  0.00  0.00    +0.000 OA
BRANCH   3   8
ATOM      4  C   UNL     1       0.974   9.330  20.216  0.00  0.00    +0.000 A 
ATOM      5  C   UNL     1       1.066   9.941  18.957  0.00  0.00    +0.000 A 
ATOM      6  C   UNL     1       1.727   9.300  17.922  0.00  0.00    +0.000 A 
ATOM      7  C   UNL     1       2.308   8.065  18.148  0.00  0.00    +0.000 A 
ATOM      8  C   UNL     1       2.251   7.450  19.404  0.00  0.00    +0.000 A 
ATOM      9  C   UNL     1       1.568   8.076  20.448  0.00  0.00    +0.000 A 
BRANCH   4  11
ATOM     10  C   UNL     1       0.059  11.411  20.869  0.00  0.00    +0.000 C 
ATOM     11  O   UNL     1       0.210  10.020  21.127  0.00  0.00    +0.000 OA
ENDBRANCH   4  11
ENDBRANCH   3   8
ENDBRANCH   2   3
ENDBRANCH   1   2
BRANCH   1  12
ATOM     12  C   UNL     1       5.111   5.247  17.219  0.00  0.00    +0.000 C 
BRANCH  12  13
ATOM     13  N   UNL     1       5.736   5.089  15.829  0.00  0.00    +0.000 N 
ATOM     14  C   UNL     1       7.038   4.698  15.990  0.00  0.00    +0.000 A 
ATOM     15  N   UNL     1       7.595   5.448  15.100  0.00  0.00    +0.000 NA
ATOM     16  C   UNL     1       6.851   4.962  14.083  0.00  0.00    +0.000 A 
ATOM     17  C   UNL     1       7.564   4.754  12.845  0.00  0.00    +0.000 A 
ATOM     18  C   UNL     1       7.220   3.873  11.865  0.00  0.00    +0.000 A 
ATOM     19  C   UNL     1       6.006   3.314  12.082  0.00  0.00    +0.000 A 
ATOM     20  C   UNL     1       5.195   3.679  13.277  0.00  0.00    +0.000 A 
ATOM     21  C   UNL     1       5.447   4.394  14.580  0.00  0.00    +0.000 A 
ENDBRANCH  12  13
ENDBRANCH   1  12
BRANCH   1  22
ATOM     22  O   UNL     1       4.130   3.799  19.179  0.00  0.00    +0.000 OA
BRANCH  22  23
ATOM     23  C   UNL     1       3.766   2.583  19.637  0.00  0.00    +0.000 C 
ATOM     24  C   UNL     1       3.515   1.561  18.573  0.00  0.00    +0.000 C 
ATOM     25  O   UNL     1       3.763   2.297  20.827  0.00  0.00    +0.000 OA
ENDBRANCH  22  23
ENDBRANCH   1  22
TORSDOF 8
ENDMDL
MODEL 4
REMARK VINA RESULT:      -8.2      2.577      6.231
REMARK  Name = 
REMARK  10 active torsions:
REMARK  status: ('A' for Active; 'I' for Inactive)
REMARK    1  A    between atoms: C_1  and  O_2
REMARK    2  A    between atoms: O_2  and  C_3
REMARK    3  A    between atoms: C_7  and  O_8
REMARK    4  A    between atoms: O_8  and  C_9
REMARK    5  A    between atoms: C_9  and  C_10
REMARK    6  A    between atoms: C_10  and  C_11
REMARK    7  A    between atoms: C_10  and  O_21
REMARK    8  A    between atoms: C_11  and  N_12
REMARK    9  A    between atoms: O_21  and  C_22
REMARK   10  A    between atoms: C_22  and  C_23
REMARK                            x       y       z     vdW  Elec       q    Type
REMARK                         _______ _______ _______ _____ _____    ______ ____
ROOT
ATOM      1  C   UNL     1       5.703   6.302  16.517  0.00  0.00    +0.000 C 
ENDROOT
BRANCH   1   2
ATOM      2  C   UNL     1       6.421   4.904  16.543  0.00  0.00    +0.000 C 
BRANCH   2   3
ATOM      3  O   UNL     1       7.451   4.851  15.594  0.00  0.00    +0.000 OA
BRANCH   3   8
ATOM      4  C   UNL     1       6.096   3.504  12.388  0.00  0.00    +0.000 A 
ATOM      5  C   UNL     1       6.856   4.307  11.525  0.00  0.00    +0.000 A 
ATOM      6  C   UNL     1       7.769   5.210  12.043  0.00  0.00    +0.000 A 
ATOM      7  C   UNL     1       7.910   5.323  13.414  0.00  0.00    +0.000 A 
ATOM      8  C   UNL     1       7.142   4.552  14.294  0.00  0.00    +0.000 A 
ATOM      9  C   UNL     1       6.235   3.623  13.783  0.00  0.00    +0.000 A 
BRANCH   4  11
ATOM     10  C   UNL     1       4.090   3.093  11.204  0.00  0.00    +0.000 C 
ATOM     11  O   UNL     1       5.300   2.582  11.751  0.00  0.00    +0.000 OA
ENDBRANCH   4  11
ENDBRANCH   3   8
ENDBRANCH   2   3
ENDBRANCH   1   2
BRANCH   1  12
ATOM     12  C   UNL     1       4.563   6.803  17.686  0.00  0.00    +0.000 C 
BRANCH  12  13
ATOM     13  N   UNL     1       3.647   5.967  18.587  0.00  0.00    +0.000 N 
ATOM     14  C   UNL     1       2.434   6.597  18.661  0.00  0.00    +0.000 A 
ATOM     15  N   UNL     1       2.201   6.457  19.921  0.00  0.00    +0.000 NA
ATOM     16  C   UNL     1       2.276   5.110  19.887  0.00  0.00    +0.000 A 
ATOM     17  C   UNL     1       1.299   4.419  20.694  0.00  0.00    +0.000 A 
ATOM     18  C   UNL     1       0.844   3.152  20.486  0.00  0.00    +0.000 A 
ATOM     19  C   UNL     1       1.545   2.508  19.523  0.00  0.00    +0.000 A 
ATOM     20  C   UNL     1       2.678   3.175  18.822  0.00  0.00    +0.000 A 
ATOM     21  C   UNL     1       3.189   4.587  18.689  0.00  0.00    +0.000 A 
ENDBRANCH  12  13
ENDBRANCH   1  12
BRANCH   1  22
ATOM     22  O   UNL     1       6.944   7.148  16.629  0.00  0.00    +0.000 OA
BRANCH  22  23
ATOM     23  C   UNL     1       7.674   7.446  17.724  0.00  0.00    +0.000 C 
ATOM     24  C   UNL     1       8.052   8.889  17.852  0.00  0.00    +0.000 C 
ATOM     25  O   UNL     1       7.904   6.633  18.609  0.00  0.00    +0.000 OA
ENDBRANCH  22  23
ENDBRANCH   1  22
TORSDOF 8
ENDMDL
MODEL 5
REMARK VINA RESULT:      -8.1      1.281      1.732
REMARK  Name = 
REMARK  10 active torsions:
REMARK  status: ('A' for Active; 'I' for Inactive)
REMARK    1  A    between atoms: C_1  and  O_2
REMARK    2  A    between atoms: O_2  and  C_3
REMARK    3  A    between atoms: C_7  and  O_8
REMARK    4  A    between atoms: O_8  and  C_9
REMARK    5  A    between atoms: C_9  and  C_10
REMARK    6  A    between atoms: C_10  and  C_11
REMARK    7  A    between atoms: C_10  and  O_21
REMARK    8  A    between atoms: C_11  and  N_12
REMARK    9  A    between atoms: O_21  and  C_22
REMARK   10  A    between atoms: C_22  and  C_23
REMARK                            x       y       z     vdW  Elec       q    Type
REMARK                         _______ _______ _______ _____ _____    ______ ____
ROOT
ATOM      1  C   UNL     1       6.271   6.054  16.857  0.00  0.00    +0.000 C 
ENDROOT
BRANCH   1   2
ATOM      2  C   UNL     1       5.231   7.217  17.047  0.00  0.00    +0.000 C 
BRANCH   2   3
ATOM      3  O   UNL     1       3.946   6.709  17.279  0.00  0.00    +0.000 OA
BRANCH   3   8
ATOM      4  C   UNL     1       1.733   8.005  19.990  0.00  0.00    +0.000 A 
ATOM      5  C   UNL     1       1.329   9.180  19.339  0.00  0.00    +0.000 A 
ATOM      6  C   UNL     1       1.783   9.456  18.060  0.00  0.00    +0.000 A 
ATOM      7  C   UNL     1       2.650   8.574  17.442  0.00  0.00    +0.000 A 
ATOM      8  C   UNL     1       3.088   7.410  18.083  0.00  0.00    +0.000 A 
ATOM      9  C   UNL     1       2.619   7.109  19.363  0.00  0.00    +0.000 A 
BRANCH   4  11
ATOM     10  C   UNL     1       0.004   8.614  21.484  0.00  0.00    +0.000 C 
ATOM     11  O   UNL     1       1.137   7.798  21.210  0.00  0.00    +0.000 OA
ENDBRANCH   4  11
ENDBRANCH   3   8
ENDBRANCH   2   3
ENDBRANCH   1   2
BRANCH   1  12
ATOM     12  C   UNL     1       6.191   4.567  17.694  0.00  0.00    +0.000 C 
BRANCH  12  13
ATOM     13  N   UNL     1       4.972   3.787  18.198  0.00  0.00    +0.000 N 
ATOM     14  C   UNL     1       4.935   3.890  19.563  0.00  0.00    +0.000 A 
ATOM     15  N   UNL     1       4.634   2.672  19.858  0.00  0.00    +0.000 NA
ATOM     16  C   UNL     1       3.493   2.674  19.136  0.00  0.00    +0.000 A 
ATOM     17  C   UNL     1       2.375   1.997  19.750  0.00  0.00    +0.000 A 
ATOM     18  C   UNL     1       1.059   2.245  19.504  0.00  0.00    +0.000 A 
ATOM     19  C   UNL     1       0.884   3.093  18.463  0.00  0.00    +0.000 A 
ATOM     20  C   UNL     1       2.050   3.642  17.715  0.00  0.00    +0.000 A 
ATOM     21  C   UNL     1       3.538   3.726  17.939  0.00  0.00    +0.000 A 
ENDBRANCH  12  13
ENDBRANCH   1  12
BRANCH   1  22
ATOM     22  O   UNL     1       6.019   5.820  15.391  0.00  0.00    +0.000 OA
BRANCH  22  23
ATOM     23  C   UNL     1       6.764   5.135  14.499  0.00  0.00    +0.000 C 
ATOM     24  C   UNL     1       6.092   3.932  13.912  0.00  0.00    +0.000 C 
ATOM     25  O   UNL     1       7.852   5.529  14.102  0.00  0.00    +0.000 OA
ENDBRANCH  22  23
ENDBRANCH   1  22
TORSDOF 8
ENDMDL
MODEL 6
REMARK VINA RESULT:      -8.1      3.034      7.050
REMARK  Name = 
REMARK  10 active torsions:
REMARK  status: ('A' for Active; 'I' for Inactive)
REMARK    1  A    between atoms: C_1  and  O_2
REMARK    2  A    between atoms: O_2  and  C_3
REMARK    3  A    between atoms: C_7  and  O_8
REMARK    4  A    between atoms: O_8  and  C_9
REMARK    5  A    between atoms: C_9  and  C_10
REMARK    6  A    between atoms: C_10  and  C_11
REMARK    7  A    between atoms: C_10  and  O_21
REMARK    8  A    between atoms: C_11  and  N_12
REMARK    9  A    between atoms: O_21  and  C_22
REMARK   10  A    between atoms: C_22  and  C_23
REMARK                            x       y       z     vdW  Elec       q    Type
REMARK                         _______ _______ _______ _____ _____    ______ ____
ROOT
ATOM      1  C   UNL     1       2.590   6.452  19.133  0.00  0.00    +0.000 C 
ENDROOT
BRANCH   1   2
ATOM      2  C   UNL     1       2.612   5.362  18.002  0.00  0.00    +0.000 C 
BRANCH   2   3
ATOM      3  O   UNL     1       3.738   4.537  18.121  0.00  0.00    +0.000 OA
BRANCH   3   8
ATOM      4  C   UNL     1       6.833   5.925  16.563  0.00  0.00    +0.000 A 
ATOM      5  C   UNL     1       6.987   4.942  15.575  0.00  0.00    +0.000 A 
ATOM      6  C   UNL     1       6.065   3.914  15.468  0.00  0.00    +0.000 A 
ATOM      7  C   UNL     1       5.005   3.857  16.356  0.00  0.00    +0.000 A 
ATOM      8  C   UNL     1       4.847   4.811  17.367  0.00  0.00    +0.000 A 
ATOM      9  C   UNL     1       5.757   5.865  17.469  0.00  0.00    +0.000 A 
BRANCH   4  11
ATOM     10  C   UNL     1       7.710   7.873  17.577  0.00  0.00    +0.000 C 
ATOM     11  O   UNL     1       7.754   6.942  16.502  0.00  0.00    +0.000 OA
ENDBRANCH   4  11
ENDBRANCH   3   8
ENDBRANCH   2   3
ENDBRANCH   1   2
BRANCH   1  12
ATOM     12  C   UNL     1       2.151   8.082  18.871  0.00  0.00    +0.000 C 
BRANCH  12  13
ATOM     13  N   UNL     1       1.493   9.087  19.821  0.00  0.00    +0.000 N 
ATOM     14  C   UNL     1       0.574   9.809  19.107  0.00  0.00    +0.000 A 
ATOM     15  N   UNL     1       0.820  10.985  19.575  0.00  0.00    +0.000 NA
ATOM     16  C   UNL     1       0.576  10.635  20.855  0.00  0.00    +0.000 A 
ATOM     17  C   UNL     1      -0.141  11.617  21.635  0.00  0.00    +0.000 A 
ATOM     18  C   UNL     1      -0.909  11.360  22.730  0.00  0.00    +0.000 A 
ATOM     19  C   UNL     1      -0.795  10.075  23.145  0.00  0.00    +0.000 A 
ATOM     20  C   UNL     1       0.097   9.115  22.437  0.00  0.00    +0.000 A 
ATOM     21  C   UNL     1       0.816   9.080  21.113  0.00  0.00    +0.000 A 
ENDBRANCH  12  13
ENDBRANCH   1  12
BRANCH   1  22
ATOM     22  O   UNL     1       1.560   5.788  20.009  0.00  0.00    +0.000 OA
BRANCH  22  23
ATOM     23  C   UNL     1       1.652   4.639  20.710  0.00  0.00    +0.000 C 
ATOM     24  C   UNL     1       0.770   3.533  20.222  0.00  0.00    +0.000 C 
ATOM     25  O   UNL     1       2.481   4.468  21.595  0.00  0.00    +0.000 OA
ENDBRANCH  22  23
ENDBRANCH   1  22
TORSDOF 8
ENDMDL
MODEL 7
REMARK VINA RESULT:      -8.1      1.009      1.587
REMARK  Name = 
REMARK  10 active torsions:
REMARK  status: ('A' for Active; 'I' for Inactive)
REMARK    1  A    between atoms: C_1  and  O_2
REMARK    2  A    between atoms: O_2  and  C_3
REMARK    3  A    between atoms: C_7  and  O_8
REMARK    4  A    between atoms: O_8  and  C_9
REMARK    5  A    between atoms: C_9  and  C_10
REMARK    6  A    between atoms: C_10  and  C_11
REMARK    7  A    between atoms: C_10  and  O_21
REMARK    8  A    between atoms: C_11  and  N_12
REMARK    9  A    between atoms: O_21  and  C_22
REMARK   10  A    between atoms: C_22  and  C_23
REMARK                            x       y       z     vdW  Elec       q    Type
REMARK                         _______ _______ _______ _____ _____    ______ ____
ROOT
ATOM      1  C   UNL     1       5.847   4.805  16.591  0.00  0.00    +0.000 C 
ENDROOT
BRANCH   1   2
ATOM      2  C   UNL     1       5.708   6.263  17.160  0.00  0.00    +0.000 C 
BRANCH   2   3
ATOM      3  O   UNL     1       4.569   6.896  16.644  0.00  0.00    +0.000 OA
BRANCH   3   8
ATOM      4  C   UNL     1       1.874   8.749  18.442  0.00  0.00    +0.000 A 
ATOM      5  C   UNL     1       1.806   7.913  19.566  0.00  0.00    +0.000 A 
ATOM      6  C   UNL     1       2.653   6.823  19.672  0.00  0.00    +0.000 A 
ATOM      7  C   UNL     1       3.552   6.559  18.653  0.00  0.00    +0.000 A 
ATOM      8  C   UNL     1       3.618   7.364  17.511  0.00  0.00    +0.000 A 
ATOM      9  C   UNL     1       2.784   8.479  17.403  0.00  0.00    +0.000 A 
BRANCH   4  11
ATOM     10  C   UNL     1       0.527  10.150  19.790  0.00  0.00    +0.000 C 
ATOM     11  O   UNL     1       1.053   9.849  18.502  0.00  0.00    +0.000 OA
ENDBRANCH   4  11
ENDBRANCH   3   8
ENDBRANCH   2   3
ENDBRANCH   1   2
BRANCH   1  12
ATOM     12  C   UNL     1       4.718   3.559  16.892  0.00  0.00    +0.000 C 
BRANCH  12  13
ATOM     13  N   UNL     1       3.627   3.460  17.962  0.00  0.00    +0.000 N 
ATOM     14  C   UNL     1       2.675   2.581  17.519  0.00  0.00    +0.000 A 
ATOM     15  N   UNL     1       1.614   3.226  17.866  0.00  0.00    +0.000 NA
ATOM     16  C   UNL     1       1.951   3.275  19.173  0.00  0.00    +0.000 A 
ATOM     17  C   UNL     1       0.862   3.067  20.097  0.00  0.00    +0.000 A 
ATOM     18  C   UNL     1       0.975   2.600  21.372  0.00  0.00    +0.000 A 
ATOM     19  C   UNL     1       2.266   2.512  21.771  0.00  0.00    +0.000 A 
ATOM     20  C   UNL     1       3.380   2.907  20.865  0.00  0.00    +0.000 A 
ATOM     21  C   UNL     1       3.528   3.194  19.393  0.00  0.00    +0.000 A 
ENDBRANCH  12  13
ENDBRANCH   1  12
BRANCH   1  22
ATOM     22  O   UNL     1       5.812   5.174  15.130  0.00  0.00    +0.000 OA
BRANCH  22  23
ATOM     23  C   UNL     1       6.669   4.831  14.146  0.00  0.00    +0.000 C 
ATOM     24  C   UNL     1       6.175   3.756  13.230  0.00  0.00    +0.000 C 
ATOM     25  O   UNL     1       7.713   5.435  13.937  0.00  0.00    +0.000 OA
ENDBRANCH  22  23
ENDBRANCH   1  22
TORSDOF 8
ENDMDL
MODEL 8
REMARK VINA RESULT:      -8.0      1.220      1.611
REMARK  Name = 
REMARK  10 active torsions:
REMARK  status: ('A' for Active; 'I' for Inactive)
REMARK    1  A    between atoms: C_1  and  O_2
REMARK    2  A    between atoms: O_2  and  C_3
REMARK    3  A    between atoms: C_7  and  O_8
REMARK    4  A    between atoms: O_8  and  C_9
REMARK    5  A    between atoms: C_9  and  C_10
REMARK    6  A    between atoms: C_10  and  C_11
REMARK    7  A    between atoms: C_10  and  O_21
REMARK    8  A    between atoms: C_11  and  N_12
REMARK    9  A    between atoms: O_21  and  C_22
REMARK   10  A    between atoms: C_22  and  C_23
REMARK                            x       y       z     vdW  Elec       q    Type
REMARK                         _______ _______ _______ _____ _____    ______ ____
ROOT
ATOM      1  C   UNL     1       5.633   4.918  16.217  0.00  0.00    +0.000 C 
ENDROOT
BRANCH   1   2
ATOM      2  C   UNL     1       4.949   6.317  16.422  0.00  0.00    +0.000 C 
BRANCH   2   3
ATOM      3  O   UNL     1       4.891   6.652  17.782  0.00  0.00    +0.000 OA
BRANCH   3   8
ATOM      4  C   UNL     1       1.909   7.657  19.788  0.00  0.00    +0.000 A 
ATOM      5  C   UNL     1       1.385   8.582  18.873  0.00  0.00    +0.000 A 
ATOM      6  C   UNL     1       2.021   8.796  17.662  0.00  0.00    +0.000 A 
ATOM      7  C   UNL     1       3.185   8.104  17.374  0.00  0.00    +0.000 A 
ATOM      8  C   UNL     1       3.740   7.198  18.284  0.00  0.00    +0.000 A 
ATOM      9  C   UNL     1       3.095   6.957  19.498  0.00  0.00    +0.000 A 
BRANCH   4  11
ATOM     10  C   UNL     1       0.937   8.614  21.721  0.00  0.00    +0.000 C 
ATOM     11  O   UNL     1       1.134   7.464  20.906  0.00  0.00    +0.000 OA
ENDBRANCH   4  11
ENDBRANCH   3   8
ENDBRANCH   2   3
ENDBRANCH   1   2
BRANCH   1  12
ATOM     12  C   UNL     1       4.978   3.449  16.793  0.00  0.00    +0.000 C 
BRANCH  12  13
ATOM     13  N   UNL     1       4.171   3.165  18.064  0.00  0.00    +0.000 N 
ATOM     14  C   UNL     1       4.910   3.581  19.139  0.00  0.00    +0.000 A 
ATOM     15  N   UNL     1       4.699   2.590  19.937  0.00  0.00    +0.000 NA
ATOM     16  C   UNL     1       3.357   2.738  19.925  0.00  0.00    +0.000 A 
ATOM     17  C   UNL     1       2.707   2.548  21.200  0.00  0.00    +0.000 A 
ATOM     18  C   UNL     1       1.511   3.081  21.573  0.00  0.00    +0.000 A 
ATOM     19  C   UNL     1       0.876   3.686  20.540  0.00  0.00    +0.000 A 
ATOM     20  C   UNL     1       1.478   3.714  19.179  0.00  0.00    +0.000 A 
ATOM     21  C   UNL     1       2.839   3.439  18.590  0.00  0.00    +0.000 A 
ENDBRANCH  12  13
ENDBRANCH   1  12
BRANCH   1  22
ATOM     22  O   UNL     1       5.612   4.921  14.711  0.00  0.00    +0.000 OA
BRANCH  22  23
ATOM     23  C   UNL     1       6.618   4.681  13.845  0.00  0.00    +0.000 C 
ATOM     24  C   UNL     1       6.275   3.747  12.727  0.00  0.00    +0.000 C 
ATOM     25  O   UNL     1       7.688   5.274  13.892  0.00  0.00    +0.000 OA
ENDBRANCH  22  23
ENDBRANCH   1  22
TORSDOF 8
ENDMDL
MODEL 9
REMARK VINA RESULT:      -8.0      4.207      4.750
REMARK  Name = 
REMARK  10 active torsions:
REMARK  status: ('A' for Active; 'I' for Inactive)
REMARK    1  A    between atoms: C_1  and  O_2
REMARK    2  A    between atoms: O_2  and  C_3
REMARK    3  A    between atoms: C_7  and  O_8
REMARK    4  A    between atoms: O_8  and  C_9
REMARK    5  A    between atoms: C_9  and  C_10
REMARK    6  A    between atoms: C_10  and  C_11
REMARK    7  A    between atoms: C_10  and  O_21
REMARK    8  A    between atoms: C_11  and  N_12
REMARK    9  A    between atoms: O_21  and  C_22
REMARK   10  A    between atoms: C_22  and  C_23
REMARK                            x       y       z     vdW  Elec       q    Type
REMARK                         _______ _______ _______ _____ _____    ______ ____
ROOT
ATOM      1  C   UNL     1       7.112   6.425  17.651  0.00  0.00    +0.000 C 
ENDROOT
BRANCH   1   2
ATOM      2  C   UNL     1       6.972   7.989  17.596  0.00  0.00    +0.000 C 
BRANCH   2   3
ATOM      3  O   UNL     1       8.203   8.594  17.308  0.00  0.00    +0.000 OA
BRANCH   3   8
ATOM      4  C   UNL     1       8.783  12.140  18.314  0.00  0.00    +0.000 A 
ATOM      5  C   UNL     1       9.344  11.876  19.572  0.00  0.00    +0.000 A 
ATOM      6  C   UNL     1       9.516  10.569  19.994  0.00  0.00    +0.000 A 
ATOM      7  C   UNL     1       9.113   9.531  19.173  0.00  0.00    +0.000 A 
ATOM      8  C   UNL     1       8.526   9.772  17.926  0.00  0.00    +0.000 A 
ATOM      9  C   UNL     1       8.369  11.085  17.480  0.00  0.00    +0.000 A 
BRANCH   4  11
ATOM     10  C   UNL     1       9.085  14.378  19.018  0.00  0.00    +0.000 C 
ATOM     11  O   UNL     1       8.757  13.471  17.971  0.00  0.00    +0.000 OA
ENDBRANCH   4  11
ENDBRANCH   3   8
ENDBRANCH   2   3
ENDBRANCH   1   2
BRANCH   1  12
ATOM     12  C   UNL     1       6.351   5.447  18.826  0.00  0.00    +0.000 C 
BRANCH  12  13
ATOM     13  N   UNL     1       4.925   4.889  18.866  0.00  0.00    +0.000 N 
ATOM     14  C   UNL     1       5.003   3.530  19.014  0.00  0.00    +0.000 A 
ATOM     15  N   UNL     1       4.091   3.174  18.175  0.00  0.00    +0.000 NA
ATOM     16  C   UNL     1       3.115   3.877  18.786  0.00  0.00    +0.000 A 
ATOM     17  C   UNL     1       1.833   3.216  18.859  0.00  0.00    +0.000 A 
ATOM     18  C   UNL     1       0.864   3.453  19.786  0.00  0.00    +0.000 A 
ATOM     19  C   UNL     1       1.147   4.530  20.557  0.00  0.00    +0.000 A 
ATOM     20  C   UNL     1       2.392   5.320  20.347  0.00  0.00    +0.000 A 
ATOM     21  C   UNL     1       3.687   5.123  19.601  0.00  0.00    +0.000 A 
ENDBRANCH  12  13
ENDBRANCH   1  12
BRANCH   1  22
ATOM     22  O   UNL     1       6.517   6.139  16.296  0.00  0.00    +0.000 OA
BRANCH  22  23
ATOM     23  C   UNL     1       6.902   5.235  15.372  0.00  0.00    +0.000 C 
ATOM     24  C   UNL     1       6.065   3.995  15.321  0.00  0.00    +0.000 C 
ATOM     25  O   UNL     1       7.784   5.459  14.553  0.00  0.00    +0.000 OA
ENDBRANCH  22  23
ENDBRANCH   1  22
TORSDOF 8
ENDMDL
