MODEL 1
REMARK VINA RESULT:      -8.8      0.000      0.000
REMARK  Name = 
REMARK  14 active torsions:
REMARK  status: ('A' for Active; 'I' for Inactive)
REMARK    1  A    between atoms: C_1  and  C_2
REMARK    2  A    between atoms: C_2  and  C_3
REMARK    3  A    between atoms: C_2  and  N_4
REMARK    4  A    between atoms: N_4  and  C_34
REMARK    5  A    between atoms: C_5  and  C_7
REMARK    6  A    between atoms: C_7  and  C_8
REMARK    7  A    between atoms: C_7  and  C_14
REMARK    8  A    between atoms: C_14  and  C_15
REMARK    9  A    between atoms: C_14  and  C_28
REMARK   10  A    between atoms: C_15  and  N_16
REMARK   11  A    between atoms: N_19  and  C_20
REMARK   12  A    between atoms: C_20  and  C_21
REMARK   13  A    between atoms: C_34  and  C_35
REMARK   14  A    between atoms: C_34  and  C_36
REMARK                            x       y       z     vdW  Elec       q    Type
REMARK                         _______ _______ _______ _____ _____    ______ ____
ROOT
ATOM      1  C   UNL     1       5.778   5.696  17.065  0.00  0.00    +0.000 C 
ENDROOT
BRANCH   1   2
ATOM      2  C   UNL     1       5.983   5.149  15.633  0.00  0.00    +0.000 A 
ATOM      3  C   UNL     1       4.988   4.396  14.995  0.00  0.00    +0.000 A 
ATOM      4  C   UNL     1       5.233   3.730  13.786  0.00  0.00    +0.000 A 
ATOM      5  C   UNL     1       6.460   3.853  13.154  0.00  0.00    +0.000 A 
ATOM      6  C   UNL     1       7.398   4.728  13.679  0.00  0.00    +0.000 A 
ATOM      7  C   UNL     1       7.145   5.389  14.886  0.00  0.00    +0.000 A 
ENDBRANCH   1   2
BRANCH   1   8
ATOM      8  C   UNL     1       4.357   5.311  17.685  0.00  0.00    +0.000 C 
BRANCH   8   9
ATOM      9  C   UNL     1       3.550   6.519  18.173  0.00  0.00    +0.000 A 
ATOM     10  C   UNL     1       3.347   7.629  17.343  0.00  0.00    +0.000 A 
ATOM     11  C   UNL     1       2.495   8.655  17.749  0.00  0.00    +0.000 A 
ATOM     12  C   UNL     1       1.881   8.554  18.985  0.00  0.00    +0.000 A 
ATOM     13  N   UNL     1       2.098   7.537  19.839  0.00  0.00    +0.000 NA
ATOM     14  C   UNL     1       2.928   6.555  19.423  0.00  0.00    +0.000 A 
ENDBRANCH   8   9
BRANCH   8  16
ATOM     15  N   UNL     1       3.337   3.302  19.023  0.00  0.00    +0.000 N 
ATOM     16  C   UNL     1       4.399   4.207  18.795  0.00  0.00    +0.000 C 
ATOM     17  O   UNL     1       5.372   4.229  19.558  0.00  0.00    +0.000 OA
BRANCH  15  19
ATOM     18  C   UNL     1       4.831   1.736  20.486  0.00  0.00    +0.000 C 
ATOM     19  C   UNL     1       3.439   2.316  20.168  0.00  0.00    +0.000 C 
ATOM     20  C   UNL     1       2.822   2.818  21.481  0.00  0.00    +0.000 C 
ENDBRANCH  15  19
BRANCH  15  21
ATOM     21  C   UNL     1       2.189   3.120  18.082  0.00  0.00    +0.000 C 
ATOM     22  C   UNL     1       2.532   2.142  16.956  0.00  0.00    +0.000 C 
ATOM     23  C   UNL     1       0.861   2.710  18.722  0.00  0.00    +0.000 C 
ENDBRANCH  15  21
ENDBRANCH   8  16
ENDBRANCH   1   8
BRANCH   1  24
ATOM     24  C   UNL     1       6.993   5.488  18.033  0.00  0.00    +0.000 C 
BRANCH  24  25
ATOM     25  N   UNL     1       7.616   6.724  18.489  0.00  0.00    +0.000 N 
ATOM     26  C   UNL     1       7.604   7.909  17.832  0.00  0.00    +0.000 C 
ATOM     27  O   UNL     1       6.889   8.165  16.868  0.00  0.00    +0.000 OA
ATOM     28  N   UNL     1       8.539   8.776  18.329  0.00  0.00    +0.000 N 
ATOM     29  H   UNL     1       8.291   6.629  19.237  0.00  0.00    +0.000 HD
ATOM     30  H   UNL     1       9.025   8.520  19.177  0.00  0.00    +0.000 HD
BRANCH  28  31
ATOM     31  C   UNL     1       8.784  10.077  17.756  0.00  0.00    +0.000 C 
BRANCH  31  32
ATOM     32  C   UNL     1       9.582  10.971  18.676  0.00  0.00    +0.000 A 
ATOM     33  C   UNL     1       9.398  10.917  20.066  0.00  0.00    +0.000 A 
ATOM     34  C   UNL     1      10.193  11.680  20.929  0.00  0.00    +0.000 A 
ATOM     35  C   UNL     1      11.182  12.512  20.409  0.00  0.00    +0.000 A 
ATOM     36  C   UNL     1      11.360  12.578  19.034  0.00  0.00    +0.000 A 
ATOM     37  F   UNL     1      12.316  13.371  18.531  0.00  0.00    +0.000 F 
ATOM     38  C   UNL     1      10.576  11.818  18.167  0.00  0.00    +0.000 A 
ENDBRANCH  31  32
ENDBRANCH  28  31
ENDBRANCH  24  25
ENDBRANCH   1  24
TORSDOF 10
ENDMDL
MODEL 2
REMARK VINA RESULT:      -8.7      1.016      1.639
REMARK  Name = 
REMARK  14 active torsions:
REMARK  status: ('A' for Active; 'I' for Inactive)
REMARK    1  A    between atoms: C_1  and  C_2
REMARK    2  A    between atoms: C_2  and  C_3
REMARK    3  A    between atoms: C_2  and  N_4
REMARK    4  A    between atoms: N_4  and  C_34
REMARK    5  A    between atoms: C_5  and  C_7
REMARK    6  A    between atoms: C_7  and  C_8
REMARK    7  A    between atoms: C_7  and  C_14
REMARK    8  A    between atoms: C_14  and  C_15
REMARK    9  A    between atoms: C_14  and  C_28
REMARK   10  A    between atoms: C_15  and  N_16
REMARK   11  A    between atoms: N_19  and  C_20
REMARK   12  A    between atoms: C_20  and  C_21
REMARK   13  A    between atoms: C_34  and  C_35
REMARK   14  A    between atoms: C_34  and  C_36
REMARK                            x       y       z     vdW  Elec       q    Type
REMARK                         _______ _______ _______ _____ _____    ______ ____
ROOT
ATOM      1  C   UNL     1       5.896   5.684  17.030  0.00  0.00    +0.000 C 
ENDROOT
BRANCH   1   2
ATOM      2  C   UNL     1       6.017   5.131  15.592  0.00  0.00    +0.000 A 
ATOM      3  C   UNL     1       4.943   4.479  14.972  0.00  0.00    +0.000 A 
ATOM      4  C   UNL     1       5.097   3.801  13.754  0.00  0.00    +0.000 A 
ATOM      5  C   UNL     1       6.315   3.814  13.095  0.00  0.00    +0.000 A 
ATOM      6  C   UNL     1       7.343   4.594  13.604  0.00  0.00    +0.000 A 
ATOM      7  C   UNL     1       7.180   5.266  14.819  0.00  0.00    +0.000 A 
ENDBRANCH   1   2
BRANCH   1   8
ATOM      8  C   UNL     1       4.504   5.323  17.725  0.00  0.00    +0.000 C 
BRANCH   8   9
ATOM      9  C   UNL     1       3.576   6.528  17.912  0.00  0.00    +0.000 A 
ATOM     10  C   UNL     1       2.777   6.647  19.056  0.00  0.00    +0.000 A 
ATOM     11  C   UNL     1       2.047   7.814  19.276  0.00  0.00    +0.000 A 
ATOM     12  C   UNL     1       2.119   8.826  18.335  0.00  0.00    +0.000 A 
ATOM     13  N   UNL     1       2.824   8.727  17.193  0.00  0.00    +0.000 NA
ATOM     14  C   UNL     1       3.523   7.586  17.003  0.00  0.00    +0.000 A 
ENDBRANCH   8   9
BRANCH   8  16
ATOM     15  N   UNL     1       3.774   3.445  19.402  0.00  0.00    +0.000 N 
ATOM     16  C   UNL     1       4.625   4.523  19.067  0.00  0.00    +0.000 C 
ATOM     17  O   UNL     1       5.440   4.951  19.892  0.00  0.00    +0.000 OA
BRANCH  15  19
ATOM     18  C   UNL     1       2.629   2.431  21.520  0.00  0.00    +0.000 C 
ATOM     19  C   UNL     1       3.920   2.780  20.755  0.00  0.00    +0.000 C 
ATOM     20  C   UNL     1       4.818   1.535  20.744  0.00  0.00    +0.000 C 
ENDBRANCH  15  19
BRANCH  15  21
ATOM     21  C   UNL     1       2.853   2.784  18.426  0.00  0.00    +0.000 C 
ATOM     22  C   UNL     1       1.618   3.644  18.144  0.00  0.00    +0.000 C 
ATOM     23  C   UNL     1       3.486   2.355  17.100  0.00  0.00    +0.000 C 
ENDBRANCH  15  21
ENDBRANCH   8  16
ENDBRANCH   1   8
BRANCH   1  24
ATOM     24  C   UNL     1       7.157   5.460  17.934  0.00  0.00    +0.000 C 
BRANCH  24  25
ATOM     25  N   UNL     1       7.740   6.685  18.465  0.00  0.00    +0.000 N 
ATOM     26  C   UNL     1       7.685   7.909  17.885  0.00  0.00    +0.000 C 
ATOM     27  O   UNL     1       6.957   8.201  16.941  0.00  0.00    +0.000 OA
ATOM     28  N   UNL     1       8.592   8.774  18.434  0.00  0.00    +0.000 N 
ATOM     29  H   UNL     1       8.421   6.566  19.204  0.00  0.00    +0.000 HD
ATOM     30  H   UNL     1       9.090   8.482  19.263  0.00  0.00    +0.000 HD
BRANCH  28  31
ATOM     31  C   UNL     1       8.790  10.116  17.943  0.00  0.00    +0.000 C 
BRANCH  31  32
ATOM     32  C   UNL     1       9.745  10.909  18.806  0.00  0.00    +0.000 A 
ATOM     33  C   UNL     1      10.947  11.404  18.278  0.00  0.00    +0.000 A 
ATOM     34  C   UNL     1      11.795  12.210  19.046  0.00  0.00    +0.000 A 
ATOM     35  C   UNL     1      11.450  12.529  20.358  0.00  0.00    +0.000 A 
ATOM     36  C   UNL     1      10.266  12.032  20.888  0.00  0.00    +0.000 A 
ATOM     37  F   UNL     1       9.928  12.343  22.147  0.00  0.00    +0.000 F 
ATOM     38  C   UNL     1       9.414  11.232  20.129  0.00  0.00    +0.000 A 
ENDBRANCH  31  32
ENDBRANCH  28  31
ENDBRANCH  24  25
ENDBRANCH   1  24
TORSDOF 10
ENDMDL
MODEL 3
REMARK VINA RESULT:      -8.7      1.735      2.121
REMARK  Name = 
REMARK  14 active torsions:
REMARK  status: ('A' for Active; 'I' for Inactive)
REMARK    1  A    between atoms: C_1  and  C_2
REMARK    2  A    between atoms: C_2  and  C_3
REMARK    3  A    between atoms: C_2  and  N_4
REMARK    4  A    between atoms: N_4  and  C_34
REMARK    5  A    between atoms: C_5  and  C_7
REMARK    6  A    between atoms: C_7  and  C_8
REMARK    7  A    between atoms: C_7  and  C_14
REMARK    8  A    between atoms: C_14  and  C_15
REMARK    9  A    between atoms: C_14  and  C_28
REMARK   10  A    between atoms: C_15  and  N_16
REMARK   11  A    between atoms: N_19  and  C_20
REMARK   12  A    between atoms: C_20  and  C_21
REMARK   13  A    between atoms: C_34  and  C_35
REMARK   14  A    between atoms: C_34  and  C_36
REMARK                            x       y       z     vdW  Elec       q    Type
REMARK                         _______ _______ _______ _____ _____    ______ ____
ROOT
ATOM      1  C   UNL     1       5.291   6.451  16.982  0.00  0.00    +0.000 C 
ENDROOT
BRANCH   1   2
ATOM      2  C   UNL     1       5.671   5.477  15.843  0.00  0.00    +0.000 A 
ATOM      3  C   UNL     1       6.982   5.407  15.355  0.00  0.00    +0.000 A 
ATOM      4  C   UNL     1       7.299   4.681  14.198  0.00  0.00    +0.000 A 
ATOM      5  C   UNL     1       6.322   3.953  13.539  0.00  0.00    +0.000 A 
ATOM      6  C   UNL     1       5.057   3.869  14.100  0.00  0.00    +0.000 A 
ATOM      7  C   UNL     1       4.750   4.598  15.254  0.00  0.00    +0.000 A 
ENDBRANCH   1   2
BRANCH   1   8
ATOM      8  C   UNL     1       3.989   5.996  17.787  0.00  0.00    +0.000 C 
BRANCH   8   9
ATOM      9  C   UNL     1       3.133   7.164  18.287  0.00  0.00    +0.000 A 
ATOM     10  C   UNL     1       2.911   8.288  17.480  0.00  0.00    +0.000 A 
ATOM     11  C   UNL     1       2.018   9.275  17.893  0.00  0.00    +0.000 A 
ATOM     12  C   UNL     1       1.384   9.125  19.113  0.00  0.00    +0.000 A 
ATOM     13  N   UNL     1       1.616   8.094  19.947  0.00  0.00    +0.000 NA
ATOM     14  C   UNL     1       2.486   7.149  19.524  0.00  0.00    +0.000 A 
ENDBRANCH   8   9
BRANCH   8  16
ATOM     15  N   UNL     1       3.374   3.925  19.273  0.00  0.00    +0.000 N 
ATOM     16  C   UNL     1       4.254   4.985  18.954  0.00  0.00    +0.000 C 
ATOM     17  O   UNL     1       5.230   5.220  19.676  0.00  0.00    +0.000 OA
BRANCH  15  19
ATOM     18  C   UNL     1       2.509   2.680  21.399  0.00  0.00    +0.000 C 
ATOM     19  C   UNL     1       3.679   3.043  20.465  0.00  0.00    +0.000 C 
ATOM     20  C   UNL     1       4.424   1.749  20.110  0.00  0.00    +0.000 C 
ENDBRANCH  15  19
BRANCH  15  21
ATOM     21  C   UNL     1       2.249   3.491  18.388  0.00  0.00    +0.000 C 
ATOM     22  C   UNL     1       2.688   2.397  17.411  0.00  0.00    +0.000 C 
ATOM     23  C   UNL     1       0.971   3.049  19.104  0.00  0.00    +0.000 C 
ENDBRANCH  15  21
ENDBRANCH   8  16
ENDBRANCH   1   8
BRANCH   1  24
ATOM     24  C   UNL     1       6.488   6.915  17.882  0.00  0.00    +0.000 C 
BRANCH  24  25
ATOM     25  N   UNL     1       7.146   8.132  17.423  0.00  0.00    +0.000 N 
ATOM     26  C   UNL     1       8.176   8.759  18.041  0.00  0.00    +0.000 C 
ATOM     27  O   UNL     1       8.838   8.278  18.956  0.00  0.00    +0.000 OA
ATOM     28  N   UNL     1       8.353  10.032  17.570  0.00  0.00    +0.000 N 
ATOM     29  H   UNL     1       6.653   8.662  16.717  0.00  0.00    +0.000 HD
ATOM     30  H   UNL     1       7.824  10.319  16.758  0.00  0.00    +0.000 HD
BRANCH  28  31
ATOM     31  C   UNL     1       9.333  10.940  18.115  0.00  0.00    +0.000 C 
BRANCH  31  32
ATOM     32  C   UNL     1       8.787  12.338  18.294  0.00  0.00    +0.000 A 
ATOM     33  C   UNL     1       7.859  12.867  17.384  0.00  0.00    +0.000 A 
ATOM     34  C   UNL     1       7.286  14.127  17.589  0.00  0.00    +0.000 A 
ATOM     35  C   UNL     1       7.638  14.876  18.710  0.00  0.00    +0.000 A 
ATOM     36  C   UNL     1       8.564  14.361  19.607  0.00  0.00    +0.000 A 
ATOM     37  F   UNL     1       8.900  15.076  20.689  0.00  0.00    +0.000 F 
ATOM     38  C   UNL     1       9.138  13.106  19.412  0.00  0.00    +0.000 A 
ENDBRANCH  31  32
ENDBRANCH  28  31
ENDBRANCH  24  25
ENDBRANCH   1  24
TORSDOF 10
ENDMDL
MODEL 4
REMARK VINA RESULT:      -8.3      1.943      2.366
REMARK  Name = 
REMARK  14 active torsions:
REMARK  status: ('A' for Active; 'I' for Inactive)
REMARK    1  A    between atoms: C_1  and  C_2
REMARK    2  A    between atoms: C_2  and  C_3
REMARK    3  A    between atoms: C_2  and  N_4
REMARK    4  A    between atoms: N_4  and  C_34
REMARK    5  A    between atoms: C_5  and  C_7
REMARK    6  A    between atoms: C_7  and  C_8
REMARK    7  A    between atoms: C_7  and  C_14
REMARK    8  A    between atoms: C_14  and  C_15
REMARK    9  A    between atoms: C_14  and  C_28
REMARK   10  A    between atoms: C_15  and  N_16
REMARK   11  A    between atoms: N_19  and  C_20
REMARK   12  A    between atoms: C_20  and  C_21
REMARK   13  A    between atoms: C_34  and  C_35
REMARK   14  A    between atoms: C_34  and  C_36
REMARK                            x       y       z     vdW  Elec       q    Type
REMARK                         _______ _______ _______ _____ _____    ______ ____
ROOT
ATOM      1  C   UNL     1       5.138   6.616  17.067  0.00  0.00    +0.000 C 
ENDROOT
BRANCH   1   2
ATOM      2  C   UNL     1       5.563   5.593  15.988  0.00  0.00    +0.000 A 
ATOM      3  C   UNL     1       6.604   4.684  16.220  0.00  0.00    +0.000 A 
ATOM      4  C   UNL     1       7.130   3.890  15.191  0.00  0.00    +0.000 A 
ATOM      5  C   UNL     1       6.583   3.940  13.918  0.00  0.00    +0.000 A 
ATOM      6  C   UNL     1       5.445   4.704  13.709  0.00  0.00    +0.000 A 
ATOM      7  C   UNL     1       4.927   5.493  14.742  0.00  0.00    +0.000 A 
ENDBRANCH   1   2
BRANCH   1   8
ATOM      8  C   UNL     1       3.814   6.188  17.850  0.00  0.00    +0.000 C 
BRANCH   8   9
ATOM      9  C   UNL     1       2.970   7.374  18.329  0.00  0.00    +0.000 A 
ATOM     10  C   UNL     1       2.739   8.474  17.493  0.00  0.00    +0.000 A 
ATOM     11  C   UNL     1       1.855   9.476  17.891  0.00  0.00    +0.000 A 
ATOM     12  C   UNL     1       1.241   9.364  19.126  0.00  0.00    +0.000 A 
ATOM     13  N   UNL     1       1.484   8.357  19.985  0.00  0.00    +0.000 NA
ATOM     14  C   UNL     1       2.343   7.397  19.577  0.00  0.00    +0.000 A 
ENDBRANCH   8   9
BRANCH   8  16
ATOM     15  N   UNL     1       3.307   3.976  19.162  0.00  0.00    +0.000 N 
ATOM     16  C   UNL     1       4.039   5.177  19.026  0.00  0.00    +0.000 C 
ATOM     17  O   UNL     1       4.823   5.531  19.914  0.00  0.00    +0.000 OA
BRANCH  15  19
ATOM     18  C   UNL     1       2.311   2.646  21.178  0.00  0.00    +0.000 C 
ATOM     19  C   UNL     1       3.545   3.098  20.373  0.00  0.00    +0.000 C 
ATOM     20  C   UNL     1       4.406   1.859  20.086  0.00  0.00    +0.000 C 
ENDBRANCH  15  19
BRANCH  15  21
ATOM     21  C   UNL     1       2.439   3.410  18.083  0.00  0.00    +0.000 C 
ATOM     22  C   UNL     1       1.264   4.338  17.760  0.00  0.00    +0.000 C 
ATOM     23  C   UNL     1       3.154   3.025  16.786  0.00  0.00    +0.000 C 
ENDBRANCH  15  21
ENDBRANCH   8  16
ENDBRANCH   1   8
BRANCH   1  24
ATOM     24  C   UNL     1       6.301   7.133  17.982  0.00  0.00    +0.000 C 
BRANCH  24  25
ATOM     25  N   UNL     1       6.999   8.303  17.463  0.00  0.00    +0.000 N 
ATOM     26  C   UNL     1       8.110   8.866  17.996  0.00  0.00    +0.000 C 
ATOM     27  O   UNL     1       8.808   8.349  18.863  0.00  0.00    +0.000 OA
ATOM     28  N   UNL     1       8.330  10.123  17.500  0.00  0.00    +0.000 N 
ATOM     29  H   UNL     1       6.488   8.859  16.791  0.00  0.00    +0.000 HD
ATOM     30  H   UNL     1       7.761  10.438  16.727  0.00  0.00    +0.000 HD
BRANCH  28  31
ATOM     31  C   UNL     1       9.404  10.969  17.961  0.00  0.00    +0.000 C 
BRANCH  31  32
ATOM     32  C   UNL     1       8.997  12.422  18.044  0.00  0.00    +0.000 A 
ATOM     33  C   UNL     1       9.914  13.402  18.455  0.00  0.00    +0.000 A 
ATOM     34  C   UNL     1       9.569  14.758  18.453  0.00  0.00    +0.000 A 
ATOM     35  C   UNL     1       8.297  15.152  18.042  0.00  0.00    +0.000 A 
ATOM     36  C   UNL     1       7.382  14.184  17.646  0.00  0.00    +0.000 A 
ATOM     37  F   UNL     1       6.160  14.560  17.244  0.00  0.00    +0.000 F 
ATOM     38  C   UNL     1       7.718  12.831  17.641  0.00  0.00    +0.000 A 
ENDBRANCH  31  32
ENDBRANCH  28  31
ENDBRANCH  24  25
ENDBRANCH   1  24
TORSDOF 10
ENDMDL
MODEL 5
REMARK VINA RESULT:      -8.2      5.796     10.744
REMARK  Name = 
REMARK  14 active torsions:
REMARK  status: ('A' for Active; 'I' for Inactive)
REMARK    1  A    between atoms: C_1  and  C_2
REMARK    2  A    between atoms: C_2  and  C_3
REMARK    3  A    between atoms: C_2  and  N_4
REMARK    4  A    between atoms: N_4  and  C_34
REMARK    5  A    between atoms: C_5  and  C_7
REMARK    6  A    between atoms: C_7  and  C_8
REMARK    7  A    between atoms: C_7  and  C_14
REMARK    8  A    between atoms: C_14  and  C_15
REMARK    9  A    between atoms: C_14  and  C_28
REMARK   10  A    between atoms: C_15  and  N_16
REMARK   11  A    between atoms: N_19  and  C_20
REMARK   12  A    between atoms: C_20  and  C_21
REMARK   13  A    between atoms: C_34  and  C_35
REMARK   14  A    between atoms: C_34  and  C_36
REMARK                            x       y       z     vdW  Elec       q    Type
REMARK                         _______ _______ _______ _____ _____    ______ ____
ROOT
ATOM      1  C   UNL     1      -0.620  10.753  19.443  0.00  0.00    +0.000 C 
ENDROOT
BRANCH   1   2
ATOM      2  C   UNL     1      -0.615  10.211  20.891  0.00  0.00    +0.000 A 
ATOM      3  C   UNL     1      -0.973  11.027  21.972  0.00  0.00    +0.000 A 
ATOM      4  C   UNL     1      -0.784  10.615  23.299  0.00  0.00    +0.000 A 
ATOM      5  C   UNL     1      -0.292   9.350  23.576  0.00  0.00    +0.000 A 
ATOM      6  C   UNL     1      -0.092   8.465  22.528  0.00  0.00    +0.000 A 
ATOM      7  C   UNL     1      -0.283   8.886  21.207  0.00  0.00    +0.000 A 
ENDBRANCH   1   2
BRANCH   1   8
ATOM      8  C   UNL     1      -1.501  12.073  19.271  0.00  0.00    +0.000 C 
BRANCH   8   9
ATOM      9  C   UNL     1      -2.704  11.894  18.338  0.00  0.00    +0.000 A 
ATOM     10  C   UNL     1      -2.553  11.300  17.079  0.00  0.00    +0.000 A 
ATOM     11  C   UNL     1      -3.677  11.017  16.304  0.00  0.00    +0.000 A 
ATOM     12  C   UNL     1      -4.924  11.355  16.800  0.00  0.00    +0.000 A 
ATOM     13  N   UNL     1      -5.108  11.984  17.975  0.00  0.00    +0.000 NA
ATOM     14  C   UNL     1      -4.004  12.247  18.708  0.00  0.00    +0.000 A 
ENDBRANCH   8   9
BRANCH   8  16
ATOM     15  N   UNL     1      -0.449  14.421  19.769  0.00  0.00    +0.000 N 
ATOM     16  C   UNL     1      -0.697  13.357  18.873  0.00  0.00    +0.000 C 
ATOM     17  O   UNL     1      -0.376  13.458  17.683  0.00  0.00    +0.000 OA
BRANCH  15  19
ATOM     18  C   UNL     1       1.664  15.454  18.632  0.00  0.00    +0.000 C 
ATOM     19  C   UNL     1       0.276  15.654  19.271  0.00  0.00    +0.000 C 
ATOM     20  C   UNL     1      -0.560  16.531  18.327  0.00  0.00    +0.000 C 
ENDBRANCH  15  19
BRANCH  15  21
ATOM     21  C   UNL     1      -0.687  14.333  21.243  0.00  0.00    +0.000 C 
ATOM     22  C   UNL     1       0.618  14.456  22.034  0.00  0.00    +0.000 C 
ATOM     23  C   UNL     1      -1.718  15.311  21.811  0.00  0.00    +0.000 C 
ENDBRANCH  15  21
ENDBRANCH   8  16
ENDBRANCH   1   8
BRANCH   1  24
ATOM     24  C   UNL     1       0.787  10.811  18.754  0.00  0.00    +0.000 C 
BRANCH  24  25
ATOM     25  N   UNL     1       1.676   9.712  19.110  0.00  0.00    +0.000 N 
ATOM     26  C   UNL     1       2.082   8.718  18.284  0.00  0.00    +0.000 C 
ATOM     27  O   UNL     1       1.931   8.718  17.066  0.00  0.00    +0.000 OA
ATOM     28  N   UNL     1       2.625   7.670  18.977  0.00  0.00    +0.000 N 
ATOM     29  H   UNL     1       1.818   9.563  20.101  0.00  0.00    +0.000 HD
ATOM     30  H   UNL     1       2.792   7.787  19.966  0.00  0.00    +0.000 HD
BRANCH  28  31
ATOM     31  C   UNL     1       3.063   6.453  18.339  0.00  0.00    +0.000 C 
BRANCH  31  32
ATOM     32  C   UNL     1       2.330   5.236  18.855  0.00  0.00    +0.000 A 
ATOM     33  C   UNL     1       1.709   4.343  17.968  0.00  0.00    +0.000 A 
ATOM     34  C   UNL     1       1.101   3.171  18.432  0.00  0.00    +0.000 A 
ATOM     35  C   UNL     1       1.106   2.878  19.795  0.00  0.00    +0.000 A 
ATOM     36  C   UNL     1       1.710   3.765  20.677  0.00  0.00    +0.000 A 
ATOM     37  F   UNL     1       1.722   3.483  21.987  0.00  0.00    +0.000 F 
ATOM     38  C   UNL     1       2.320   4.933  20.223  0.00  0.00    +0.000 A 
ENDBRANCH  31  32
ENDBRANCH  28  31
ENDBRANCH  24  25
ENDBRANCH   1  24
TORSDOF 10
ENDMDL
MODEL 6
REMARK VINA RESULT:      -8.2      0.782      1.159
REMARK  Name = 
REMARK  14 active torsions:
REMARK  status: ('A' for Active; 'I' for Inactive)
REMARK    1  A    between atoms: C_1  and  C_2
REMARK    2  A    between atoms: C_2  and  C_3
REMARK    3  A    between atoms: C_2  and  N_4
REMARK    4  A    between atoms: N_4  and  C_34
REMARK    5  A    between atoms: C_5  and  C_7
REMARK    6  A    between atoms: C_7  and  C_8
REMARK    7  A    between atoms: C_7  and  C_14
REMARK    8  A    between atoms: C_14  and  C_15
REMARK    9  A    between atoms: C_14  and  C_28
REMARK   10  A    between atoms: C_15  and  N_16
REMARK   11  A    between atoms: N_19  and  C_20
REMARK   12  A    between atoms: C_20  and  C_21
REMARK   13  A    between atoms: C_34  and  C_35
REMARK   14  A    between atoms: C_34  and  C_36
REMARK                            x       y       z     vdW  Elec       q    Type
REMARK                         _______ _______ _______ _____ _____    ______ ____
ROOT
ATOM      1  C   UNL     1       5.897   5.752  17.066  0.00  0.00    +0.000 C 
ENDROOT
BRANCH   1   2
ATOM      2  C   UNL     1       6.045   5.194  15.632  0.00  0.00    +0.000 A 
ATOM      3  C   UNL     1       5.018   4.452  15.033  0.00  0.00    +0.000 A 
ATOM      4  C   UNL     1       5.211   3.775  13.820  0.00  0.00    +0.000 A 
ATOM      5  C   UNL     1       6.417   3.876  13.146  0.00  0.00    +0.000 A 
ATOM      6  C   UNL     1       7.386   4.740  13.633  0.00  0.00    +0.000 A 
ATOM      7  C   UNL     1       7.185   5.411  14.844  0.00  0.00    +0.000 A 
ENDBRANCH   1   2
BRANCH   1   8
ATOM      8  C   UNL     1       4.509   5.360  17.751  0.00  0.00    +0.000 C 
BRANCH   8   9
ATOM      9  C   UNL     1       3.565   6.549  17.956  0.00  0.00    +0.000 A 
ATOM     10  C   UNL     1       2.750   6.632  19.092  0.00  0.00    +0.000 A 
ATOM     11  C   UNL     1       2.003   7.785  19.331  0.00  0.00    +0.000 A 
ATOM     12  C   UNL     1       2.075   8.820  18.416  0.00  0.00    +0.000 A 
ATOM     13  N   UNL     1       2.795   8.757  17.281  0.00  0.00    +0.000 NA
ATOM     14  C   UNL     1       3.510   7.629  17.071  0.00  0.00    +0.000 A 
ENDBRANCH   8   9
BRANCH   8  16
ATOM     15  N   UNL     1       3.766   3.479  19.418  0.00  0.00    +0.000 N 
ATOM     16  C   UNL     1       4.637   4.539  19.079  0.00  0.00    +0.000 C 
ATOM     17  O   UNL     1       5.479   4.936  19.893  0.00  0.00    +0.000 OA
BRANCH  15  19
ATOM     18  C   UNL     1       2.641   2.498  21.562  0.00  0.00    +0.000 C 
ATOM     19  C   UNL     1       3.923   2.791  20.758  0.00  0.00    +0.000 C 
ATOM     20  C   UNL     1       4.757   1.503  20.705  0.00  0.00    +0.000 C 
ENDBRANCH  15  19
BRANCH  15  21
ATOM     21  C   UNL     1       2.810   2.854  18.452  0.00  0.00    +0.000 C 
ATOM     22  C   UNL     1       3.386   1.577  17.834  0.00  0.00    +0.000 C 
ATOM     23  C   UNL     1       1.407   2.567  18.993  0.00  0.00    +0.000 C 
ENDBRANCH  15  21
ENDBRANCH   8  16
ENDBRANCH   1   8
BRANCH   1  24
ATOM     24  C   UNL     1       7.155   5.564  17.982  0.00  0.00    +0.000 C 
BRANCH  24  25
ATOM     25  N   UNL     1       7.728   6.809  18.479  0.00  0.00    +0.000 N 
ATOM     26  C   UNL     1       7.711   8.003  17.839  0.00  0.00    +0.000 C 
ATOM     27  O   UNL     1       7.029   8.254  16.850  0.00  0.00    +0.000 OA
ATOM     28  N   UNL     1       8.603   8.885  18.385  0.00  0.00    +0.000 N 
ATOM     29  H   UNL     1       8.374   6.720  19.253  0.00  0.00    +0.000 HD
ATOM     30  H   UNL     1       9.060   8.630  19.248  0.00  0.00    +0.000 HD
BRANCH  28  31
ATOM     31  C   UNL     1       8.837  10.200  17.839  0.00  0.00    +0.000 C 
BRANCH  31  32
ATOM     32  C   UNL     1       9.353  11.171  18.877  0.00  0.00    +0.000 A 
ATOM     33  C   UNL     1       9.367  10.827  20.237  0.00  0.00    +0.000 A 
ATOM     34  C   UNL     1       9.921  11.686  21.193  0.00  0.00    +0.000 A 
ATOM     35  C   UNL     1      10.467  12.905  20.798  0.00  0.00    +0.000 A 
ATOM     36  C   UNL     1      10.445  13.255  19.454  0.00  0.00    +0.000 A 
ATOM     37  F   UNL     1      10.975  14.424  19.070  0.00  0.00    +0.000 F 
ATOM     38  C   UNL     1       9.898  12.404  18.494  0.00  0.00    +0.000 A 
ENDBRANCH  31  32
ENDBRANCH  28  31
ENDBRANCH  24  25
ENDBRANCH   1  24
TORSDOF 10
ENDMDL
MODEL 7
REMARK VINA RESULT:      -8.2      6.097     11.366
REMARK  Name = 
REMARK  14 active torsions:
REMARK  status: ('A' for Active; 'I' for Inactive)
REMARK    1  A    between atoms: C_1  and  C_2
REMARK    2  A    between atoms: C_2  and  C_3
REMARK    3  A    between atoms: C_2  and  N_4
REMARK    4  A    between atoms: N_4  and  C_34
REMARK    5  A    between atoms: C_5  and  C_7
REMARK    6  A    between atoms: C_7  and  C_8
REMARK    7  A    between atoms: C_7  and  C_14
REMARK    8  A    between atoms: C_14  and  C_15
REMARK    9  A    between atoms: C_14  and  C_28
REMARK   10  A    between atoms: C_15  and  N_16
REMARK   11  A    between atoms: N_19  and  C_20
REMARK   12  A    between atoms: C_20  and  C_21
REMARK   13  A    between atoms: C_34  and  C_35
REMARK   14  A    between atoms: C_34  and  C_36
REMARK                            x       y       z     vdW  Elec       q    Type
REMARK                         _______ _______ _______ _____ _____    ______ ____
ROOT
ATOM      1  C   UNL     1      -1.754  11.617  21.477  0.00  0.00    +0.000 C 
ENDROOT
BRANCH   1   2
ATOM      2  C   UNL     1      -2.556  12.555  22.409  0.00  0.00    +0.000 A 
ATOM      3  C   UNL     1      -3.932  12.749  22.233  0.00  0.00    +0.000 A 
ATOM      4  C   UNL     1      -4.632  13.739  22.937  0.00  0.00    +0.000 A 
ATOM      5  C   UNL     1      -3.982  14.518  23.881  0.00  0.00    +0.000 A 
ATOM      6  C   UNL     1      -2.662  14.230  24.193  0.00  0.00    +0.000 A 
ATOM      7  C   UNL     1      -1.973  13.239  23.485  0.00  0.00    +0.000 A 
ENDBRANCH   1   2
BRANCH   1   8
ATOM      8  C   UNL     1      -1.462  12.257  20.043  0.00  0.00    +0.000 C 
BRANCH   8   9
ATOM      9  C   UNL     1      -1.966  11.404  18.874  0.00  0.00    +0.000 A 
ATOM     10  C   UNL     1      -3.237  11.618  18.325  0.00  0.00    +0.000 A 
ATOM     11  C   UNL     1      -3.622  10.932  17.174  0.00  0.00    +0.000 A 
ATOM     12  C   UNL     1      -2.734  10.033  16.612  0.00  0.00    +0.000 A 
ATOM     13  N   UNL     1      -1.529   9.751  17.143  0.00  0.00    +0.000 NA
ATOM     14  C   UNL     1      -1.178  10.429  18.258  0.00  0.00    +0.000 A 
ENDBRANCH   8   9
BRANCH   8  16
ATOM     15  N   UNL     1       0.407  13.998  19.458  0.00  0.00    +0.000 N 
ATOM     16  C   UNL     1       0.026  12.681  19.800  0.00  0.00    +0.000 C 
ATOM     17  O   UNL     1       0.866  11.773  19.807  0.00  0.00    +0.000 OA
BRANCH  15  19
ATOM     18  C   UNL     1       2.846  14.259  20.358  0.00  0.00    +0.000 C 
ATOM     19  C   UNL     1       1.864  14.296  19.171  0.00  0.00    +0.000 C 
ATOM     20  C   UNL     1       2.460  13.454  18.034  0.00  0.00    +0.000 C 
ENDBRANCH  15  19
BRANCH  15  21
ATOM     21  C   UNL     1      -0.513  15.175  19.549  0.00  0.00    +0.000 C 
ATOM     22  C   UNL     1      -0.582  15.728  20.975  0.00  0.00    +0.000 C 
ATOM     23  C   UNL     1      -0.228  16.319  18.574  0.00  0.00    +0.000 C 
ENDBRANCH  15  21
ENDBRANCH   8  16
ENDBRANCH   1   8
BRANCH   1  24
ATOM     24  C   UNL     1      -0.520  10.918  22.145  0.00  0.00    +0.000 C 
BRANCH  24  25
ATOM     25  N   UNL     1      -0.220   9.594  21.616  0.00  0.00    +0.000 N 
ATOM     26  C   UNL     1       0.975   8.960  21.690  0.00  0.00    +0.000 C 
ATOM     27  O   UNL     1       1.913   9.319  22.396  0.00  0.00    +0.000 OA
ATOM     28  N   UNL     1       1.043   7.901  20.826  0.00  0.00    +0.000 N 
ATOM     29  H   UNL     1      -0.890   9.220  20.956  0.00  0.00    +0.000 HD
ATOM     30  H   UNL     1       0.200   7.620  20.346  0.00  0.00    +0.000 HD
BRANCH  28  31
ATOM     31  C   UNL     1       2.236   7.107  20.653  0.00  0.00    +0.000 C 
BRANCH  31  32
ATOM     32  C   UNL     1       1.943   5.751  20.053  0.00  0.00    +0.000 A 
ATOM     33  C   UNL     1       1.270   4.768  20.794  0.00  0.00    +0.000 A 
ATOM     34  C   UNL     1       0.922   3.542  20.217  0.00  0.00    +0.000 A 
ATOM     35  C   UNL     1       1.247   3.283  18.887  0.00  0.00    +0.000 A 
ATOM     36  C   UNL     1       1.923   4.248  18.153  0.00  0.00    +0.000 A 
ATOM     37  F   UNL     1       2.231   4.005  16.871  0.00  0.00    +0.000 F 
ATOM     38  C   UNL     1       2.271   5.474  18.719  0.00  0.00    +0.000 A 
ENDBRANCH  31  32
ENDBRANCH  28  31
ENDBRANCH  24  25
ENDBRANCH   1  24
TORSDOF 10
ENDMDL
MODEL 8
REMARK VINA RESULT:      -8.1      1.407      1.711
REMARK  Name = 
REMARK  14 active torsions:
REMARK  status: ('A' for Active; 'I' for Inactive)
REMARK    1  A    between atoms: C_1  and  C_2
REMARK    2  A    between atoms: C_2  and  C_3
REMARK    3  A    between atoms: C_2  and  N_4
REMARK    4  A    between atoms: N_4  and  C_34
REMARK    5  A    between atoms: C_5  and  C_7
REMARK    6  A    between atoms: C_7  and  C_8
REMARK    7  A    between atoms: C_7  and  C_14
REMARK    8  A    between atoms: C_14  and  C_15
REMARK    9  A    between atoms: C_14  and  C_28
REMARK   10  A    between atoms: C_15  and  N_16
REMARK   11  A    between atoms: N_19  and  C_20
REMARK   12  A    between atoms: C_20  and  C_21
REMARK   13  A    between atoms: C_34  and  C_35
REMARK   14  A    between atoms: C_34  and  C_36
REMARK                            x       y       z     vdW  Elec       q    Type
REMARK                         _______ _______ _______ _____ _____    ______ ____
ROOT
ATOM      1  C   UNL     1       5.089   6.440  17.066  0.00  0.00    +0.000 C 
ENDROOT
BRANCH   1   2
ATOM      2  C   UNL     1       5.531   5.459  15.956  0.00  0.00    +0.000 A 
ATOM      3  C   UNL     1       6.832   5.490  15.436  0.00  0.00    +0.000 A 
ATOM      4  C   UNL     1       7.188   4.748  14.301  0.00  0.00    +0.000 A 
ATOM      5  C   UNL     1       6.268   3.908  13.696  0.00  0.00    +0.000 A 
ATOM      6  C   UNL     1       5.029   3.732  14.294  0.00  0.00    +0.000 A 
ATOM      7  C   UNL     1       4.682   4.476  15.427  0.00  0.00    +0.000 A 
ENDBRANCH   1   2
BRANCH   1   8
ATOM      8  C   UNL     1       3.732   6.003  17.785  0.00  0.00    +0.000 C 
BRANCH   8   9
ATOM      9  C   UNL     1       2.924   7.179  18.345  0.00  0.00    +0.000 A 
ATOM     10  C   UNL     1       2.621   8.287  17.543  0.00  0.00    +0.000 A 
ATOM     11  C   UNL     1       1.768   9.281  18.023  0.00  0.00    +0.000 A 
ATOM     12  C   UNL     1       1.255   9.150  19.301  0.00  0.00    +0.000 A 
ATOM     13  N   UNL     1       1.570   8.134  20.126  0.00  0.00    +0.000 NA
ATOM     14  C   UNL     1       2.399   7.184  19.638  0.00  0.00    +0.000 A 
ENDBRANCH   8   9
BRANCH   8  16
ATOM     15  N   UNL     1       3.024   3.779  18.977  0.00  0.00    +0.000 N 
ATOM     16  C   UNL     1       3.891   4.891  18.876  0.00  0.00    +0.000 C 
ATOM     17  O   UNL     1       4.756   5.084  19.738  0.00  0.00    +0.000 OA
BRANCH  15  19
ATOM     18  C   UNL     1       4.635   2.246  20.348  0.00  0.00    +0.000 C 
ATOM     19  C   UNL     1       3.214   2.793  20.111  0.00  0.00    +0.000 C 
ATOM     20  C   UNL     1       2.660   3.278  21.458  0.00  0.00    +0.000 C 
ENDBRANCH  15  19
BRANCH  15  21
ATOM     21  C   UNL     1       2.040   3.399  17.916  0.00  0.00    +0.000 C 
ATOM     22  C   UNL     1       1.174   2.213  18.348  0.00  0.00    +0.000 C 
ATOM     23  C   UNL     1       1.138   4.527  17.410  0.00  0.00    +0.000 C 
ENDBRANCH  15  21
ENDBRANCH   8  16
ENDBRANCH   1   8
BRANCH   1  24
ATOM     24  C   UNL     1       6.230   6.892  18.042  0.00  0.00    +0.000 C 
BRANCH  24  25
ATOM     25  N   UNL     1       6.951   8.084  17.612  0.00  0.00    +0.000 N 
ATOM     26  C   UNL     1       8.140   8.513  18.100  0.00  0.00    +0.000 C 
ATOM     27  O   UNL     1       8.879   7.848  18.820  0.00  0.00    +0.000 OA
ATOM     28  N   UNL     1       8.394   9.811  17.751  0.00  0.00    +0.000 N 
ATOM     29  H   UNL     1       6.417   8.752  17.071  0.00  0.00    +0.000 HD
ATOM     30  H   UNL     1       7.778  10.257  17.086  0.00  0.00    +0.000 HD
BRANCH  28  31
ATOM     31  C   UNL     1       9.558  10.531  18.209  0.00  0.00    +0.000 C 
BRANCH  31  32
ATOM     32  C   UNL     1       9.228  11.527  19.296  0.00  0.00    +0.000 A 
ATOM     33  C   UNL     1       9.340  11.175  20.650  0.00  0.00    +0.000 A 
ATOM     34  C   UNL     1       9.117  12.117  21.661  0.00  0.00    +0.000 A 
ATOM     35  C   UNL     1       8.776  13.426  21.329  0.00  0.00    +0.000 A 
ATOM     36  C   UNL     1       8.652  13.776  19.990  0.00  0.00    +0.000 A 
ATOM     37  F   UNL     1       8.330  15.036  19.667  0.00  0.00    +0.000 F 
ATOM     38  C   UNL     1       8.875  12.846  18.976  0.00  0.00    +0.000 A 
ENDBRANCH  31  32
ENDBRANCH  28  31
ENDBRANCH  24  25
ENDBRANCH   1  24
TORSDOF 10
ENDMDL
MODEL 9
REMARK VINA RESULT:      -8.1      1.595      1.906
REMARK  Name = 
REMARK  14 active torsions:
REMARK  status: ('A' for Active; 'I' for Inactive)
REMARK    1  A    between atoms: C_1  and  C_2
REMARK    2  A    between atoms: C_2  and  C_3
REMARK    3  A    between atoms: C_2  and  N_4
REMARK    4  A    between atoms: N_4  and  C_34
REMARK    5  A    between atoms: C_5  and  C_7
REMARK    6  A    between atoms: C_7  and  C_8
REMARK    7  A    between atoms: C_7  and  C_14
REMARK    8  A    between atoms: C_14  and  C_15
REMARK    9  A    between atoms: C_14  and  C_28
REMARK   10  A    between atoms: C_15  and  N_16
REMARK   11  A    between atoms: N_19  and  C_20
REMARK   12  A    between atoms: C_20  and  C_21
REMARK   13  A    between atoms: C_34  and  C_35
REMARK   14  A    between atoms: C_34  and  C_36
REMARK                            x       y       z     vdW  Elec       q    Type
REMARK                         _______ _______ _______ _____ _____    ______ ____
ROOT
ATOM      1  C   UNL     1       5.215   6.694  17.073  0.00  0.00    +0.000 C 
ENDROOT
BRANCH   1   2
ATOM      2  C   UNL     1       5.625   5.776  15.898  0.00  0.00    +0.000 A 
ATOM      3  C   UNL     1       4.683   4.969  15.246  0.00  0.00    +0.000 A 
ATOM      4  C   UNL     1       5.069   3.991  14.318  0.00  0.00    +0.000 A 
ATOM      5  C   UNL     1       6.403   3.840  13.974  0.00  0.00    +0.000 A 
ATOM      6  C   UNL     1       7.330   4.740  14.478  0.00  0.00    +0.000 A 
ATOM      7  C   UNL     1       6.935   5.712  15.403  0.00  0.00    +0.000 A 
ENDBRANCH   1   2
BRANCH   1   8
ATOM      8  C   UNL     1       3.907   6.188  17.837  0.00  0.00    +0.000 C 
BRANCH   8   9
ATOM      9  C   UNL     1       3.018   7.323  18.355  0.00  0.00    +0.000 A 
ATOM     10  C   UNL     1       2.718   8.426  17.545  0.00  0.00    +0.000 A 
ATOM     11  C   UNL     1       1.796   9.377  17.979  0.00  0.00    +0.000 A 
ATOM     12  C   UNL     1       1.212   9.213  19.223  0.00  0.00    +0.000 A 
ATOM     13  N   UNL     1       1.519   8.203  20.058  0.00  0.00    +0.000 NA
ATOM     14  C   UNL     1       2.415   7.294  19.614  0.00  0.00    +0.000 A 
ENDBRANCH   8   9
BRANCH   8  16
ATOM     15  N   UNL     1       3.296   4.072  19.258  0.00  0.00    +0.000 N 
ATOM     16  C   UNL     1       4.170   5.146  18.977  0.00  0.00    +0.000 C 
ATOM     17  O   UNL     1       5.137   5.369  19.715  0.00  0.00    +0.000 OA
BRANCH  15  19
ATOM     18  C   UNL     1       2.422   2.763  21.343  0.00  0.00    +0.000 C 
ATOM     19  C   UNL     1       3.597   3.159  20.428  0.00  0.00    +0.000 C 
ATOM     20  C   UNL     1       4.351   1.878  20.042  0.00  0.00    +0.000 C 
ENDBRANCH  15  19
BRANCH  15  21
ATOM     21  C   UNL     1       2.182   3.654  18.350  0.00  0.00    +0.000 C 
ATOM     22  C   UNL     1       2.661   2.656  17.293  0.00  0.00    +0.000 C 
ATOM     23  C   UNL     1       0.932   3.102  19.040  0.00  0.00    +0.000 C 
ENDBRANCH  15  21
ENDBRANCH   8  16
ENDBRANCH   1   8
BRANCH   1  24
ATOM     24  C   UNL     1       6.392   7.133  18.011  0.00  0.00    +0.000 C 
BRANCH  24  25
ATOM     25  N   UNL     1       7.114   8.314  17.555  0.00  0.00    +0.000 N 
ATOM     26  C   UNL     1       8.265   8.796  18.085  0.00  0.00    +0.000 C 
ATOM     27  O   UNL     1       8.973   8.189  18.882  0.00  0.00    +0.000 OA
ATOM     28  N   UNL     1       8.515  10.078  17.677  0.00  0.00    +0.000 N 
ATOM     29  H   UNL     1       6.601   8.938  16.947  0.00  0.00    +0.000 HD
ATOM     30  H   UNL     1       7.930  10.472  16.953  0.00  0.00    +0.000 HD
BRANCH  28  31
ATOM     31  C   UNL     1       9.635  10.849  18.158  0.00  0.00    +0.000 C 
BRANCH  31  32
ATOM     32  C   UNL     1       9.255  11.774  19.291  0.00  0.00    +0.000 A 
ATOM     33  C   UNL     1       8.841  13.090  19.034  0.00  0.00    +0.000 A 
ATOM     34  C   UNL     1       8.407  13.925  20.070  0.00  0.00    +0.000 A 
ATOM     35  C   UNL     1       8.384  13.452  21.380  0.00  0.00    +0.000 A 
ATOM     36  C   UNL     1       8.804  12.153  21.641  0.00  0.00    +0.000 A 
ATOM     37  F   UNL     1       8.776  11.693  22.899  0.00  0.00    +0.000 F 
ATOM     38  C   UNL     1       9.234  11.314  20.614  0.00  0.00    +0.000 A 
ENDBRANCH  31  32
ENDBRANCH  28  31
ENDBRANCH  24  25
ENDBRANCH   1  24
TORSDOF 10
ENDMDL
