MODEL 1
REMARK VINA RESULT:      -8.5      0.000      0.000
REMARK  Name = 
REMARK  10 active torsions:
REMARK  status: ('A' for Active; 'I' for Inactive)
REMARK    1  A    between atoms: C_5  and  C_6
REMARK    2  A    between atoms: C_6  and  O_7
REMARK    3  A    between atoms: C_6  and  C_27
REMARK    4  A    between atoms: O_7  and  C_8
REMARK    5  A    between atoms: C_8  and  C_9
REMARK    6  A    between atoms: C_9  and  C_10
REMARK    7  A    between atoms: N_17  and  C_18
REMARK    8  A    between atoms: C_18  and  C_19
REMARK    9  A    between atoms: C_19  and  C_20
REMARK   10  A    between atoms: C_20  and  C_21
REMARK                            x       y       z     vdW  Elec       q    Type
REMARK                         _______ _______ _______ _____ _____    ______ ____
ROOT
ATOM      1  C   UNL     1       1.921   7.092  20.197  0.00  0.00    +0.000 C 
ENDROOT
BRANCH   1   2
ATOM      2  C   UNL     1       2.791   6.542  19.023  0.00  0.00    +0.000 C 
ATOM      3  C   UNL     1       1.848   5.823  17.998  0.00  0.00    +0.000 C 
ATOM      4  C   UNL     1       1.759   4.283  18.146  0.00  0.00    +0.000 C 
ATOM      5  C   UNL     1       1.319   3.821  19.538  0.00  0.00    +0.000 C 
ATOM      6  C   UNL     1       2.619   3.737  20.342  0.00  0.00    +0.000 C 
ATOM      7  C   UNL     1       3.714   4.114  19.335  0.00  0.00    +0.000 C 
ATOM      8  C   UNL     1       3.995   5.637  19.373  0.00  0.00    +0.000 C 
ATOM      9  N   UNL     1       3.089   3.664  18.080  0.00  0.00    +0.000 NA
BRANCH   9  10
ATOM     10  C   UNL     1       3.800   3.930  16.829  0.00  0.00    +0.000 C 
BRANCH  10  11
ATOM     11  C   UNL     1       5.242   3.425  16.787  0.00  0.00    +0.000 C 
BRANCH  11  12
ATOM     12  C   UNL     1       6.171   4.360  16.013  0.00  0.00    +0.000 C 
BRANCH  12  13
ATOM     13  C   UNL     1       6.871   5.323  16.945  0.00  0.00    +0.000 A 
ATOM     14  C   UNL     1       7.412   4.865  18.152  0.00  0.00    +0.000 A 
ATOM     15  C   UNL     1       8.028   5.757  19.024  0.00  0.00    +0.000 A 
ATOM     16  C   UNL     1       8.117   7.113  18.703  0.00  0.00    +0.000 A 
ATOM     17  C   UNL     1       7.576   7.578  17.508  0.00  0.00    +0.000 A 
ATOM     18  C   UNL     1       6.950   6.688  16.630  0.00  0.00    +0.000 A 
ENDBRANCH  12  13
ENDBRANCH  11  12
ENDBRANCH  10  11
ENDBRANCH   9  10
ENDBRANCH   1   2
BRANCH   1  19
ATOM     19  C   UNL     1       1.595   8.580  20.454  0.00  0.00    +0.000 C 
BRANCH  19  20
ATOM     20  O   UNL     1       0.898   9.263  19.439  0.00  0.00    +0.000 OA
BRANCH  20  21
ATOM     21  C   UNL     1       0.361  10.585  19.655  0.00  0.00    +0.000 C 
BRANCH  21  26
ATOM     22  F   UNL     1      -4.190  10.993  16.298  0.00  0.00    +0.000 F 
ATOM     23  C   UNL     1      -3.155  10.853  17.136  0.00  0.00    +0.000 A 
ATOM     24  C   UNL     1      -2.139   9.961  16.819  0.00  0.00    +0.000 A 
ATOM     25  C   UNL     1      -1.038   9.842  17.668  0.00  0.00    +0.000 A 
ATOM     26  C   UNL     1      -0.927  10.639  18.822  0.00  0.00    +0.000 A 
ATOM     27  C   UNL     1      -1.993  11.509  19.141  0.00  0.00    +0.000 A 
ATOM     28  C   UNL     1      -3.104  11.609  18.300  0.00  0.00    +0.000 A 
ENDBRANCH  21  26
BRANCH  21  29
ATOM     29  C   UNL     1       1.184  11.895  19.618  0.00  0.00    +0.000 A 
ATOM     30  C   UNL     1       1.875  12.218  18.427  0.00  0.00    +0.000 A 
ATOM     31  C   UNL     1       2.823  13.248  18.377  0.00  0.00    +0.000 A 
ATOM     32  C   UNL     1       3.095  13.991  19.522  0.00  0.00    +0.000 A 
ATOM     33  F   UNL     1       4.043  14.937  19.485  0.00  0.00    +0.000 F 
ATOM     34  C   UNL     1       2.414  13.733  20.698  0.00  0.00    +0.000 A 
ATOM     35  C   UNL     1       1.457  12.704  20.749  0.00  0.00    +0.000 A 
ENDBRANCH  21  29
ENDBRANCH  20  21
ENDBRANCH  19  20
ENDBRANCH   1  19
TORSDOF 10
ENDMDL
MODEL 2
REMARK VINA RESULT:      -8.4      0.349      1.204
REMARK  Name = 
REMARK  10 active torsions:
REMARK  status: ('A' for Active; 'I' for Inactive)
REMARK    1  A    between atoms: C_5  and  C_6
REMARK    2  A    between atoms: C_6  and  O_7
REMARK    3  A    between atoms: C_6  and  C_27
REMARK    4  A    between atoms: O_7  and  C_8
REMARK    5  A    between atoms: C_8  and  C_9
REMARK    6  A    between atoms: C_9  and  C_10
REMARK    7  A    between atoms: N_17  and  C_18
REMARK    8  A    between atoms: C_18  and  C_19
REMARK    9  A    between atoms: C_19  and  C_20
REMARK   10  A    between atoms: C_20  and  C_21
REMARK                            x       y       z     vdW  Elec       q    Type
REMARK                         _______ _______ _______ _____ _____    ______ ____
ROOT
ATOM      1  C   UNL     1       1.775   7.044  20.336  0.00  0.00    +0.000 C 
ENDROOT
BRANCH   1   2
ATOM      2  C   UNL     1       2.637   6.502  19.152  0.00  0.00    +0.000 C 
ATOM      3  C   UNL     1       1.688   5.783  18.134  0.00  0.00    +0.000 C 
ATOM      4  C   UNL     1       1.606   4.242  18.277  0.00  0.00    +0.000 C 
ATOM      5  C   UNL     1       1.180   3.773  19.670  0.00  0.00    +0.000 C 
ATOM      6  C   UNL     1       2.487   3.691  20.463  0.00  0.00    +0.000 C 
ATOM      7  C   UNL     1       3.571   4.076  19.448  0.00  0.00    +0.000 C 
ATOM      8  C   UNL     1       3.848   5.600  19.489  0.00  0.00    +0.000 C 
ATOM      9  N   UNL     1       2.938   3.628  18.197  0.00  0.00    +0.000 NA
BRANCH   9  10
ATOM     10  C   UNL     1       3.637   3.902  16.941  0.00  0.00    +0.000 C 
BRANCH  10  11
ATOM     11  C   UNL     1       5.092   3.435  16.898  0.00  0.00    +0.000 C 
BRANCH  11  12
ATOM     12  C   UNL     1       5.982   4.361  16.070  0.00  0.00    +0.000 C 
BRANCH  12  13
ATOM     13  C   UNL     1       6.756   5.307  16.958  0.00  0.00    +0.000 A 
ATOM     14  C   UNL     1       7.331   4.844  18.148  0.00  0.00    +0.000 A 
ATOM     15  C   UNL     1       8.016   5.722  18.980  0.00  0.00    +0.000 A 
ATOM     16  C   UNL     1       8.143   7.070  18.638  0.00  0.00    +0.000 A 
ATOM     17  C   UNL     1       7.569   7.541  17.460  0.00  0.00    +0.000 A 
ATOM     18  C   UNL     1       6.873   6.664  16.621  0.00  0.00    +0.000 A 
ENDBRANCH  12  13
ENDBRANCH  11  12
ENDBRANCH  10  11
ENDBRANCH   9  10
ENDBRANCH   1   2
BRANCH   1  19
ATOM     19  C   UNL     1       1.432   8.529  20.592  0.00  0.00    +0.000 C 
BRANCH  19  20
ATOM     20  O   UNL     1       0.967   9.273  19.492  0.00  0.00    +0.000 OA
BRANCH  20  21
ATOM     21  C   UNL     1       0.501  10.630  19.645  0.00  0.00    +0.000 C 
BRANCH  21  26
ATOM     22  F   UNL     1      -4.477  10.725  16.931  0.00  0.00    +0.000 F 
ATOM     23  C   UNL     1      -3.273  10.743  17.517  0.00  0.00    +0.000 A 
ATOM     24  C   UNL     1      -3.038  11.627  18.563  0.00  0.00    +0.000 A 
ATOM     25  C   UNL     1      -1.797  11.620  19.203  0.00  0.00    +0.000 A 
ATOM     26  C   UNL     1      -0.796  10.707  18.827  0.00  0.00    +0.000 A 
ATOM     27  C   UNL     1      -1.048   9.846  17.736  0.00  0.00    +0.000 A 
ATOM     28  C   UNL     1      -2.282   9.871  17.082  0.00  0.00    +0.000 A 
ENDBRANCH  21  26
BRANCH  21  29
ATOM     29  C   UNL     1       1.388  11.892  19.529  0.00  0.00    +0.000 A 
ATOM     30  C   UNL     1       1.443  12.777  20.632  0.00  0.00    +0.000 A 
ATOM     31  C   UNL     1       2.025  14.047  20.534  0.00  0.00    +0.000 A 
ATOM     32  C   UNL     1       2.578  14.461  19.326  0.00  0.00    +0.000 A 
ATOM     33  F   UNL     1       3.082  15.698  19.220  0.00  0.00    +0.000 F 
ATOM     34  C   UNL     1       2.579  13.613  18.233  0.00  0.00    +0.000 A 
ATOM     35  C   UNL     1       2.002  12.334  18.331  0.00  0.00    +0.000 A 
ENDBRANCH  21  29
ENDBRANCH  20  21
ENDBRANCH  19  20
ENDBRANCH   1  19
TORSDOF 10
ENDMDL
MODEL 3
REMARK VINA RESULT:      -8.3      3.755     10.316
REMARK  Name = 
REMARK  10 active torsions:
REMARK  status: ('A' for Active; 'I' for Inactive)
REMARK    1  A    between atoms: C_5  and  C_6
REMARK    2  A    between atoms: C_6  and  O_7
REMARK    3  A    between atoms: C_6  and  C_27
REMARK    4  A    between atoms: O_7  and  C_8
REMARK    5  A    between atoms: C_8  and  C_9
REMARK    6  A    between atoms: C_9  and  C_10
REMARK    7  A    between atoms: N_17  and  C_18
REMARK    8  A    between atoms: C_18  and  C_19
REMARK    9  A    between atoms: C_19  and  C_20
REMARK   10  A    between atoms: C_20  and  C_21
REMARK                            x       y       z     vdW  Elec       q    Type
REMARK                         _______ _______ _______ _____ _____    ______ ____
ROOT
ATOM      1  C   UNL     1       0.966   9.611  17.826  0.00  0.00    +0.000 C 
ENDROOT
BRANCH   1   2
ATOM      2  C   UNL     1      -0.094   9.997  18.905  0.00  0.00    +0.000 C 
ATOM      3  C   UNL     1      -0.996  11.143  18.330  0.00  0.00    +0.000 C 
ATOM      4  C   UNL     1      -0.598  12.579  18.758  0.00  0.00    +0.000 C 
ATOM      5  C   UNL     1       0.846  12.949  18.411  0.00  0.00    +0.000 C 
ATOM      6  C   UNL     1       1.665  12.458  19.607  0.00  0.00    +0.000 C 
ATOM      7  C   UNL     1       0.620  11.883  20.573  0.00  0.00    +0.000 C 
ATOM      8  C   UNL     1       0.410  10.369  20.319  0.00  0.00    +0.000 C 
ATOM      9  N   UNL     1      -0.551  12.704  20.220  0.00  0.00    +0.000 NA
BRANCH   9  10
ATOM     10  C   UNL     1      -1.822  12.401  20.878  0.00  0.00    +0.000 C 
BRANCH  10  11
ATOM     11  C   UNL     1      -2.943  13.404  20.609  0.00  0.00    +0.000 C 
BRANCH  11  12
ATOM     12  C   UNL     1      -4.266  12.996  21.256  0.00  0.00    +0.000 C 
BRANCH  12  13
ATOM     13  C   UNL     1      -5.153  12.274  20.269  0.00  0.00    +0.000 A 
ATOM     14  C   UNL     1      -4.734  12.097  18.945  0.00  0.00    +0.000 A 
ATOM     15  C   UNL     1      -5.564  11.460  18.029  0.00  0.00    +0.000 A 
ATOM     16  C   UNL     1      -6.819  10.988  18.419  0.00  0.00    +0.000 A 
ATOM     17  C   UNL     1      -7.247  11.165  19.732  0.00  0.00    +0.000 A 
ATOM     18  C   UNL     1      -6.419  11.810  20.657  0.00  0.00    +0.000 A 
ENDBRANCH  12  13
ENDBRANCH  11  12
ENDBRANCH  10  11
ENDBRANCH   9  10
ENDBRANCH   1   2
BRANCH   1  19
ATOM     19  C   UNL     1       2.432   9.214  18.109  0.00  0.00    +0.000 C 
BRANCH  19  20
ATOM     20  O   UNL     1       2.910   8.051  17.477  0.00  0.00    +0.000 OA
BRANCH  20  21
ATOM     21  C   UNL     1       3.336   6.902  18.239  0.00  0.00    +0.000 C 
BRANCH  21  26
ATOM     22  F   UNL     1       7.574   4.576  15.275  0.00  0.00    +0.000 F 
ATOM     23  C   UNL     1       6.621   5.176  15.999  0.00  0.00    +0.000 A 
ATOM     24  C   UNL     1       5.713   6.017  15.366  0.00  0.00    +0.000 A 
ATOM     25  C   UNL     1       4.693   6.612  16.111  0.00  0.00    +0.000 A 
ATOM     26  C   UNL     1       4.551   6.345  17.484  0.00  0.00    +0.000 A 
ATOM     27  C   UNL     1       5.510   5.518  18.108  0.00  0.00    +0.000 A 
ATOM     28  C   UNL     1       6.543   4.941  17.366  0.00  0.00    +0.000 A 
ENDBRANCH  21  26
BRANCH  21  29
ATOM     29  C   UNL     1       2.395   5.810  18.801  0.00  0.00    +0.000 A 
ATOM     30  C   UNL     1       2.172   5.771  20.197  0.00  0.00    +0.000 A 
ATOM     31  C   UNL     1       1.533   4.689  20.815  0.00  0.00    +0.000 A 
ATOM     32  C   UNL     1       1.088   3.619  20.043  0.00  0.00    +0.000 A 
ATOM     33  F   UNL     1       0.528   2.560  20.644  0.00  0.00    +0.000 F 
ATOM     34  C   UNL     1       1.252   3.633  18.670  0.00  0.00    +0.000 A 
ATOM     35  C   UNL     1       1.888   4.723  18.047  0.00  0.00    +0.000 A 
ENDBRANCH  21  29
ENDBRANCH  20  21
ENDBRANCH  19  20
ENDBRANCH   1  19
TORSDOF 10
ENDMDL
MODEL 4
REMARK VINA RESULT:      -8.3      3.492      9.050
REMARK  Name = 
REMARK  10 active torsions:
REMARK  status: ('A' for Active; 'I' for Inactive)
REMARK    1  A    between atoms: C_5  and  C_6
REMARK    2  A    between atoms: C_6  and  O_7
REMARK    3  A    between atoms: C_6  and  C_27
REMARK    4  A    between atoms: O_7  and  C_8
REMARK    5  A    between atoms: C_8  and  C_9
REMARK    6  A    between atoms: C_9  and  C_10
REMARK    7  A    between atoms: N_17  and  C_18
REMARK    8  A    between atoms: C_18  and  C_19
REMARK    9  A    between atoms: C_19  and  C_20
REMARK   10  A    between atoms: C_20  and  C_21
REMARK                            x       y       z     vdW  Elec       q    Type
REMARK                         _______ _______ _______ _____ _____    ______ ____
ROOT
ATOM      1  C   UNL     1       2.373   2.992  17.301  0.00  0.00    +0.000 C 
ENDROOT
BRANCH   1   2
ATOM      2  C   UNL     1       1.563   4.056  18.107  0.00  0.00    +0.000 C 
ATOM      3  C   UNL     1       2.493   5.286  18.383  0.00  0.00    +0.000 C 
ATOM      4  C   UNL     1       3.172   5.306  19.777  0.00  0.00    +0.000 C 
ATOM      5  C   UNL     1       4.005   4.057  20.076  0.00  0.00    +0.000 C 
ATOM      6  C   UNL     1       3.005   3.063  20.671  0.00  0.00    +0.000 C 
ATOM      7  C   UNL     1       1.680   3.835  20.712  0.00  0.00    +0.000 C 
ATOM      8  C   UNL     1       0.867   3.603  19.413  0.00  0.00    +0.000 C 
ATOM      9  N   UNL     1       2.177   5.214  20.854  0.00  0.00    +0.000 NA
BRANCH   9  10
ATOM     10  C   UNL     1       1.196   6.300  20.843  0.00  0.00    +0.000 C 
BRANCH  10  11
ATOM     11  C   UNL     1       1.784   7.698  20.650  0.00  0.00    +0.000 C 
BRANCH  11  12
ATOM     12  C   UNL     1       1.215   8.716  21.638  0.00  0.00    +0.000 C 
BRANCH  12  13
ATOM     13  C   UNL     1       0.359   9.740  20.929  0.00  0.00    +0.000 A 
ATOM     14  C   UNL     1       0.359   9.810  19.530  0.00  0.00    +0.000 A 
ATOM     15  C   UNL     1      -0.405  10.773  18.879  0.00  0.00    +0.000 A 
ATOM     16  C   UNL     1      -1.181  11.674  19.610  0.00  0.00    +0.000 A 
ATOM     17  C   UNL     1      -1.182  11.616  21.002  0.00  0.00    +0.000 A 
ATOM     18  C   UNL     1      -0.411  10.654  21.663  0.00  0.00    +0.000 A 
ENDBRANCH  12  13
ENDBRANCH  11  12
ENDBRANCH  10  11
ENDBRANCH   9  10
ENDBRANCH   1   2
BRANCH   1  19
ATOM     19  C   UNL     1       3.904   2.991  17.101  0.00  0.00    +0.000 C 
BRANCH  19  20
ATOM     20  O   UNL     1       4.447   4.039  16.335  0.00  0.00    +0.000 OA
BRANCH  20  21
ATOM     21  C   UNL     1       5.838   4.046  15.949  0.00  0.00    +0.000 C 
BRANCH  21  26
ATOM     22  F   UNL     1       8.568   7.933  19.046  0.00  0.00    +0.000 F 
ATOM     23  C   UNL     1       7.875   7.008  18.370  0.00  0.00    +0.000 A 
ATOM     24  C   UNL     1       6.997   7.411  17.371  0.00  0.00    +0.000 A 
ATOM     25  C   UNL     1       6.303   6.448  16.636  0.00  0.00    +0.000 A 
ATOM     26  C   UNL     1       6.507   5.076  16.869  0.00  0.00    +0.000 A 
ATOM     27  C   UNL     1       7.376   4.696  17.916  0.00  0.00    +0.000 A 
ATOM     28  C   UNL     1       8.051   5.662  18.665  0.00  0.00    +0.000 A 
ENDBRANCH  21  26
BRANCH  21  29
ATOM     29  C   UNL     1       6.354   4.083  14.491  0.00  0.00    +0.000 A 
ATOM     30  C   UNL     1       7.471   4.900  14.196  0.00  0.00    +0.000 A 
ATOM     31  C   UNL     1       7.858   5.177  12.878  0.00  0.00    +0.000 A 
ATOM     32  C   UNL     1       7.140   4.630  11.819  0.00  0.00    +0.000 A 
ATOM     33  F   UNL     1       7.480   4.943  10.561  0.00  0.00    +0.000 F 
ATOM     34  C   UNL     1       6.065   3.795  12.063  0.00  0.00    +0.000 A 
ATOM     35  C   UNL     1       5.678   3.510  13.385  0.00  0.00    +0.000 A 
ENDBRANCH  21  29
ENDBRANCH  20  21
ENDBRANCH  19  20
ENDBRANCH   1  19
TORSDOF 10
ENDMDL
MODEL 5
REMARK VINA RESULT:      -8.1      3.991     10.250
REMARK  Name = 
REMARK  10 active torsions:
REMARK  status: ('A' for Active; 'I' for Inactive)
REMARK    1  A    between atoms: C_5  and  C_6
REMARK    2  A    between atoms: C_6  and  O_7
REMARK    3  A    between atoms: C_6  and  C_27
REMARK    4  A    between atoms: O_7  and  C_8
REMARK    5  A    between atoms: C_8  and  C_9
REMARK    6  A    between atoms: C_9  and  C_10
REMARK    7  A    between atoms: N_17  and  C_18
REMARK    8  A    between atoms: C_18  and  C_19
REMARK    9  A    between atoms: C_19  and  C_20
REMARK   10  A    between atoms: C_20  and  C_21
REMARK                            x       y       z     vdW  Elec       q    Type
REMARK                         _______ _______ _______ _____ _____    ______ ____
ROOT
ATOM      1  C   UNL     1       1.515   8.980  19.703  0.00  0.00    +0.000 C 
ENDROOT
BRANCH   1   2
ATOM      2  C   UNL     1       0.059   9.512  19.887  0.00  0.00    +0.000 C 
ATOM      3  C   UNL     1      -0.333  10.343  18.617  0.00  0.00    +0.000 C 
ATOM      4  C   UNL     1      -0.164  11.878  18.750  0.00  0.00    +0.000 C 
ATOM      5  C   UNL     1       1.254  12.312  19.131  0.00  0.00    +0.000 C 
ATOM      6  C   UNL     1       1.270  12.265  20.661  0.00  0.00    +0.000 C 
ATOM      7  C   UNL     1      -0.156  11.850  21.044  0.00  0.00    +0.000 C 
ATOM      8  C   UNL     1      -0.266  10.309  21.173  0.00  0.00    +0.000 C 
ATOM      9  N   UNL     1      -0.910  12.398  19.903  0.00  0.00    +0.000 NA
BRANCH   9  10
ATOM     10  C   UNL     1      -2.347  12.132  19.842  0.00  0.00    +0.000 C 
BRANCH  10  11
ATOM     11  C   UNL     1      -3.188  12.897  20.864  0.00  0.00    +0.000 C 
BRANCH  11  12
ATOM     12  C   UNL     1      -4.454  13.497  20.252  0.00  0.00    +0.000 C 
BRANCH  12  13
ATOM     13  C   UNL     1      -5.603  12.518  20.313  0.00  0.00    +0.000 A 
ATOM     14  C   UNL     1      -6.431  12.474  21.442  0.00  0.00    +0.000 A 
ATOM     15  C   UNL     1      -7.469  11.550  21.510  0.00  0.00    +0.000 A 
ATOM     16  C   UNL     1      -7.699  10.664  20.457  0.00  0.00    +0.000 A 
ATOM     17  C   UNL     1      -6.877  10.696  19.333  0.00  0.00    +0.000 A 
ATOM     18  C   UNL     1      -5.828  11.618  19.260  0.00  0.00    +0.000 A 
ENDBRANCH  12  13
ENDBRANCH  11  12
ENDBRANCH  10  11
ENDBRANCH   9  10
ENDBRANCH   1   2
BRANCH   1  19
ATOM     19  C   UNL     1       2.090   8.367  18.407  0.00  0.00    +0.000 C 
BRANCH  19  20
ATOM     20  O   UNL     1       3.109   7.407  18.554  0.00  0.00    +0.000 OA
BRANCH  20  21
ATOM     21  C   UNL     1       3.034   6.124  17.899  0.00  0.00    +0.000 C 
BRANCH  21  26
ATOM     22  F   UNL     1       0.950   2.467  21.699  0.00  0.00    +0.000 F 
ATOM     23  C   UNL     1       1.378   3.367  20.805  0.00  0.00    +0.000 A 
ATOM     24  C   UNL     1       2.233   4.382  21.217  0.00  0.00    +0.000 A 
ATOM     25  C   UNL     1       2.714   5.299  20.281  0.00  0.00    +0.000 A 
ATOM     26  C   UNL     1       2.374   5.187  18.921  0.00  0.00    +0.000 A 
ATOM     27  C   UNL     1       1.473   4.170  18.536  0.00  0.00    +0.000 A 
ATOM     28  C   UNL     1       0.975   3.268  19.479  0.00  0.00    +0.000 A 
ENDBRANCH  21  26
BRANCH  21  29
ATOM     29  C   UNL     1       4.183   5.465  17.100  0.00  0.00    +0.000 A 
ATOM     30  C   UNL     1       4.915   6.268  16.193  0.00  0.00    +0.000 A 
ATOM     31  C   UNL     1       5.806   5.714  15.265  0.00  0.00    +0.000 A 
ATOM     32  C   UNL     1       5.996   4.336  15.231  0.00  0.00    +0.000 A 
ATOM     33  F   UNL     1       6.806   3.804  14.305  0.00  0.00    +0.000 F 
ATOM     34  C   UNL     1       5.330   3.517  16.125  0.00  0.00    +0.000 A 
ATOM     35  C   UNL     1       4.440   4.072  17.062  0.00  0.00    +0.000 A 
ENDBRANCH  21  29
ENDBRANCH  20  21
ENDBRANCH  19  20
ENDBRANCH   1  19
TORSDOF 10
ENDMDL
MODEL 6
REMARK VINA RESULT:      -8.1      3.581      8.480
REMARK  Name = 
REMARK  10 active torsions:
REMARK  status: ('A' for Active; 'I' for Inactive)
REMARK    1  A    between atoms: C_5  and  C_6
REMARK    2  A    between atoms: C_6  and  O_7
REMARK    3  A    between atoms: C_6  and  C_27
REMARK    4  A    between atoms: O_7  and  C_8
REMARK    5  A    between atoms: C_8  and  C_9
REMARK    6  A    between atoms: C_9  and  C_10
REMARK    7  A    between atoms: N_17  and  C_18
REMARK    8  A    between atoms: C_18  and  C_19
REMARK    9  A    between atoms: C_19  and  C_20
REMARK   10  A    between atoms: C_20  and  C_21
REMARK                            x       y       z     vdW  Elec       q    Type
REMARK                         _______ _______ _______ _____ _____    ______ ____
ROOT
ATOM      1  C   UNL     1       2.605   2.861  17.541  0.00  0.00    +0.000 C 
ENDROOT
BRANCH   1   2
ATOM      2  C   UNL     1       1.763   4.049  18.105  0.00  0.00    +0.000 C 
ATOM      3  C   UNL     1       2.735   5.231  18.443  0.00  0.00    +0.000 C 
ATOM      4  C   UNL     1       3.166   5.332  19.929  0.00  0.00    +0.000 C 
ATOM      5  C   UNL     1       3.826   4.061  20.468  0.00  0.00    +0.000 C 
ATOM      6  C   UNL     1       2.658   3.199  20.954  0.00  0.00    +0.000 C 
ATOM      7  C   UNL     1       1.416   4.063  20.698  0.00  0.00    +0.000 C 
ATOM      8  C   UNL     1       0.820   3.769  19.298  0.00  0.00    +0.000 C 
ATOM      9  N   UNL     1       1.999   5.411  20.817  0.00  0.00    +0.000 NA
BRANCH   9  10
ATOM     10  C   UNL     1       1.130   6.557  20.547  0.00  0.00    +0.000 C 
BRANCH  10  11
ATOM     11  C   UNL     1       1.847   7.904  20.466  0.00  0.00    +0.000 C 
BRANCH  11  12
ATOM     12  C   UNL     1       1.485   8.689  19.206  0.00  0.00    +0.000 C 
BRANCH  12  13
ATOM     13  C   UNL     1       0.469   9.765  19.509  0.00  0.00    +0.000 A 
ATOM     14  C   UNL     1       0.284  10.207  20.825  0.00  0.00    +0.000 A 
ATOM     15  C   UNL     1      -0.674  11.175  21.108  0.00  0.00    +0.000 A 
ATOM     16  C   UNL     1      -1.454  11.719  20.087  0.00  0.00    +0.000 A 
ATOM     17  C   UNL     1      -1.281  11.281  18.776  0.00  0.00    +0.000 A 
ATOM     18  C   UNL     1      -0.325  10.304  18.485  0.00  0.00    +0.000 A 
ENDBRANCH  12  13
ENDBRANCH  11  12
ENDBRANCH  10  11
ENDBRANCH   9  10
ENDBRANCH   1   2
BRANCH   1  19
ATOM     19  C   UNL     1       4.147   2.783  17.519  0.00  0.00    +0.000 C 
BRANCH  19  20
ATOM     20  O   UNL     1       4.782   3.072  16.296  0.00  0.00    +0.000 OA
BRANCH  20  21
ATOM     21  C   UNL     1       5.298   4.389  16.010  0.00  0.00    +0.000 C 
BRANCH  21  26
ATOM     22  F   UNL     1       7.506   4.368  10.787  0.00  0.00    +0.000 F 
ATOM     23  C   UNL     1       7.014   4.306  12.031  0.00  0.00    +0.000 A 
ATOM     24  C   UNL     1       7.659   4.994  13.052  0.00  0.00    +0.000 A 
ATOM     25  C   UNL     1       7.126   4.966  14.342  0.00  0.00    +0.000 A 
ATOM     26  C   UNL     1       5.929   4.280  14.615  0.00  0.00    +0.000 A 
ATOM     27  C   UNL     1       5.317   3.558  13.567  0.00  0.00    +0.000 A 
ATOM     28  C   UNL     1       5.864   3.569  12.282  0.00  0.00    +0.000 A 
ENDBRANCH  21  26
BRANCH  21  29
ATOM     29  C   UNL     1       6.112   5.258  16.998  0.00  0.00    +0.000 A 
ATOM     30  C   UNL     1       6.101   6.662  16.822  0.00  0.00    +0.000 A 
ATOM     31  C   UNL     1       6.983   7.502  17.512  0.00  0.00    +0.000 A 
ATOM     32  C   UNL     1       7.897   6.955  18.409  0.00  0.00    +0.000 A 
ATOM     33  F   UNL     1       8.777   7.756  19.024  0.00  0.00    +0.000 F 
ATOM     34  C   UNL     1       7.917   5.591  18.639  0.00  0.00    +0.000 A 
ATOM     35  C   UNL     1       7.026   4.746  17.952  0.00  0.00    +0.000 A 
ENDBRANCH  21  29
ENDBRANCH  20  21
ENDBRANCH  19  20
ENDBRANCH   1  19
TORSDOF 10
ENDMDL
MODEL 7
REMARK VINA RESULT:      -8.1      4.199      9.899
REMARK  Name = 
REMARK  10 active torsions:
REMARK  status: ('A' for Active; 'I' for Inactive)
REMARK    1  A    between atoms: C_5  and  C_6
REMARK    2  A    between atoms: C_6  and  O_7
REMARK    3  A    between atoms: C_6  and  C_27
REMARK    4  A    between atoms: O_7  and  C_8
REMARK    5  A    between atoms: C_8  and  C_9
REMARK    6  A    between atoms: C_9  and  C_10
REMARK    7  A    between atoms: N_17  and  C_18
REMARK    8  A    between atoms: C_18  and  C_19
REMARK    9  A    between atoms: C_19  and  C_20
REMARK   10  A    between atoms: C_20  and  C_21
REMARK                            x       y       z     vdW  Elec       q    Type
REMARK                         _______ _______ _______ _____ _____    ______ ____
ROOT
ATOM      1  C   UNL     1       1.893   9.726  18.376  0.00  0.00    +0.000 C 
ENDROOT
BRANCH   1   2
ATOM      2  C   UNL     1       0.717  10.591  18.930  0.00  0.00    +0.000 C 
ATOM      3  C   UNL     1       1.231  11.395  20.172  0.00  0.00    +0.000 C 
ATOM      4  C   UNL     1       0.909  10.764  21.551  0.00  0.00    +0.000 C 
ATOM      5  C   UNL     1       1.433   9.335  21.713  0.00  0.00    +0.000 C 
ATOM      6  C   UNL     1       0.319   8.452  21.145  0.00  0.00    +0.000 C 
ATOM      7  C   UNL     1      -0.782   9.442  20.741  0.00  0.00    +0.000 C 
ATOM      8  C   UNL     1      -0.615   9.878  19.263  0.00  0.00    +0.000 C 
ATOM      9  N   UNL     1      -0.532  10.528  21.705  0.00  0.00    +0.000 NA
BRANCH   9  10
ATOM     10  C   UNL     1      -1.342  11.741  21.593  0.00  0.00    +0.000 C 
BRANCH  10  11
ATOM     11  C   UNL     1      -1.157  12.747  22.729  0.00  0.00    +0.000 C 
BRANCH  11  12
ATOM     12  C   UNL     1      -2.143  13.911  22.650  0.00  0.00    +0.000 C 
BRANCH  12  13
ATOM     13  C   UNL     1      -3.523  13.485  23.096  0.00  0.00    +0.000 A 
ATOM     14  C   UNL     1      -3.697  12.851  24.333  0.00  0.00    +0.000 A 
ATOM     15  C   UNL     1      -4.962  12.431  24.729  0.00  0.00    +0.000 A 
ATOM     16  C   UNL     1      -6.069  12.640  23.904  0.00  0.00    +0.000 A 
ATOM     17  C   UNL     1      -5.904  13.264  22.670  0.00  0.00    +0.000 A 
ATOM     18  C   UNL     1      -4.634  13.684  22.262  0.00  0.00    +0.000 A 
ENDBRANCH  12  13
ENDBRANCH  11  12
ENDBRANCH  10  11
ENDBRANCH   9  10
ENDBRANCH   1   2
BRANCH   1  19
ATOM     19  C   UNL     1       1.778   8.271  17.870  0.00  0.00    +0.000 C 
BRANCH  19  20
ATOM     20  O   UNL     1       2.540   7.300  18.545  0.00  0.00    +0.000 OA
BRANCH  20  21
ATOM     21  C   UNL     1       2.773   5.995  17.972  0.00  0.00    +0.000 C 
BRANCH  21  26
ATOM     22  F   UNL     1       0.789   2.492  21.965  0.00  0.00    +0.000 F 
ATOM     23  C   UNL     1       1.319   3.278  21.020  0.00  0.00    +0.000 A 
ATOM     24  C   UNL     1       0.913   3.125  19.700  0.00  0.00    +0.000 A 
ATOM     25  C   UNL     1       1.433   3.970  18.718  0.00  0.00    +0.000 A 
ATOM     26  C   UNL     1       2.334   4.997  19.051  0.00  0.00    +0.000 A 
ATOM     27  C   UNL     1       2.759   5.105  20.394  0.00  0.00    +0.000 A 
ATOM     28  C   UNL     1       2.255   4.244  21.371  0.00  0.00    +0.000 A 
ENDBRANCH  21  26
BRANCH  21  29
ATOM     29  C   UNL     1       4.055   5.574  17.215  0.00  0.00    +0.000 A 
ATOM     30  C   UNL     1       4.798   6.574  16.546  0.00  0.00    +0.000 A 
ATOM     31  C   UNL     1       5.828   6.258  15.651  0.00  0.00    +0.000 A 
ATOM     32  C   UNL     1       6.148   4.925  15.412  0.00  0.00    +0.000 A 
ATOM     33  F   UNL     1       7.095   4.625  14.512  0.00  0.00    +0.000 F 
ATOM     34  C   UNL     1       5.472   3.916  16.073  0.00  0.00    +0.000 A 
ATOM     35  C   UNL     1       4.442   4.231  16.978  0.00  0.00    +0.000 A 
ENDBRANCH  21  29
ENDBRANCH  20  21
ENDBRANCH  19  20
ENDBRANCH   1  19
TORSDOF 10
ENDMDL
MODEL 8
REMARK VINA RESULT:      -8.1      3.813      9.974
REMARK  Name = 
REMARK  10 active torsions:
REMARK  status: ('A' for Active; 'I' for Inactive)
REMARK    1  A    between atoms: C_5  and  C_6
REMARK    2  A    between atoms: C_6  and  O_7
REMARK    3  A    between atoms: C_6  and  C_27
REMARK    4  A    between atoms: O_7  and  C_8
REMARK    5  A    between atoms: C_8  and  C_9
REMARK    6  A    between atoms: C_9  and  C_10
REMARK    7  A    between atoms: N_17  and  C_18
REMARK    8  A    between atoms: C_18  and  C_19
REMARK    9  A    between atoms: C_19  and  C_20
REMARK   10  A    between atoms: C_20  and  C_21
REMARK                            x       y       z     vdW  Elec       q    Type
REMARK                         _______ _______ _______ _____ _____    ______ ____
ROOT
ATOM      1  C   UNL     1       2.131   9.627  18.200  0.00  0.00    +0.000 C 
ENDROOT
BRANCH   1   2
ATOM      2  C   UNL     1       1.049  10.737  18.395  0.00  0.00    +0.000 C 
ATOM      3  C   UNL     1       1.527  11.705  19.530  0.00  0.00    +0.000 C 
ATOM      4  C   UNL     1       0.939  11.421  20.936  0.00  0.00    +0.000 C 
ATOM      5  C   UNL     1       1.202   9.999  21.439  0.00  0.00    +0.000 C 
ATOM      6  C   UNL     1       0.041   9.174  20.881  0.00  0.00    +0.000 C 
ATOM      7  C   UNL     1      -0.828  10.196  20.136  0.00  0.00    +0.000 C 
ATOM      8  C   UNL     1      -0.411  10.291  18.646  0.00  0.00    +0.000 C 
ATOM      9  N   UNL     1      -0.529  11.415  20.907  0.00  0.00    +0.000 NA
BRANCH   9  10
ATOM     10  C   UNL     1      -1.114  12.675  20.448  0.00  0.00    +0.000 C 
BRANCH  10  11
ATOM     11  C   UNL     1      -2.516  12.556  19.852  0.00  0.00    +0.000 C 
BRANCH  11  12
ATOM     12  C   UNL     1      -3.538  13.435  20.572  0.00  0.00    +0.000 C 
BRANCH  12  13
ATOM     13  C   UNL     1      -4.929  12.857  20.455  0.00  0.00    +0.000 A 
ATOM     14  C   UNL     1      -5.714  12.673  21.600  0.00  0.00    +0.000 A 
ATOM     15  C   UNL     1      -6.982  12.112  21.495  0.00  0.00    +0.000 A 
ATOM     16  C   UNL     1      -7.487  11.731  20.251  0.00  0.00    +0.000 A 
ATOM     17  C   UNL     1      -6.712  11.904  19.107  0.00  0.00    +0.000 A 
ATOM     18  C   UNL     1      -5.433  12.463  19.206  0.00  0.00    +0.000 A 
ENDBRANCH  12  13
ENDBRANCH  11  12
ENDBRANCH  10  11
ENDBRANCH   9  10
ENDBRANCH   1   2
BRANCH   1  19
ATOM     19  C   UNL     1       1.849   8.150  17.848  0.00  0.00    +0.000 C 
BRANCH  19  20
ATOM     20  O   UNL     1       2.549   7.175  18.584  0.00  0.00    +0.000 OA
BRANCH  20  21
ATOM     21  C   UNL     1       2.827   5.872  18.031  0.00  0.00    +0.000 C 
BRANCH  21  26
ATOM     22  F   UNL     1       0.765   2.388  22.002  0.00  0.00    +0.000 F 
ATOM     23  C   UNL     1       1.311   3.167  21.059  0.00  0.00    +0.000 A 
ATOM     24  C   UNL     1       0.856   3.071  19.750  0.00  0.00    +0.000 A 
ATOM     25  C   UNL     1       1.393   3.909  18.772  0.00  0.00    +0.000 A 
ATOM     26  C   UNL     1       2.363   4.873  19.100  0.00  0.00    +0.000 A 
ATOM     27  C   UNL     1       2.835   4.922  20.430  0.00  0.00    +0.000 A 
ATOM     28  C   UNL     1       2.312   4.066  21.402  0.00  0.00    +0.000 A 
ENDBRANCH  21  26
BRANCH  21  29
ATOM     29  C   UNL     1       4.145   5.468  17.328  0.00  0.00    +0.000 A 
ATOM     30  C   UNL     1       5.107   6.474  17.079  0.00  0.00    +0.000 A 
ATOM     31  C   UNL     1       6.214   6.252  16.250  0.00  0.00    +0.000 A 
ATOM     32  C   UNL     1       6.390   5.006  15.655  0.00  0.00    +0.000 A 
ATOM     33  F   UNL     1       7.418   4.815  14.817  0.00  0.00    +0.000 F 
ATOM     34  C   UNL     1       5.494   3.982  15.902  0.00  0.00    +0.000 A 
ATOM     35  C   UNL     1       4.386   4.201  16.741  0.00  0.00    +0.000 A 
ENDBRANCH  21  29
ENDBRANCH  20  21
ENDBRANCH  19  20
ENDBRANCH   1  19
TORSDOF 10
ENDMDL
MODEL 9
REMARK VINA RESULT:      -8.0      0.674      4.028
REMARK  Name = 
REMARK  10 active torsions:
REMARK  status: ('A' for Active; 'I' for Inactive)
REMARK    1  A    between atoms: C_5  and  C_6
REMARK    2  A    between atoms: C_6  and  O_7
REMARK    3  A    between atoms: C_6  and  C_27
REMARK    4  A    between atoms: O_7  and  C_8
REMARK    5  A    between atoms: C_8  and  C_9
REMARK    6  A    between atoms: C_9  and  C_10
REMARK    7  A    between atoms: N_17  and  C_18
REMARK    8  A    between atoms: C_18  and  C_19
REMARK    9  A    between atoms: C_19  and  C_20
REMARK   10  A    between atoms: C_20  and  C_21
REMARK                            x       y       z     vdW  Elec       q    Type
REMARK                         _______ _______ _______ _____ _____    ______ ____
ROOT
ATOM      1  C   UNL     1       2.091   7.431  20.062  0.00  0.00    +0.000 C 
ENDROOT
BRANCH   1   2
ATOM      2  C   UNL     1       2.814   6.593  18.960  0.00  0.00    +0.000 C 
ATOM      3  C   UNL     1       1.732   5.827  18.126  0.00  0.00    +0.000 C 
ATOM      4  C   UNL     1       1.490   4.354  18.546  0.00  0.00    +0.000 C 
ATOM      5  C   UNL     1       1.102   4.188  20.017  0.00  0.00    +0.000 C 
ATOM      6  C   UNL     1       2.438   4.090  20.757  0.00  0.00    +0.000 C 
ATOM      7  C   UNL     1       3.494   4.162  19.647  0.00  0.00    +0.000 C 
ATOM      8  C   UNL     1       3.937   5.627  19.403  0.00  0.00    +0.000 C 
ATOM      9  N   UNL     1       2.740   3.582  18.522  0.00  0.00    +0.000 NA
BRANCH   9  10
ATOM     10  C   UNL     1       3.386   3.550  17.210  0.00  0.00    +0.000 C 
BRANCH  10  11
ATOM     11  C   UNL     1       4.882   3.237  17.236  0.00  0.00    +0.000 C 
BRANCH  11  12
ATOM     12  C   UNL     1       5.688   4.141  16.304  0.00  0.00    +0.000 C 
BRANCH  12  13
ATOM     13  C   UNL     1       6.483   5.160  17.089  0.00  0.00    +0.000 A 
ATOM     14  C   UNL     1       6.461   6.509  16.716  0.00  0.00    +0.000 A 
ATOM     15  C   UNL     1       7.217   7.440  17.419  0.00  0.00    +0.000 A 
ATOM     16  C   UNL     1       8.000   7.043  18.504  0.00  0.00    +0.000 A 
ATOM     17  C   UNL     1       8.033   5.702  18.879  0.00  0.00    +0.000 A 
ATOM     18  C   UNL     1       7.280   4.759  18.172  0.00  0.00    +0.000 A 
ENDBRANCH  12  13
ENDBRANCH  11  12
ENDBRANCH  10  11
ENDBRANCH   9  10
ENDBRANCH   1   2
BRANCH   1  19
ATOM     19  C   UNL     1       1.240   8.696  19.814  0.00  0.00    +0.000 C 
BRANCH  19  20
ATOM     20  O   UNL     1       1.711   9.601  18.844  0.00  0.00    +0.000 OA
BRANCH  20  21
ATOM     21  C   UNL     1       0.894  10.694  18.376  0.00  0.00    +0.000 C 
BRANCH  21  26
ATOM     22  F   UNL     1       3.693  15.178  20.430  0.00  0.00    +0.000 F 
ATOM     23  C   UNL     1       2.971  14.161  19.944  0.00  0.00    +0.000 A 
ATOM     24  C   UNL     1       3.053  13.853  18.591  0.00  0.00    +0.000 A 
ATOM     25  C   UNL     1       2.334  12.767  18.088  0.00  0.00    +0.000 A 
ATOM     26  C   UNL     1       1.555  11.961  18.937  0.00  0.00    +0.000 A 
ATOM     27  C   UNL     1       1.458  12.320  20.299  0.00  0.00    +0.000 A 
ATOM     28  C   UNL     1       2.161  13.420  20.796  0.00  0.00    +0.000 A 
ENDBRANCH  21  26
BRANCH  21  29
ATOM     29  C   UNL     1      -0.653  10.727  18.416  0.00  0.00    +0.000 A 
ATOM     30  C   UNL     1      -1.364   9.882  17.532  0.00  0.00    +0.000 A 
ATOM     31  C   UNL     1      -2.744  10.012  17.333  0.00  0.00    +0.000 A 
ATOM     32  C   UNL     1      -3.451  10.990  18.026  0.00  0.00    +0.000 A 
ATOM     33  F   UNL     1      -4.761  11.149  17.791  0.00  0.00    +0.000 F 
ATOM     34  C   UNL     1      -2.802  11.813  18.929  0.00  0.00    +0.000 A 
ATOM     35  C   UNL     1      -1.417  11.679  19.136  0.00  0.00    +0.000 A 
ENDBRANCH  21  29
ENDBRANCH  20  21
ENDBRANCH  19  20
ENDBRANCH   1  19
TORSDOF 10
ENDMDL
