MODEL 1
REMARK VINA RESULT:      -7.0      0.000      0.000
REMARK  Name = 
REMARK  13 active torsions:
REMARK  status: ('A' for Active; 'I' for Inactive)
REMARK    1  A    between atoms: C_1  and  O_2
REMARK    2  A    between atoms: O_2  and  C_3
REMARK    3  A    between atoms: C_3  and  C_4
REMARK    4  A    between atoms: C_4  and  N_5
REMARK    5  A    between atoms: C_6  and  C_8
REMARK    6  A    between atoms: C_11  and  C_12
REMARK    7  A    between atoms: C_12  and  S_13
REMARK    8  A    between atoms: S_13  and  C_14
REMARK    9  A    between atoms: C_23  and  C_24
REMARK   10  A    between atoms: N_26  and  C_27
REMARK   11  A    between atoms: C_27  and  C_28
REMARK   12  A    between atoms: C_28  and  O_29
REMARK   13  A    between atoms: O_29  and  C_30
REMARK                            x       y       z     vdW  Elec       q    Type
REMARK                         _______ _______ _______ _____ _____    ______ ____
ROOT
ATOM      1  C   UNL     1       3.547   6.500  17.828  0.00  0.00    +0.000 A 
ATOM      2  O   UNL     1       3.647   7.744  17.291  0.00  0.00    +0.000 OA
ATOM      3  N   UNL     1       2.809   8.613  17.943  0.00  0.00    +0.000 NA
ATOM      4  C   UNL     1       2.191   7.900  18.900  0.00  0.00    +0.000 A 
ATOM      5  C   UNL     1       2.616   6.520  18.853  0.00  0.00    +0.000 A 
ENDROOT
BRANCH   1   7
ATOM      6  N   UNL     1       5.687   5.813  17.057  0.00  0.00    +0.000 N 
ATOM      7  C   UNL     1       4.373   5.462  17.257  0.00  0.00    +0.000 C 
ATOM      8  O   UNL     1       3.942   4.366  16.908  0.00  0.00    +0.000 OA
ATOM      9  H   UNL     1       6.031   6.690  17.437  0.00  0.00    +0.000 HD
BRANCH   6  10
ATOM     10  C   UNL     1       6.659   4.905  16.478  0.00  0.00    +0.000 C 
BRANCH  10  11
ATOM     11  C   UNL     1       6.657   4.991  14.954  0.00  0.00    +0.000 C 
BRANCH  11  13
ATOM     12  C   UNL     1       6.275   3.698  13.022  0.00  0.00    +0.000 C 
ATOM     13  O   UNL     1       6.035   3.819  14.419  0.00  0.00    +0.000 OA
ENDBRANCH  11  13
ENDBRANCH  10  11
ENDBRANCH   6  10
ENDBRANCH   1   7
BRANCH   5  14
ATOM     14  C   UNL     1       2.122   5.414  19.657  0.00  0.00    +0.000 C 
ATOM     15  O   UNL     1       2.224   5.428  20.881  0.00  0.00    +0.000 OA
ATOM     16  N   UNL     1       1.509   4.361  19.013  0.00  0.00    +0.000 N 
ATOM     17  H   UNL     1       1.522   4.281  18.001  0.00  0.00    +0.000 HD
BRANCH  16  18
ATOM     18  C   UNL     1       0.904   3.250  19.730  0.00  0.00    +0.000 C 
BRANCH  18  19
ATOM     19  C   UNL     1       1.633   1.919  19.526  0.00  0.00    +0.000 C 
BRANCH  19  20
ATOM     20  O   UNL     1       3.050   2.137  19.502  0.00  0.00    +0.000 OA
ATOM     21  C   UNL     1       3.663   1.344  18.493  0.00  0.00    +0.000 C 
ENDBRANCH  19  20
ENDBRANCH  18  19
ENDBRANCH  16  18
ENDBRANCH   5  14
BRANCH   4  22
ATOM     22  C   UNL     1       1.188   8.610  19.786  0.00  0.00    +0.000 C 
BRANCH  22  23
ATOM     23  S   UNL     1       1.145  10.412  19.455  0.00  0.00    +0.000 S 
BRANCH  23  24
ATOM     24  C   UNL     1      -0.377  10.647  18.675  0.00  0.00    +0.000 A 
ATOM     25  N   UNL     1      -1.431  11.258  19.151  0.00  0.00    +0.000 NA
ATOM     26  C   UNL     1      -2.398  11.107  18.184  0.00  0.00    +0.000 A 
ATOM     27  C   UNL     1      -3.727  11.549  18.184  0.00  0.00    +0.000 A 
ATOM     28  C   UNL     1      -4.517  11.317  17.051  0.00  0.00    +0.000 A 
ATOM     29  C   UNL     1      -3.993  10.636  15.942  0.00  0.00    +0.000 A 
ATOM     30  C   UNL     1      -2.685  10.152  15.937  0.00  0.00    +0.000 A 
ATOM     31  C   UNL     1      -1.912  10.410  17.081  0.00  0.00    +0.000 A 
ATOM     32  N   UNL     1      -0.623  10.094  17.442  0.00  0.00    +0.000 N 
ATOM     33  H   UNL     1       0.042   9.549  16.910  0.00  0.00    +0.000 HD
ENDBRANCH  23  24
ENDBRANCH  22  23
ENDBRANCH   4  22
TORSDOF 11
ENDMDL
MODEL 2
REMARK VINA RESULT:      -6.8      5.532      8.899
REMARK  Name = 
REMARK  13 active torsions:
REMARK  status: ('A' for Active; 'I' for Inactive)
REMARK    1  A    between atoms: C_1  and  O_2
REMARK    2  A    between atoms: O_2  and  C_3
REMARK    3  A    between atoms: C_3  and  C_4
REMARK    4  A    between atoms: C_4  and  N_5
REMARK    5  A    between atoms: C_6  and  C_8
REMARK    6  A    between atoms: C_11  and  C_12
REMARK    7  A    between atoms: C_12  and  S_13
REMARK    8  A    between atoms: S_13  and  C_14
REMARK    9  A    between atoms: C_23  and  C_24
REMARK   10  A    between atoms: N_26  and  C_27
REMARK   11  A    between atoms: C_27  and  C_28
REMARK   12  A    between atoms: C_28  and  O_29
REMARK   13  A    between atoms: O_29  and  C_30
REMARK                            x       y       z     vdW  Elec       q    Type
REMARK                         _______ _______ _______ _____ _____    ______ ____
ROOT
ATOM      1  C   UNL     1       5.301   4.389  18.325  0.00  0.00    +0.000 A 
ATOM      2  O   UNL     1       5.686   4.470  19.626  0.00  0.00    +0.000 OA
ATOM      3  N   UNL     1       6.709   5.374  19.764  0.00  0.00    +0.000 NA
ATOM      4  C   UNL     1       6.951   5.865  18.537  0.00  0.00    +0.000 A 
ATOM      5  C   UNL     1       6.083   5.242  17.565  0.00  0.00    +0.000 A 
ENDROOT
BRANCH   1   7
ATOM      6  N   UNL     1       2.978   3.898  18.412  0.00  0.00    +0.000 N 
ATOM      7  C   UNL     1       4.223   3.481  18.007  0.00  0.00    +0.000 C 
ATOM      8  O   UNL     1       4.392   2.386  17.477  0.00  0.00    +0.000 OA
ATOM      9  H   UNL     1       2.859   4.843  18.765  0.00  0.00    +0.000 HD
BRANCH   6  10
ATOM     10  C   UNL     1       1.780   3.108  18.193  0.00  0.00    +0.000 C 
BRANCH  10  11
ATOM     11  C   UNL     1       1.402   2.318  19.443  0.00  0.00    +0.000 C 
BRANCH  11  13
ATOM     12  C   UNL     1       1.780   2.776  21.723  0.00  0.00    +0.000 C 
ATOM     13  O   UNL     1       2.386   2.546  20.457  0.00  0.00    +0.000 OA
ENDBRANCH  11  13
ENDBRANCH  10  11
ENDBRANCH   6  10
ENDBRANCH   1   7
BRANCH   5  14
ATOM     14  C   UNL     1       6.088   5.431  16.123  0.00  0.00    +0.000 C 
ATOM     15  O   UNL     1       5.512   6.386  15.609  0.00  0.00    +0.000 OA
ATOM     16  N   UNL     1       6.782   4.527  15.349  0.00  0.00    +0.000 N 
ATOM     17  H   UNL     1       7.162   3.673  15.746  0.00  0.00    +0.000 HD
BRANCH  16  18
ATOM     18  C   UNL     1       6.923   4.675  13.909  0.00  0.00    +0.000 C 
BRANCH  18  19
ATOM     19  C   UNL     1       5.942   3.817  13.105  0.00  0.00    +0.000 C 
BRANCH  19  20
ATOM     20  O   UNL     1       6.654   3.041  12.133  0.00  0.00    +0.000 OA
ATOM     21  C   UNL     1       5.781   2.121  11.489  0.00  0.00    +0.000 C 
ENDBRANCH  19  20
ENDBRANCH  18  19
ENDBRANCH  16  18
ENDBRANCH   5  14
BRANCH   4  22
ATOM     22  C   UNL     1       8.052   6.895  18.383  0.00  0.00    +0.000 C 
BRANCH  22  23
ATOM     23  S   UNL     1       7.418   8.469  17.693  0.00  0.00    +0.000 S 
BRANCH  23  24
ATOM     24  C   UNL     1       8.595   9.633  18.182  0.00  0.00    +0.000 A 
ATOM     25  N   UNL     1       9.396  10.327  17.417  0.00  0.00    +0.000 NA
ATOM     26  C   UNL     1      10.185  11.045  18.285  0.00  0.00    +0.000 A 
ATOM     27  C   UNL     1      11.229  11.937  18.003  0.00  0.00    +0.000 A 
ATOM     28  C   UNL     1      11.862  12.595  19.064  0.00  0.00    +0.000 A 
ATOM     29  C   UNL     1      11.473  12.351  20.390  0.00  0.00    +0.000 A 
ATOM     30  C   UNL     1      10.465  11.436  20.696  0.00  0.00    +0.000 A 
ATOM     31  C   UNL     1       9.839  10.801  19.611  0.00  0.00    +0.000 A 
ATOM     32  N   UNL     1       8.839   9.861  19.514  0.00  0.00    +0.000 N 
ATOM     33  H   UNL     1       8.360   9.403  20.277  0.00  0.00    +0.000 HD
ENDBRANCH  23  24
ENDBRANCH  22  23
ENDBRANCH   4  22
TORSDOF 11
ENDMDL
MODEL 3
REMARK VINA RESULT:      -6.7      4.206      7.508
REMARK  Name = 
REMARK  13 active torsions:
REMARK  status: ('A' for Active; 'I' for Inactive)
REMARK    1  A    between atoms: C_1  and  O_2
REMARK    2  A    between atoms: O_2  and  C_3
REMARK    3  A    between atoms: C_3  and  C_4
REMARK    4  A    between atoms: C_4  and  N_5
REMARK    5  A    between atoms: C_6  and  C_8
REMARK    6  A    between atoms: C_11  and  C_12
REMARK    7  A    between atoms: C_12  and  S_13
REMARK    8  A    between atoms: S_13  and  C_14
REMARK    9  A    between atoms: C_23  and  C_24
REMARK   10  A    between atoms: N_26  and  C_27
REMARK   11  A    between atoms: C_27  and  C_28
REMARK   12  A    between atoms: C_28  and  O_29
REMARK   13  A    between atoms: O_29  and  C_30
REMARK                            x       y       z     vdW  Elec       q    Type
REMARK                         _______ _______ _______ _____ _____    ______ ____
ROOT
ATOM      1  C   UNL     1       7.274   6.752  17.238  0.00  0.00    +0.000 A 
ATOM      2  O   UNL     1       7.878   6.489  16.050  0.00  0.00    +0.000 OA
ATOM      3  N   UNL     1       7.084   5.677  15.281  0.00  0.00    +0.000 NA
ATOM      4  C   UNL     1       5.971   5.445  15.997  0.00  0.00    +0.000 A 
ATOM      5  C   UNL     1       6.054   6.098  17.283  0.00  0.00    +0.000 A 
ENDROOT
BRANCH   1   7
ATOM      6  N   UNL     1       8.115   8.910  17.767  0.00  0.00    +0.000 N 
ATOM      7  C   UNL     1       7.979   7.603  18.169  0.00  0.00    +0.000 C 
ATOM      8  O   UNL     1       8.485   7.196  19.211  0.00  0.00    +0.000 OA
ATOM      9  H   UNL     1       7.611   9.234  16.947  0.00  0.00    +0.000 HD
BRANCH   6  10
ATOM     10  C   UNL     1       8.808   9.904  18.565  0.00  0.00    +0.000 C 
BRANCH  10  11
ATOM     11  C   UNL     1       8.656  11.299  17.965  0.00  0.00    +0.000 C 
BRANCH  11  13
ATOM     12  C   UNL     1       9.442  12.009  20.070  0.00  0.00    +0.000 C 
ATOM     13  O   UNL     1       9.516  12.206  18.663  0.00  0.00    +0.000 OA
ENDBRANCH  11  13
ENDBRANCH  10  11
ENDBRANCH   6  10
ENDBRANCH   1   7
BRANCH   5  14
ATOM     14  C   UNL     1       5.101   6.021  18.378  0.00  0.00    +0.000 C 
ATOM     15  O   UNL     1       5.423   5.547  19.464  0.00  0.00    +0.000 OA
ATOM     16  N   UNL     1       3.833   6.523  18.177  0.00  0.00    +0.000 N 
ATOM     17  H   UNL     1       3.519   6.809  17.255  0.00  0.00    +0.000 HD
BRANCH  16  18
ATOM     18  C   UNL     1       2.835   6.576  19.233  0.00  0.00    +0.000 C 
BRANCH  18  19
ATOM     19  C   UNL     1       2.095   7.914  19.312  0.00  0.00    +0.000 C 
BRANCH  19  20
ATOM     20  O   UNL     1       2.002   8.341  20.677  0.00  0.00    +0.000 OA
ATOM     21  C   UNL     1       0.699   8.097  21.192  0.00  0.00    +0.000 C 
ENDBRANCH  19  20
ENDBRANCH  18  19
ENDBRANCH  16  18
ENDBRANCH   5  14
BRANCH   4  22
ATOM     22  C   UNL     1       4.901   4.560  15.390  0.00  0.00    +0.000 C 
BRANCH  22  23
ATOM     23  S   UNL     1       4.996   2.845  16.027  0.00  0.00    +0.000 S 
BRANCH  23  24
ATOM     24  C   UNL     1       3.930   2.855  17.385  0.00  0.00    +0.000 A 
ATOM     25  N   UNL     1       2.637   3.053  17.383  0.00  0.00    +0.000 NA
ATOM     26  C   UNL     1       2.272   3.040  18.709  0.00  0.00    +0.000 A 
ATOM     27  C   UNL     1       1.007   3.226  19.282  0.00  0.00    +0.000 A 
ATOM     28  C   UNL     1       0.870   3.118  20.671  0.00  0.00    +0.000 A 
ATOM     29  C   UNL     1       1.984   2.850  21.479  0.00  0.00    +0.000 A 
ATOM     30  C   UNL     1       3.261   2.702  20.935  0.00  0.00    +0.000 A 
ATOM     31  C   UNL     1       3.365   2.802  19.538  0.00  0.00    +0.000 A 
ATOM     32  N   UNL     1       4.423   2.725  18.661  0.00  0.00    +0.000 N 
ATOM     33  H   UNL     1       5.398   2.599  18.894  0.00  0.00    +0.000 HD
ENDBRANCH  23  24
ENDBRANCH  22  23
ENDBRANCH   4  22
TORSDOF 11
ENDMDL
MODEL 4
REMARK VINA RESULT:      -6.6      3.928      9.359
REMARK  Name = 
REMARK  13 active torsions:
REMARK  status: ('A' for Active; 'I' for Inactive)
REMARK    1  A    between atoms: C_1  and  O_2
REMARK    2  A    between atoms: O_2  and  C_3
REMARK    3  A    between atoms: C_3  and  C_4
REMARK    4  A    between atoms: C_4  and  N_5
REMARK    5  A    between atoms: C_6  and  C_8
REMARK    6  A    between atoms: C_11  and  C_12
REMARK    7  A    between atoms: C_12  and  S_13
REMARK    8  A    between atoms: S_13  and  C_14
REMARK    9  A    between atoms: C_23  and  C_24
REMARK   10  A    between atoms: N_26  and  C_27
REMARK   11  A    between atoms: C_27  and  C_28
REMARK   12  A    between atoms: C_28  and  O_29
REMARK   13  A    between atoms: O_29  and  C_30
REMARK                            x       y       z     vdW  Elec       q    Type
REMARK                         _______ _______ _______ _____ _____    ______ ____
ROOT
ATOM      1  C   UNL     1       0.076  10.454  21.318  0.00  0.00    +0.000 A 
ATOM      2  O   UNL     1       0.997   9.520  21.672  0.00  0.00    +0.000 OA
ATOM      3  N   UNL     1       1.488   8.890  20.557  0.00  0.00    +0.000 NA
ATOM      4  C   UNL     1       0.872   9.449  19.502  0.00  0.00    +0.000 A 
ATOM      5  C   UNL     1      -0.070  10.451  19.941  0.00  0.00    +0.000 A 
ENDROOT
BRANCH   1   7
ATOM      6  N   UNL     1      -0.533  12.579  22.193  0.00  0.00    +0.000 N 
ATOM      7  C   UNL     1      -0.538  11.217  22.381  0.00  0.00    +0.000 C 
ATOM      8  O   UNL     1      -0.977  10.714  23.412  0.00  0.00    +0.000 OA
ATOM      9  H   UNL     1      -0.245  12.956  21.295  0.00  0.00    +0.000 HD
BRANCH   6  10
ATOM     10  C   UNL     1      -1.090  13.503  23.162  0.00  0.00    +0.000 C 
BRANCH  10  11
ATOM     11  C   UNL     1      -2.561  13.788  22.871  0.00  0.00    +0.000 C 
BRANCH  11  13
ATOM     12  C   UNL     1      -4.032  14.507  21.176  0.00  0.00    +0.000 C 
ATOM     13  O   UNL     1      -2.724  14.032  21.470  0.00  0.00    +0.000 OA
ENDBRANCH  11  13
ENDBRANCH  10  11
ENDBRANCH   6  10
ENDBRANCH   1   7
BRANCH   5  14
ATOM     14  C   UNL     1      -0.993  11.219  19.122  0.00  0.00    +0.000 C 
ATOM     15  O   UNL     1      -0.970  12.447  19.125  0.00  0.00    +0.000 OA
ATOM     16  N   UNL     1      -1.877  10.533  18.316  0.00  0.00    +0.000 N 
ATOM     17  H   UNL     1      -1.986   9.527  18.390  0.00  0.00    +0.000 HD
BRANCH  16  18
ATOM     18  C   UNL     1      -2.778  11.205  17.394  0.00  0.00    +0.000 C 
BRANCH  18  19
ATOM     19  C   UNL     1      -2.577  10.797  15.932  0.00  0.00    +0.000 C 
BRANCH  19  20
ATOM     20  O   UNL     1      -3.824  10.373  15.367  0.00  0.00    +0.000 OA
ATOM     21  C   UNL     1      -3.677  10.092  13.980  0.00  0.00    +0.000 C 
ENDBRANCH  19  20
ENDBRANCH  18  19
ENDBRANCH  16  18
ENDBRANCH   5  14
BRANCH   4  22
ATOM     22  C   UNL     1       1.220   8.939  18.118  0.00  0.00    +0.000 C 
BRANCH  22  23
ATOM     23  S   UNL     1       2.848   8.099  18.092  0.00  0.00    +0.000 S 
BRANCH  23  24
ATOM     24  C   UNL     1       2.494   6.506  18.655  0.00  0.00    +0.000 A 
ATOM     25  N   UNL     1       2.088   5.483  17.949  0.00  0.00    +0.000 NA
ATOM     26  C   UNL     1       1.876   4.479  18.866  0.00  0.00    +0.000 A 
ATOM     27  C   UNL     1       1.416   3.172  18.658  0.00  0.00    +0.000 A 
ATOM     28  C   UNL     1       1.326   2.304  19.753  0.00  0.00    +0.000 A 
ATOM     29  C   UNL     1       1.672   2.741  21.041  0.00  0.00    +0.000 A 
ATOM     30  C   UNL     1       2.094   4.050  21.277  0.00  0.00    +0.000 A 
ATOM     31  C   UNL     1       2.186   4.894  20.158  0.00  0.00    +0.000 A 
ATOM     32  N   UNL     1       2.544   6.212  19.996  0.00  0.00    +0.000 N 
ATOM     33  H   UNL     1       2.798   6.867  20.722  0.00  0.00    +0.000 HD
ENDBRANCH  23  24
ENDBRANCH  22  23
ENDBRANCH   4  22
TORSDOF 11
ENDMDL
MODEL 5
REMARK VINA RESULT:      -6.5      2.744      3.688
REMARK  Name = 
REMARK  13 active torsions:
REMARK  status: ('A' for Active; 'I' for Inactive)
REMARK    1  A    between atoms: C_1  and  O_2
REMARK    2  A    between atoms: O_2  and  C_3
REMARK    3  A    between atoms: C_3  and  C_4
REMARK    4  A    between atoms: C_4  and  N_5
REMARK    5  A    between atoms: C_6  and  C_8
REMARK    6  A    between atoms: C_11  and  C_12
REMARK    7  A    between atoms: C_12  and  S_13
REMARK    8  A    between atoms: S_13  and  C_14
REMARK    9  A    between atoms: C_23  and  C_24
REMARK   10  A    between atoms: N_26  and  C_27
REMARK   11  A    between atoms: C_27  and  C_28
REMARK   12  A    between atoms: C_28  and  O_29
REMARK   13  A    between atoms: O_29  and  C_30
REMARK                            x       y       z     vdW  Elec       q    Type
REMARK                         _______ _______ _______ _____ _____    ______ ____
ROOT
ATOM      1  C   UNL     1       5.363   5.439  16.092  0.00  0.00    +0.000 A 
ATOM      2  O   UNL     1       5.155   6.679  15.576  0.00  0.00    +0.000 OA
ATOM      3  N   UNL     1       4.330   7.404  16.398  0.00  0.00    +0.000 NA
ATOM      4  C   UNL     1       4.035   6.608  17.439  0.00  0.00    +0.000 A 
ATOM      5  C   UNL     1       4.658   5.315  17.277  0.00  0.00    +0.000 A 
ENDROOT
BRANCH   1   7
ATOM      6  N   UNL     1       6.582   4.997  14.100  0.00  0.00    +0.000 N 
ATOM      7  C   UNL     1       6.219   4.545  15.347  0.00  0.00    +0.000 C 
ATOM      8  O   UNL     1       6.553   3.433  15.748  0.00  0.00    +0.000 OA
ATOM      9  H   UNL     1       6.365   5.953  13.835  0.00  0.00    +0.000 HD
BRANCH   6  10
ATOM     10  C   UNL     1       7.424   4.226  13.205  0.00  0.00    +0.000 C 
BRANCH  10  11
ATOM     11  C   UNL     1       6.708   3.932  11.889  0.00  0.00    +0.000 C 
BRANCH  11  13
ATOM     12  C   UNL     1       4.485   3.218  11.571  0.00  0.00    +0.000 C 
ATOM     13  O   UNL     1       5.763   2.877  12.095  0.00  0.00    +0.000 OA
ENDBRANCH  11  13
ENDBRANCH  10  11
ENDBRANCH   6  10
ENDBRANCH   1   7
BRANCH   5  14
ATOM     14  C   UNL     1       4.516   4.150  18.135  0.00  0.00    +0.000 C 
ATOM     15  O   UNL     1       5.280   3.962  19.077  0.00  0.00    +0.000 OA
ATOM     16  N   UNL     1       3.481   3.275  17.881  0.00  0.00    +0.000 N 
ATOM     17  H   UNL     1       2.917   3.354  17.040  0.00  0.00    +0.000 HD
BRANCH  16  18
ATOM     18  C   UNL     1       3.198   2.130  18.731  0.00  0.00    +0.000 C 
BRANCH  18  19
ATOM     19  C   UNL     1       1.790   2.145  19.332  0.00  0.00    +0.000 C 
BRANCH  19  20
ATOM     20  O   UNL     1       1.681   3.201  20.296  0.00  0.00    +0.000 OA
ATOM     21  C   UNL     1       1.324   2.681  21.571  0.00  0.00    +0.000 C 
ENDBRANCH  19  20
ENDBRANCH  18  19
ENDBRANCH  16  18
ENDBRANCH   5  14
BRANCH   4  22
ATOM     22  C   UNL     1       3.122   7.152  18.519  0.00  0.00    +0.000 C 
BRANCH  22  23
ATOM     23  S   UNL     1       2.005   8.453  17.873  0.00  0.00    +0.000 S 
BRANCH  23  24
ATOM     24  C   UNL     1       1.270   9.102  19.294  0.00  0.00    +0.000 A 
ATOM     25  N   UNL     1       1.085   8.502  20.441  0.00  0.00    +0.000 NA
ATOM     26  C   UNL     1       0.395   9.410  21.211  0.00  0.00    +0.000 A 
ATOM     27  C   UNL     1      -0.080   9.279  22.523  0.00  0.00    +0.000 A 
ATOM     28  C   UNL     1      -0.718  10.371  23.123  0.00  0.00    +0.000 A 
ATOM     29  C   UNL     1      -0.899  11.569  22.417  0.00  0.00    +0.000 A 
ATOM     30  C   UNL     1      -0.470  11.708  21.097  0.00  0.00    +0.000 A 
ATOM     31  C   UNL     1       0.178  10.601  20.525  0.00  0.00    +0.000 A 
ATOM     32  N   UNL     1       0.718  10.360  19.283  0.00  0.00    +0.000 N 
ATOM     33  H   UNL     1       0.716  10.983  18.487  0.00  0.00    +0.000 HD
ENDBRANCH  23  24
ENDBRANCH  22  23
ENDBRANCH   4  22
TORSDOF 11
ENDMDL
MODEL 6
REMARK VINA RESULT:      -6.5      3.436      5.942
REMARK  Name = 
REMARK  13 active torsions:
REMARK  status: ('A' for Active; 'I' for Inactive)
REMARK    1  A    between atoms: C_1  and  O_2
REMARK    2  A    between atoms: O_2  and  C_3
REMARK    3  A    between atoms: C_3  and  C_4
REMARK    4  A    between atoms: C_4  and  N_5
REMARK    5  A    between atoms: C_6  and  C_8
REMARK    6  A    between atoms: C_11  and  C_12
REMARK    7  A    between atoms: C_12  and  S_13
REMARK    8  A    between atoms: S_13  and  C_14
REMARK    9  A    between atoms: C_23  and  C_24
REMARK   10  A    between atoms: N_26  and  C_27
REMARK   11  A    between atoms: C_27  and  C_28
REMARK   12  A    between atoms: C_28  and  O_29
REMARK   13  A    between atoms: O_29  and  C_30
REMARK                            x       y       z     vdW  Elec       q    Type
REMARK                         _______ _______ _______ _____ _____    ______ ____
ROOT
ATOM      1  C   UNL     1       6.059   4.545  16.090  0.00  0.00    +0.000 A 
ATOM      2  O   UNL     1       5.622   3.328  16.509  0.00  0.00    +0.000 OA
ATOM      3  N   UNL     1       5.157   3.407  17.797  0.00  0.00    +0.000 NA
ATOM      4  C   UNL     1       5.297   4.688  18.175  0.00  0.00    +0.000 A 
ATOM      5  C   UNL     1       5.900   5.463  17.115  0.00  0.00    +0.000 A 
ENDROOT
BRANCH   1   7
ATOM      6  N   UNL     1       6.062   3.720  13.862  0.00  0.00    +0.000 N 
ATOM      7  C   UNL     1       6.578   4.638  14.746  0.00  0.00    +0.000 C 
ATOM      8  O   UNL     1       7.461   5.424  14.411  0.00  0.00    +0.000 OA
ATOM      9  H   UNL     1       5.273   3.146  14.144  0.00  0.00    +0.000 HD
BRANCH   6  10
ATOM     10  C   UNL     1       6.478   3.653  12.474  0.00  0.00    +0.000 C 
BRANCH  10  11
ATOM     11  C   UNL     1       5.391   3.035  11.600  0.00  0.00    +0.000 C 
BRANCH  11  13
ATOM     12  C   UNL     1       6.573   1.126  10.889  0.00  0.00    +0.000 C 
ATOM     13  O   UNL     1       5.487   1.609  11.669  0.00  0.00    +0.000 OA
ENDBRANCH  11  13
ENDBRANCH  10  11
ENDBRANCH   6  10
ENDBRANCH   1   7
BRANCH   5  14
ATOM     14  C   UNL     1       6.297   6.860  17.156  0.00  0.00    +0.000 C 
ATOM     15  O   UNL     1       5.458   7.756  17.160  0.00  0.00    +0.000 OA
ATOM     16  N   UNL     1       7.643   7.155  17.221  0.00  0.00    +0.000 N 
ATOM     17  H   UNL     1       8.347   6.434  17.101  0.00  0.00    +0.000 HD
BRANCH  16  18
ATOM     18  C   UNL     1       8.141   8.514  17.355  0.00  0.00    +0.000 C 
BRANCH  18  19
ATOM     19  C   UNL     1       8.619   8.856  18.769  0.00  0.00    +0.000 C 
BRANCH  19  20
ATOM     20  O   UNL     1       8.611  10.277  18.957  0.00  0.00    +0.000 OA
ATOM     21  C   UNL     1       9.875  10.727  19.430  0.00  0.00    +0.000 C 
ENDBRANCH  19  20
ENDBRANCH  18  19
ENDBRANCH  16  18
ENDBRANCH   5  14
BRANCH   4  22
ATOM     22  C   UNL     1       4.864   5.072  19.576  0.00  0.00    +0.000 C 
BRANCH  22  23
ATOM     23  S   UNL     1       3.058   4.870  19.808  0.00  0.00    +0.000 S 
BRANCH  23  24
ATOM     24  C   UNL     1       2.435   6.461  19.562  0.00  0.00    +0.000 A 
ATOM     25  N   UNL     1       2.482   7.175  18.467  0.00  0.00    +0.000 NA
ATOM     26  C   UNL     1       1.923   8.386  18.807  0.00  0.00    +0.000 A 
ATOM     27  C   UNL     1       1.742   9.530  18.019  0.00  0.00    +0.000 A 
ATOM     28  C   UNL     1       1.095  10.639  18.577  0.00  0.00    +0.000 A 
ATOM     29  C   UNL     1       0.655  10.615  19.909  0.00  0.00    +0.000 A 
ATOM     30  C   UNL     1       0.863   9.502  20.724  0.00  0.00    +0.000 A 
ATOM     31  C   UNL     1       1.502   8.399  20.134  0.00  0.00    +0.000 A 
ATOM     32  N   UNL     1       1.878   7.162  20.603  0.00  0.00    +0.000 N 
ATOM     33  H   UNL     1       1.776   6.813  21.546  0.00  0.00    +0.000 HD
ENDBRANCH  23  24
ENDBRANCH  22  23
ENDBRANCH   4  22
TORSDOF 11
ENDMDL
MODEL 7
REMARK VINA RESULT:      -6.5      1.150      1.444
REMARK  Name = 
REMARK  13 active torsions:
REMARK  status: ('A' for Active; 'I' for Inactive)
REMARK    1  A    between atoms: C_1  and  O_2
REMARK    2  A    between atoms: O_2  and  C_3
REMARK    3  A    between atoms: C_3  and  C_4
REMARK    4  A    between atoms: C_4  and  N_5
REMARK    5  A    between atoms: C_6  and  C_8
REMARK    6  A    between atoms: C_11  and  C_12
REMARK    7  A    between atoms: C_12  and  S_13
REMARK    8  A    between atoms: S_13  and  C_14
REMARK    9  A    between atoms: C_23  and  C_24
REMARK   10  A    between atoms: N_26  and  C_27
REMARK   11  A    between atoms: C_27  and  C_28
REMARK   12  A    between atoms: C_28  and  O_29
REMARK   13  A    between atoms: O_29  and  C_30
REMARK                            x       y       z     vdW  Elec       q    Type
REMARK                         _______ _______ _______ _____ _____    ______ ____
ROOT
ATOM      1  C   UNL     1       3.331   6.611  17.993  0.00  0.00    +0.000 A 
ATOM      2  O   UNL     1       3.396   7.871  17.488  0.00  0.00    +0.000 OA
ATOM      3  N   UNL     1       2.588   8.714  18.208  0.00  0.00    +0.000 NA
ATOM      4  C   UNL     1       2.026   7.969  19.175  0.00  0.00    +0.000 A 
ATOM      5  C   UNL     1       2.455   6.594  19.066  0.00  0.00    +0.000 A 
ENDROOT
BRANCH   1   7
ATOM      6  N   UNL     1       4.798   6.013  16.221  0.00  0.00    +0.000 N 
ATOM      7  C   UNL     1       4.132   5.595  17.350  0.00  0.00    +0.000 C 
ATOM      8  O   UNL     1       4.177   4.427  17.724  0.00  0.00    +0.000 OA
ATOM      9  H   UNL     1       4.812   7.002  15.989  0.00  0.00    +0.000 HD
BRANCH   6  10
ATOM     10  C   UNL     1       5.636   5.127  15.436  0.00  0.00    +0.000 C 
BRANCH  10  11
ATOM     11  C   UNL     1       7.115   5.348  15.743  0.00  0.00    +0.000 C 
BRANCH  11  13
ATOM     12  C   UNL     1       7.750   4.650  17.902  0.00  0.00    +0.000 C 
ATOM     13  O   UNL     1       7.596   4.262  16.542  0.00  0.00    +0.000 OA
ENDBRANCH  11  13
ENDBRANCH  10  11
ENDBRANCH   6  10
ENDBRANCH   1   7
BRANCH   5  14
ATOM     14  C   UNL     1       2.011   5.462  19.862  0.00  0.00    +0.000 C 
ATOM     15  O   UNL     1       0.885   4.993  19.721  0.00  0.00    +0.000 OA
ATOM     16  N   UNL     1       2.898   4.907  20.759  0.00  0.00    +0.000 N 
ATOM     17  H   UNL     1       3.785   5.354  20.970  0.00  0.00    +0.000 HD
BRANCH  16  18
ATOM     18  C   UNL     1       2.584   3.720  21.538  0.00  0.00    +0.000 C 
BRANCH  18  19
ATOM     19  C   UNL     1       2.250   2.496  20.681  0.00  0.00    +0.000 C 
BRANCH  19  20
ATOM     20  O   UNL     1       3.282   2.285  19.708  0.00  0.00    +0.000 OA
ATOM     21  C   UNL     1       4.529   2.035  20.344  0.00  0.00    +0.000 C 
ENDBRANCH  19  20
ENDBRANCH  18  19
ENDBRANCH  16  18
ENDBRANCH   5  14
BRANCH   4  22
ATOM     22  C   UNL     1       1.067   8.646  20.132  0.00  0.00    +0.000 C 
BRANCH  22  23
ATOM     23  S   UNL     1       0.971  10.452  19.836  0.00  0.00    +0.000 S 
BRANCH  23  24
ATOM     24  C   UNL     1      -0.465  10.635  18.895  0.00  0.00    +0.000 A 
ATOM     25  N   UNL     1      -1.581  11.216  19.249  0.00  0.00    +0.000 NA
ATOM     26  C   UNL     1      -2.434  11.030  18.186  0.00  0.00    +0.000 A 
ATOM     27  C   UNL     1      -3.768  11.430  18.039  0.00  0.00    +0.000 A 
ATOM     28  C   UNL     1      -4.424  11.168  16.830  0.00  0.00    +0.000 A 
ATOM     29  C   UNL     1      -3.764  10.496  15.790  0.00  0.00    +0.000 A 
ATOM     30  C   UNL     1      -2.449  10.052  15.930  0.00  0.00    +0.000 A 
ATOM     31  C   UNL     1      -1.812  10.341  17.148  0.00  0.00    +0.000 A 
ATOM     32  N   UNL     1      -0.560  10.067  17.648  0.00  0.00    +0.000 N 
ATOM     33  H   UNL     1       0.174   9.540  17.195  0.00  0.00    +0.000 HD
ENDBRANCH  23  24
ENDBRANCH  22  23
ENDBRANCH   4  22
TORSDOF 11
ENDMDL
MODEL 8
REMARK VINA RESULT:      -6.5      3.625      9.306
REMARK  Name = 
REMARK  13 active torsions:
REMARK  status: ('A' for Active; 'I' for Inactive)
REMARK    1  A    between atoms: C_1  and  O_2
REMARK    2  A    between atoms: O_2  and  C_3
REMARK    3  A    between atoms: C_3  and  C_4
REMARK    4  A    between atoms: C_4  and  N_5
REMARK    5  A    between atoms: C_6  and  C_8
REMARK    6  A    between atoms: C_11  and  C_12
REMARK    7  A    between atoms: C_12  and  S_13
REMARK    8  A    between atoms: S_13  and  C_14
REMARK    9  A    between atoms: C_23  and  C_24
REMARK   10  A    between atoms: N_26  and  C_27
REMARK   11  A    between atoms: C_27  and  C_28
REMARK   12  A    between atoms: C_28  and  O_29
REMARK   13  A    between atoms: O_29  and  C_30
REMARK                            x       y       z     vdW  Elec       q    Type
REMARK                         _______ _______ _______ _____ _____    ______ ____
ROOT
ATOM      1  C   UNL     1       0.619   9.451  21.255  0.00  0.00    +0.000 A 
ATOM      2  O   UNL     1       1.398   8.352  21.435  0.00  0.00    +0.000 OA
ATOM      3  N   UNL     1       1.899   7.922  20.233  0.00  0.00    +0.000 NA
ATOM      4  C   UNL     1       1.434   8.770  19.301  0.00  0.00    +0.000 A 
ATOM      5  C   UNL     1       0.580   9.765  19.907  0.00  0.00    +0.000 A 
ENDROOT
BRANCH   1   7
ATOM      6  N   UNL     1      -0.944  10.988  22.172  0.00  0.00    +0.000 N 
ATOM      7  C   UNL     1       0.015  10.037  22.429  0.00  0.00    +0.000 C 
ATOM      8  O   UNL     1       0.364   9.771  23.576  0.00  0.00    +0.000 OA
ATOM      9  H   UNL     1      -1.271  11.120  21.220  0.00  0.00    +0.000 HD
BRANCH   6  10
ATOM     10  C   UNL     1      -1.645  11.694  23.228  0.00  0.00    +0.000 C 
BRANCH  10  11
ATOM     11  C   UNL     1      -2.520  12.809  22.661  0.00  0.00    +0.000 C 
BRANCH  11  13
ATOM     12  C   UNL     1      -1.394  14.446  23.927  0.00  0.00    +0.000 C 
ATOM     13  O   UNL     1      -2.651  13.846  23.638  0.00  0.00    +0.000 OA
ENDBRANCH  11  13
ENDBRANCH  10  11
ENDBRANCH   6  10
ENDBRANCH   1   7
BRANCH   5  14
ATOM     14  C   UNL     1      -0.184  10.803  19.235  0.00  0.00    +0.000 C 
ATOM     15  O   UNL     1       0.156  11.981  19.302  0.00  0.00    +0.000 OA
ATOM     16  N   UNL     1      -1.285  10.428  18.495  0.00  0.00    +0.000 N 
ATOM     17  H   UNL     1      -1.644   9.479  18.527  0.00  0.00    +0.000 HD
BRANCH  16  18
ATOM     18  C   UNL     1      -2.063  11.377  17.715  0.00  0.00    +0.000 C 
BRANCH  18  19
ATOM     19  C   UNL     1      -3.074  10.714  16.774  0.00  0.00    +0.000 C 
BRANCH  19  20
ATOM     20  O   UNL     1      -2.818  11.115  15.422  0.00  0.00    +0.000 OA
ATOM     21  C   UNL     1      -3.109  10.054  14.520  0.00  0.00    +0.000 C 
ENDBRANCH  19  20
ENDBRANCH  18  19
ENDBRANCH  16  18
ENDBRANCH   5  14
BRANCH   4  22
ATOM     22  C   UNL     1       1.827   8.531  17.857  0.00  0.00    +0.000 C 
BRANCH  22  23
ATOM     23  S   UNL     1       3.523   7.854  17.717  0.00  0.00    +0.000 S 
BRANCH  23  24
ATOM     24  C   UNL     1       3.310   6.162  17.984  0.00  0.00    +0.000 A 
ATOM     25  N   UNL     1       4.239   5.246  18.077  0.00  0.00    +0.000 NA
ATOM     26  C   UNL     1       3.557   4.059  18.211  0.00  0.00    +0.000 A 
ATOM     27  C   UNL     1       4.060   2.756  18.328  0.00  0.00    +0.000 A 
ATOM     28  C   UNL     1       3.162   1.697  18.505  0.00  0.00    +0.000 A 
ATOM     29  C   UNL     1       1.780   1.932  18.544  0.00  0.00    +0.000 A 
ATOM     30  C   UNL     1       1.254   3.215  18.388  0.00  0.00    +0.000 A 
ATOM     31  C   UNL     1       2.180   4.259  18.226  0.00  0.00    +0.000 A 
ATOM     32  N   UNL     1       2.051   5.617  18.040  0.00  0.00    +0.000 N 
ATOM     33  H   UNL     1       1.190   6.139  17.953  0.00  0.00    +0.000 HD
ENDBRANCH  23  24
ENDBRANCH  22  23
ENDBRANCH   4  22
TORSDOF 11
ENDMDL
MODEL 9
REMARK VINA RESULT:      -6.4      4.142      9.708
REMARK  Name = 
REMARK  13 active torsions:
REMARK  status: ('A' for Active; 'I' for Inactive)
REMARK    1  A    between atoms: C_1  and  O_2
REMARK    2  A    between atoms: O_2  and  C_3
REMARK    3  A    between atoms: C_3  and  C_4
REMARK    4  A    between atoms: C_4  and  N_5
REMARK    5  A    between atoms: C_6  and  C_8
REMARK    6  A    between atoms: C_11  and  C_12
REMARK    7  A    between atoms: C_12  and  S_13
REMARK    8  A    between atoms: S_13  and  C_14
REMARK    9  A    between atoms: C_23  and  C_24
REMARK   10  A    between atoms: N_26  and  C_27
REMARK   11  A    between atoms: C_27  and  C_28
REMARK   12  A    between atoms: C_28  and  O_29
REMARK   13  A    between atoms: O_29  and  C_30
REMARK                            x       y       z     vdW  Elec       q    Type
REMARK                         _______ _______ _______ _____ _____    ______ ____
ROOT
ATOM      1  C   UNL     1      -0.257  11.218  20.980  0.00  0.00    +0.000 A 
ATOM      2  O   UNL     1       0.681  10.343  21.429  0.00  0.00    +0.000 OA
ATOM      3  N   UNL     1       1.139   9.564  20.396  0.00  0.00    +0.000 NA
ATOM      4  C   UNL     1       0.486   9.970  19.295  0.00  0.00    +0.000 A 
ATOM      5  C   UNL     1      -0.448  11.023  19.622  0.00  0.00    +0.000 A 
ENDROOT
BRANCH   1   7
ATOM      6  N   UNL     1      -2.000  11.669  22.531  0.00  0.00    +0.000 N 
ATOM      7  C   UNL     1      -0.840  12.120  21.945  0.00  0.00    +0.000 C 
ATOM      8  O   UNL     1      -0.390  13.236  22.191  0.00  0.00    +0.000 OA
ATOM      9  H   UNL     1      -2.296  10.710  22.374  0.00  0.00    +0.000 HD
BRANCH   6  10
ATOM     10  C   UNL     1      -2.733  12.447  23.511  0.00  0.00    +0.000 C 
BRANCH  10  11
ATOM     11  C   UNL     1      -4.041  12.978  22.930  0.00  0.00    +0.000 C 
BRANCH  11  13
ATOM     12  C   UNL     1      -6.385  12.862  23.136  0.00  0.00    +0.000 C 
ATOM     13  O   UNL     1      -5.140  12.377  23.623  0.00  0.00    +0.000 OA
ENDBRANCH  11  13
ENDBRANCH  10  11
ENDBRANCH   6  10
ENDBRANCH   1   7
BRANCH   5  14
ATOM     14  C   UNL     1      -1.402  11.668  18.735  0.00  0.00    +0.000 C 
ATOM     15  O   UNL     1      -1.053  12.576  17.985  0.00  0.00    +0.000 OA
ATOM     16  N   UNL     1      -2.703  11.214  18.734  0.00  0.00    +0.000 N 
ATOM     17  H   UNL     1      -3.031  10.549  19.428  0.00  0.00    +0.000 HD
BRANCH  16  18
ATOM     18  C   UNL     1      -3.712  11.731  17.823  0.00  0.00    +0.000 C 
BRANCH  18  19
ATOM     19  C   UNL     1      -4.007  10.800  16.644  0.00  0.00    +0.000 C 
BRANCH  19  20
ATOM     20  O   UNL     1      -3.254  11.212  15.495  0.00  0.00    +0.000 OA
ATOM     21  C   UNL     1      -2.834  10.083  14.739  0.00  0.00    +0.000 C 
ENDBRANCH  19  20
ENDBRANCH  18  19
ENDBRANCH  16  18
ENDBRANCH   5  14
BRANCH   4  22
ATOM     22  C   UNL     1       0.790   9.273  17.984  0.00  0.00    +0.000 C 
BRANCH  22  23
ATOM     23  S   UNL     1       2.498   8.612  17.948  0.00  0.00    +0.000 S 
BRANCH  23  24
ATOM     24  C   UNL     1       2.325   7.000  18.540  0.00  0.00    +0.000 A 
ATOM     25  N   UNL     1       2.041   5.924  17.854  0.00  0.00    +0.000 NA
ATOM     26  C   UNL     1       1.940   4.920  18.789  0.00  0.00    +0.000 A 
ATOM     27  C   UNL     1       1.631   3.566  18.605  0.00  0.00    +0.000 A 
ATOM     28  C   UNL     1       1.635   2.714  19.716  0.00  0.00    +0.000 A 
ATOM     29  C   UNL     1       1.922   3.211  20.996  0.00  0.00    +0.000 A 
ATOM     30  C   UNL     1       2.192   4.564  21.208  0.00  0.00    +0.000 A 
ATOM     31  C   UNL     1       2.194   5.392  20.074  0.00  0.00    +0.000 A 
ATOM     32  N   UNL     1       2.401   6.739  19.886  0.00  0.00    +0.000 N 
ATOM     33  H   UNL     1       2.575   7.432  20.601  0.00  0.00    +0.000 HD
ENDBRANCH  23  24
ENDBRANCH  22  23
ENDBRANCH   4  22
TORSDOF 11
ENDMDL
