MODEL 1
REMARK VINA RESULT:      -9.5      0.000      0.000
REMARK  Name = 
REMARK  10 active torsions:
REMARK  status: ('A' for Active; 'I' for Inactive)
REMARK    1  A    between atoms: N_1  and  CA_2
REMARK    2  A    between atoms: CA_2  and  C_3
REMARK    3  A    between atoms: CA_2  and  C_25
REMARK    4  A    between atoms: C_3  and  C_4
REMARK    5  A    between atoms: C_6  and  C_7
REMARK    6  A    between atoms: C_7  and  P_8
REMARK    7  A    between atoms: P_8  and  O_10
REMARK    8  A    between atoms: P_8  and  O_11
REMARK    9  A    between atoms: C_13  and  C_14
REMARK   10  A    between atoms: C_25  and  OXT_27
REMARK                            x       y       z     vdW  Elec       q    Type
REMARK                         _______ _______ _______ _____ _____    ______ ____
ROOT
ATOM      1  C   UNL     1       2.931   4.240  17.522  0.00  0.00    +0.000 A 
ATOM      2  C   UNL     1       4.226   4.360  17.032  0.00  0.00    +0.000 A 
ATOM      3  C   UNL     1       4.926   5.553  17.183  0.00  0.00    +0.000 A 
ATOM      4  C   UNL     1       4.258   6.692  17.660  0.00  0.00    +0.000 A 
ATOM      5  C   UNL     1       2.913   6.635  18.076  0.00  0.00    +0.000 A 
ATOM      6  C   UNL     1       2.274   5.379  18.015  0.00  0.00    +0.000 A 
ENDROOT
BRANCH   5   7
ATOM      7  C   UNL     1       2.250   7.819  18.671  0.00  0.00    +0.000 A 
ATOM      8  C   UNL     1       1.886   8.919  17.874  0.00  0.00    +0.000 A 
ATOM      9  C   UNL     1       1.129   9.976  18.383  0.00  0.00    +0.000 A 
ATOM     10  C   UNL     1       0.693   9.967  19.709  0.00  0.00    +0.000 A 
ATOM     11  C   UNL     1      -0.169  10.961  20.199  0.00  0.00    +0.000 A 
ATOM     12  C   UNL     1      -0.605  10.937  21.522  0.00  0.00    +0.000 A 
ATOM     13  C   UNL     1      -0.151   9.944  22.383  0.00  0.00    +0.000 A 
ATOM     14  C   UNL     1       0.706   8.947  21.910  0.00  0.00    +0.000 A 
ATOM     15  C   UNL     1       1.112   8.921  20.565  0.00  0.00    +0.000 A 
ATOM     16  C   UNL     1       1.887   7.870  20.032  0.00  0.00    +0.000 A 
ENDBRANCH   5   7
BRANCH   1  17
ATOM     17  C   UNL     1       2.335   2.861  17.664  0.00  0.00    +0.000 C 
BRANCH  17  18
ATOM     18  CA  UNL     1       1.233   2.786  18.748  0.00  0.00    +0.000 C 
BRANCH  18  19
ATOM     19  N   UNL     1       0.325   1.659  18.415  0.00  0.00    +0.000 NA
ATOM     20  H1  UNL     1       0.626   1.135  17.596  0.00  0.00    +0.000 HD
ATOM     21  H2  UNL     1      -0.660   1.903  18.423  0.00  0.00    +0.000 HD
ENDBRANCH  18  19
BRANCH  18  22
ATOM     22  C   UNL     1       1.800   2.653  20.190  0.00  0.00    +0.000 C 
ATOM     23  O   UNL     1       2.966   2.434  20.481  0.00  0.00    +0.000 OA
BRANCH  22  24
ATOM     24  OXT UNL     1       0.870   2.832  21.160  0.00  0.00    +0.000 OA
ATOM     25  HXT UNL     1       0.286   2.049  21.223  0.00  0.00    +0.000 HD
ENDBRANCH  22  24
ENDBRANCH  18  22
ENDBRANCH  17  18
ENDBRANCH   1  17
BRANCH   3  26
ATOM     26  C   UNL     1       6.406   5.552  16.911  0.00  0.00    +0.000 C 
BRANCH  26  27
ATOM     27  P   UNL     1       7.451   5.404  18.407  0.00  0.00    +0.000 P 
ATOM     28  O   UNL     1       6.309   4.758  19.203  0.00  0.00    +0.000 OA
BRANCH  27  29
ATOM     29  O   UNL     1       8.252   4.126  17.774  0.00  0.00    +0.000 OA
ATOM     30  H   UNL     1       8.134   4.091  16.806  0.00  0.00    +0.000 HD
ENDBRANCH  27  29
BRANCH  27  31
ATOM     31  O   UNL     1       8.438   5.263  19.821  0.00  0.00    +0.000 OA
ATOM     32  H   UNL     1       7.811   5.008  20.529  0.00  0.00    +0.000 HD
ENDBRANCH  27  31
ENDBRANCH  26  27
ENDBRANCH   3  26
TORSDOF 10
ENDMDL
MODEL 2
REMARK VINA RESULT:      -9.3      2.002      2.419
REMARK  Name = 
REMARK  10 active torsions:
REMARK  status: ('A' for Active; 'I' for Inactive)
REMARK    1  A    between atoms: N_1  and  CA_2
REMARK    2  A    between atoms: CA_2  and  C_3
REMARK    3  A    between atoms: CA_2  and  C_25
REMARK    4  A    between atoms: C_3  and  C_4
REMARK    5  A    between atoms: C_6  and  C_7
REMARK    6  A    between atoms: C_7  and  P_8
REMARK    7  A    between atoms: P_8  and  O_10
REMARK    8  A    between atoms: P_8  and  O_11
REMARK    9  A    between atoms: C_13  and  C_14
REMARK   10  A    between atoms: C_25  and  OXT_27
REMARK                            x       y       z     vdW  Elec       q    Type
REMARK                         _______ _______ _______ _____ _____    ______ ____
ROOT
ATOM      1  C   UNL     1       3.181   5.069  19.103  0.00  0.00    +0.000 A 
ATOM      2  C   UNL     1       3.939   5.244  17.950  0.00  0.00    +0.000 A 
ATOM      3  C   UNL     1       4.056   6.506  17.374  0.00  0.00    +0.000 A 
ATOM      4  C   UNL     1       3.260   7.560  17.847  0.00  0.00    +0.000 A 
ATOM      5  C   UNL     1       2.405   7.396  18.954  0.00  0.00    +0.000 A 
ATOM      6  C   UNL     1       2.400   6.133  19.582  0.00  0.00    +0.000 A 
ENDROOT
BRANCH   5   7
ATOM      7  C   UNL     1       1.646   8.544  19.506  0.00  0.00    +0.000 A 
ATOM      8  C   UNL     1       1.218   9.593  18.673  0.00  0.00    +0.000 A 
ATOM      9  C   UNL     1       0.377  10.604  19.139  0.00  0.00    +0.000 A 
ATOM     10  C   UNL     1      -0.084  10.597  20.458  0.00  0.00    +0.000 A 
ATOM     11  C   UNL     1      -1.026  11.537  20.905  0.00  0.00    +0.000 A 
ATOM     12  C   UNL     1      -1.485  11.515  22.220  0.00  0.00    +0.000 A 
ATOM     13  C   UNL     1      -0.977  10.580  23.116  0.00  0.00    +0.000 A 
ATOM     14  C   UNL     1      -0.041   9.637  22.685  0.00  0.00    +0.000 A 
ATOM     15  C   UNL     1       0.392   9.607  21.349  0.00  0.00    +0.000 A 
ATOM     16  C   UNL     1       1.252   8.602  20.857  0.00  0.00    +0.000 A 
ENDBRANCH   5   7
BRANCH   1  17
ATOM     17  C   UNL     1       3.353   3.795  19.895  0.00  0.00    +0.000 C 
BRANCH  17  18
ATOM     18  CA  UNL     1       4.253   2.756  19.181  0.00  0.00    +0.000 C 
BRANCH  18  19
ATOM     19  N   UNL     1       5.103   2.094  20.203  0.00  0.00    +0.000 NA
ATOM     20  H1  UNL     1       4.678   2.083  21.127  0.00  0.00    +0.000 HD
ATOM     21  H2  UNL     1       6.075   2.385  20.187  0.00  0.00    +0.000 HD
ENDBRANCH  18  19
BRANCH  18  22
ATOM     22  C   UNL     1       3.448   1.718  18.350  0.00  0.00    +0.000 C 
ATOM     23  O   UNL     1       2.383   1.925  17.788  0.00  0.00    +0.000 OA
BRANCH  22  24
ATOM     24  OXT UNL     1       4.050   0.506  18.260  0.00  0.00    +0.000 OA
ATOM     25  HXT UNL     1       4.951   0.543  18.637  0.00  0.00    +0.000 HD
ENDBRANCH  22  24
ENDBRANCH  18  22
ENDBRANCH  17  18
ENDBRANCH   1  17
BRANCH   3  26
ATOM     26  C   UNL     1       5.108   6.712  16.317  0.00  0.00    +0.000 C 
BRANCH  26  27
ATOM     27  P   UNL     1       6.521   5.552  16.417  0.00  0.00    +0.000 P 
ATOM     28  O   UNL     1       6.567   5.397  14.892  0.00  0.00    +0.000 OA
BRANCH  27  29
ATOM     29  O   UNL     1       7.562   6.778  16.713  0.00  0.00    +0.000 OA
ATOM     30  H   UNL     1       7.161   7.635  16.476  0.00  0.00    +0.000 HD
ENDBRANCH  27  29
BRANCH  27  31
ATOM     31  O   UNL     1       7.856   4.457  16.512  0.00  0.00    +0.000 OA
ATOM     32  H   UNL     1       7.491   3.603  16.198  0.00  0.00    +0.000 HD
ENDBRANCH  27  31
ENDBRANCH  26  27
ENDBRANCH   3  26
TORSDOF 10
ENDMDL
MODEL 3
REMARK VINA RESULT:      -9.3      1.583      1.899
REMARK  Name = 
REMARK  10 active torsions:
REMARK  status: ('A' for Active; 'I' for Inactive)
REMARK    1  A    between atoms: N_1  and  CA_2
REMARK    2  A    between atoms: CA_2  and  C_3
REMARK    3  A    between atoms: CA_2  and  C_25
REMARK    4  A    between atoms: C_3  and  C_4
REMARK    5  A    between atoms: C_6  and  C_7
REMARK    6  A    between atoms: C_7  and  P_8
REMARK    7  A    between atoms: P_8  and  O_10
REMARK    8  A    between atoms: P_8  and  O_11
REMARK    9  A    between atoms: C_13  and  C_14
REMARK   10  A    between atoms: C_25  and  OXT_27
REMARK                            x       y       z     vdW  Elec       q    Type
REMARK                         _______ _______ _______ _____ _____    ______ ____
ROOT
ATOM      1  C   UNL     1       2.798   4.640  18.293  0.00  0.00    +0.000 A 
ATOM      2  C   UNL     1       3.792   4.877  17.350  0.00  0.00    +0.000 A 
ATOM      3  C   UNL     1       4.241   6.173  17.115  0.00  0.00    +0.000 A 
ATOM      4  C   UNL     1       3.562   7.257  17.692  0.00  0.00    +0.000 A 
ATOM      5  C   UNL     1       2.485   7.062  18.579  0.00  0.00    +0.000 A 
ATOM      6  C   UNL     1       2.133   5.729  18.880  0.00  0.00    +0.000 A 
ENDROOT
BRANCH   5   7
ATOM      7  C   UNL     1       1.841   8.211  19.258  0.00  0.00    +0.000 A 
ATOM      8  C   UNL     1       1.496   9.371  18.543  0.00  0.00    +0.000 A 
ATOM      9  C   UNL     1       0.757  10.401  19.127  0.00  0.00    +0.000 A 
ATOM     10  C   UNL     1       0.319  10.304  20.450  0.00  0.00    +0.000 A 
ATOM     11  C   UNL     1      -0.527  11.273  21.011  0.00  0.00    +0.000 A 
ATOM     12  C   UNL     1      -0.965  11.161  22.328  0.00  0.00    +0.000 A 
ATOM     13  C   UNL     1      -0.529  10.100  23.115  0.00  0.00    +0.000 A 
ATOM     14  C   UNL     1       0.311   9.126  22.571  0.00  0.00    +0.000 A 
ATOM     15  C   UNL     1       0.719   9.191  21.227  0.00  0.00    +0.000 A 
ATOM     16  C   UNL     1       1.477   8.168  20.619  0.00  0.00    +0.000 A 
ENDBRANCH   5   7
BRANCH   1  17
ATOM     17  C   UNL     1       2.582   3.227  18.778  0.00  0.00    +0.000 C 
BRANCH  17  18
ATOM     18  CA  UNL     1       3.164   2.977  20.191  0.00  0.00    +0.000 C 
BRANCH  18  19
ATOM     19  N   UNL     1       2.070   2.487  21.067  0.00  0.00    +0.000 NA
ATOM     20  H1  UNL     1       1.160   2.871  20.819  0.00  0.00    +0.000 HD
ATOM     21  H2  UNL     1       2.286   2.517  22.058  0.00  0.00    +0.000 HD
ENDBRANCH  18  19
BRANCH  18  22
ATOM     22  C   UNL     1       4.374   2.001  20.190  0.00  0.00    +0.000 C 
ATOM     23  O   UNL     1       5.129   1.799  21.128  0.00  0.00    +0.000 OA
BRANCH  22  24
ATOM     24  OXT UNL     1       4.532   1.329  19.022  0.00  0.00    +0.000 OA
ATOM     25  HXT UNL     1       5.386   0.852  19.014  0.00  0.00    +0.000 HD
ENDBRANCH  22  24
ENDBRANCH  18  22
ENDBRANCH  17  18
ENDBRANCH   1  17
BRANCH   3  26
ATOM     26  C   UNL     1       5.505   6.356  16.318  0.00  0.00    +0.000 C 
BRANCH  26  27
ATOM     27  P   UNL     1       6.858   5.208  16.767  0.00  0.00    +0.000 P 
ATOM     28  O   UNL     1       7.635   5.542  15.488  0.00  0.00    +0.000 OA
BRANCH  27  29
ATOM     29  O   UNL     1       7.449   6.266  17.866  0.00  0.00    +0.000 OA
ATOM     30  H   UNL     1       8.406   6.129  17.996  0.00  0.00    +0.000 HD
ENDBRANCH  27  29
BRANCH  27  31
ATOM     31  O   UNL     1       8.137   4.124  17.192  0.00  0.00    +0.000 OA
ATOM     32  H   UNL     1       8.044   4.008  18.161  0.00  0.00    +0.000 HD
ENDBRANCH  27  31
ENDBRANCH  26  27
ENDBRANCH   3  26
TORSDOF 10
ENDMDL
MODEL 4
REMARK VINA RESULT:      -9.3      1.006      1.359
REMARK  Name = 
REMARK  10 active torsions:
REMARK  status: ('A' for Active; 'I' for Inactive)
REMARK    1  A    between atoms: N_1  and  CA_2
REMARK    2  A    between atoms: CA_2  and  C_3
REMARK    3  A    between atoms: CA_2  and  C_25
REMARK    4  A    between atoms: C_3  and  C_4
REMARK    5  A    between atoms: C_6  and  C_7
REMARK    6  A    between atoms: C_7  and  P_8
REMARK    7  A    between atoms: P_8  and  O_10
REMARK    8  A    between atoms: P_8  and  O_11
REMARK    9  A    between atoms: C_13  and  C_14
REMARK   10  A    between atoms: C_25  and  OXT_27
REMARK                            x       y       z     vdW  Elec       q    Type
REMARK                         _______ _______ _______ _____ _____    ______ ____
ROOT
ATOM      1  C   UNL     1       2.721   4.576  18.024  0.00  0.00    +0.000 A 
ATOM      2  C   UNL     1       3.806   4.761  17.174  0.00  0.00    +0.000 A 
ATOM      3  C   UNL     1       4.370   6.024  17.021  0.00  0.00    +0.000 A 
ATOM      4  C   UNL     1       3.729   7.141  17.578  0.00  0.00    +0.000 A 
ATOM      5  C   UNL     1       2.569   7.006  18.366  0.00  0.00    +0.000 A 
ATOM      6  C   UNL     1       2.094   5.697  18.592  0.00  0.00    +0.000 A 
ENDROOT
BRANCH   5   7
ATOM      7  C   UNL     1       1.960   8.182  19.031  0.00  0.00    +0.000 A 
ATOM      8  C   UNL     1       1.662   9.348  18.303  0.00  0.00    +0.000 A 
ATOM      9  C   UNL     1       0.953  10.407  18.872  0.00  0.00    +0.000 A 
ATOM     10  C   UNL     1       0.501  10.336  20.191  0.00  0.00    +0.000 A 
ATOM     11  C   UNL     1      -0.316  11.339  20.736  0.00  0.00    +0.000 A 
ATOM     12  C   UNL     1      -0.769  11.253  22.051  0.00  0.00    +0.000 A 
ATOM     13  C   UNL     1      -0.376  10.185  22.850  0.00  0.00    +0.000 A 
ATOM     14  C   UNL     1       0.435   9.178  22.322  0.00  0.00    +0.000 A 
ATOM     15  C   UNL     1       0.856   9.217  20.981  0.00  0.00    +0.000 A 
ATOM     16  C   UNL     1       1.583   8.164  20.388  0.00  0.00    +0.000 A 
ENDBRANCH   5   7
BRANCH   1  17
ATOM     17  C   UNL     1       2.359   3.172  18.440  0.00  0.00    +0.000 C 
BRANCH  17  18
ATOM     18  CA  UNL     1       1.384   3.129  19.642  0.00  0.00    +0.000 C 
BRANCH  18  19
ATOM     19  N   UNL     1       0.258   2.224  19.299  0.00  0.00    +0.000 NA
ATOM     20  H1  UNL     1      -0.406   2.109  20.061  0.00  0.00    +0.000 HD
ATOM     21  H2  UNL     1       0.542   1.360  18.850  0.00  0.00    +0.000 HD
ENDBRANCH  18  19
BRANCH  18  22
ATOM     22  C   UNL     1       2.070   2.707  20.972  0.00  0.00    +0.000 C 
ATOM     23  O   UNL     1       1.509   2.547  22.045  0.00  0.00    +0.000 OA
BRANCH  22  24
ATOM     24  OXT UNL     1       3.404   2.490  20.853  0.00  0.00    +0.000 OA
ATOM     25  HXT UNL     1       3.821   3.201  20.326  0.00  0.00    +0.000 HD
ENDBRANCH  22  24
ENDBRANCH  18  22
ENDBRANCH  17  18
ENDBRANCH   1  17
BRANCH   3  26
ATOM     26  C   UNL     1       5.707   6.130  16.336  0.00  0.00    +0.000 C 
BRANCH  26  27
ATOM     27  P   UNL     1       7.006   5.048  17.037  0.00  0.00    +0.000 P 
ATOM     28  O   UNL     1       7.601   4.777  15.649  0.00  0.00    +0.000 OA
BRANCH  27  29
ATOM     29  O   UNL     1       7.852   6.339  17.576  0.00  0.00    +0.000 OA
ATOM     30  H   UNL     1       8.418   6.090  18.330  0.00  0.00    +0.000 HD
ENDBRANCH  27  29
BRANCH  27  31
ATOM     31  O   UNL     1       8.234   4.026  17.699  0.00  0.00    +0.000 OA
ATOM     32  H   UNL     1       7.762   3.198  17.929  0.00  0.00    +0.000 HD
ENDBRANCH  27  31
ENDBRANCH  26  27
ENDBRANCH   3  26
TORSDOF 10
ENDMDL
MODEL 5
REMARK VINA RESULT:      -9.2      1.090      1.432
REMARK  Name = 
REMARK  10 active torsions:
REMARK  status: ('A' for Active; 'I' for Inactive)
REMARK    1  A    between atoms: N_1  and  CA_2
REMARK    2  A    between atoms: CA_2  and  C_3
REMARK    3  A    between atoms: CA_2  and  C_25
REMARK    4  A    between atoms: C_3  and  C_4
REMARK    5  A    between atoms: C_6  and  C_7
REMARK    6  A    between atoms: C_7  and  P_8
REMARK    7  A    between atoms: P_8  and  O_10
REMARK    8  A    between atoms: P_8  and  O_11
REMARK    9  A    between atoms: C_13  and  C_14
REMARK   10  A    between atoms: C_25  and  OXT_27
REMARK                            x       y       z     vdW  Elec       q    Type
REMARK                         _______ _______ _______ _____ _____    ______ ____
ROOT
ATOM      1  C   UNL     1       2.822   4.143  17.614  0.00  0.00    +0.000 A 
ATOM      2  C   UNL     1       4.121   4.264  17.133  0.00  0.00    +0.000 A 
ATOM      3  C   UNL     1       4.821   5.456  17.295  0.00  0.00    +0.000 A 
ATOM      4  C   UNL     1       4.152   6.592  17.776  0.00  0.00    +0.000 A 
ATOM      5  C   UNL     1       2.804   6.534  18.183  0.00  0.00    +0.000 A 
ATOM      6  C   UNL     1       2.163   5.280  18.109  0.00  0.00    +0.000 A 
ENDROOT
BRANCH   5   7
ATOM      7  C   UNL     1       2.139   7.716  18.781  0.00  0.00    +0.000 A 
ATOM      8  C   UNL     1       1.693   8.778  17.975  0.00  0.00    +0.000 A 
ATOM      9  C   UNL     1       0.933   9.827  18.497  0.00  0.00    +0.000 A 
ATOM     10  C   UNL     1       0.576   9.846  19.847  0.00  0.00    +0.000 A 
ATOM     11  C   UNL     1      -0.288  10.827  20.357  0.00  0.00    +0.000 A 
ATOM     12  C   UNL     1      -0.645  10.831  21.704  0.00  0.00    +0.000 A 
ATOM     13  C   UNL     1      -0.110   9.880  22.566  0.00  0.00    +0.000 A 
ATOM     14  C   UNL     1       0.749   8.896  22.072  0.00  0.00    +0.000 A 
ATOM     15  C   UNL     1       1.077   8.840  20.706  0.00  0.00    +0.000 A 
ATOM     16  C   UNL     1       1.854   7.797  20.159  0.00  0.00    +0.000 A 
ENDBRANCH   5   7
BRANCH   1  17
ATOM     17  C   UNL     1       2.224   2.763  17.742  0.00  0.00    +0.000 C 
BRANCH  17  18
ATOM     18  CA  UNL     1       3.032   1.839  18.686  0.00  0.00    +0.000 C 
BRANCH  18  19
ATOM     19  N   UNL     1       4.092   1.170  17.889  0.00  0.00    +0.000 NA
ATOM     20  H1  UNL     1       3.839   0.227  17.604  0.00  0.00    +0.000 HD
ATOM     21  H2  UNL     1       5.024   1.258  18.280  0.00  0.00    +0.000 HD
ENDBRANCH  18  19
BRANCH  18  22
ATOM     22  C   UNL     1       3.627   2.587  19.912  0.00  0.00    +0.000 C 
ATOM     23  O   UNL     1       2.985   3.116  20.806  0.00  0.00    +0.000 OA
BRANCH  22  24
ATOM     24  OXT UNL     1       4.983   2.592  19.942  0.00  0.00    +0.000 OA
ATOM     25  HXT UNL     1       5.305   2.874  20.822  0.00  0.00    +0.000 HD
ENDBRANCH  22  24
ENDBRANCH  18  22
ENDBRANCH  17  18
ENDBRANCH   1  17
BRANCH   3  26
ATOM     26  C   UNL     1       6.303   5.454  17.034  0.00  0.00    +0.000 C 
BRANCH  26  27
ATOM     27  P   UNL     1       7.339   5.429  18.543  0.00  0.00    +0.000 P 
ATOM     28  O   UNL     1       8.288   4.388  17.936  0.00  0.00    +0.000 OA
BRANCH  27  29
ATOM     29  O   UNL     1       8.028   6.858  18.146  0.00  0.00    +0.000 OA
ATOM     30  H   UNL     1       7.668   7.579  18.697  0.00  0.00    +0.000 HD
ENDBRANCH  27  29
BRANCH  27  31
ATOM     31  O   UNL     1       8.318   5.405  19.969  0.00  0.00    +0.000 OA
ATOM     32  H   UNL     1       8.513   6.350  20.144  0.00  0.00    +0.000 HD
ENDBRANCH  27  31
ENDBRANCH  26  27
ENDBRANCH   3  26
TORSDOF 10
ENDMDL
MODEL 6
REMARK VINA RESULT:      -9.2      1.009      1.171
REMARK  Name = 
REMARK  10 active torsions:
REMARK  status: ('A' for Active; 'I' for Inactive)
REMARK    1  A    between atoms: N_1  and  CA_2
REMARK    2  A    between atoms: CA_2  and  C_3
REMARK    3  A    between atoms: CA_2  and  C_25
REMARK    4  A    between atoms: C_3  and  C_4
REMARK    5  A    between atoms: C_6  and  C_7
REMARK    6  A    between atoms: C_7  and  P_8
REMARK    7  A    between atoms: P_8  and  O_10
REMARK    8  A    between atoms: P_8  and  O_11
REMARK    9  A    between atoms: C_13  and  C_14
REMARK   10  A    between atoms: C_25  and  OXT_27
REMARK                            x       y       z     vdW  Elec       q    Type
REMARK                         _______ _______ _______ _____ _____    ______ ____
ROOT
ATOM      1  C   UNL     1       2.703   4.048  17.867  0.00  0.00    +0.000 A 
ATOM      2  C   UNL     1       3.969   4.101  17.294  0.00  0.00    +0.000 A 
ATOM      3  C   UNL     1       4.698   5.286  17.313  0.00  0.00    +0.000 A 
ATOM      4  C   UNL     1       4.083   6.472  17.744  0.00  0.00    +0.000 A 
ATOM      5  C   UNL     1       2.764   6.477  18.242  0.00  0.00    +0.000 A 
ATOM      6  C   UNL     1       2.099   5.235  18.312  0.00  0.00    +0.000 A 
ENDROOT
BRANCH   5   7
ATOM      7  C   UNL     1       2.162   7.716  18.786  0.00  0.00    +0.000 A 
ATOM      8  C   UNL     1       1.847   8.796  17.943  0.00  0.00    +0.000 A 
ATOM      9  C   UNL     1       1.144   9.910  18.406  0.00  0.00    +0.000 A 
ATOM     10  C   UNL     1       0.713   9.980  19.733  0.00  0.00    +0.000 A 
ATOM     11  C   UNL     1      -0.098  11.034  20.181  0.00  0.00    +0.000 A 
ATOM     12  C   UNL     1      -0.529  11.089  21.504  0.00  0.00    +0.000 A 
ATOM     13  C   UNL     1      -0.120  10.113  22.407  0.00  0.00    +0.000 A 
ATOM     14  C   UNL     1       0.686   9.057  21.976  0.00  0.00    +0.000 A 
ATOM     15  C   UNL     1       1.085   8.953  20.633  0.00  0.00    +0.000 A 
ATOM     16  C   UNL     1       1.806   7.843  20.144  0.00  0.00    +0.000 A 
ENDBRANCH   5   7
BRANCH   1  17
ATOM     17  C   UNL     1       2.092   2.697  18.145  0.00  0.00    +0.000 C 
BRANCH  17  18
ATOM     18  CA  UNL     1       2.455   2.145  19.546  0.00  0.00    +0.000 C 
BRANCH  18  19
ATOM     19  N   UNL     1       3.889   2.433  19.804  0.00  0.00    +0.000 NA
ATOM     20  H1  UNL     1       4.047   2.892  20.698  0.00  0.00    +0.000 HD
ATOM     21  H2  UNL     1       4.376   2.854  19.020  0.00  0.00    +0.000 HD
ENDBRANCH  18  19
BRANCH  18  22
ATOM     22  C   UNL     1       1.548   2.705  20.678  0.00  0.00    +0.000 C 
ATOM     23  O   UNL     1       1.874   2.855  21.846  0.00  0.00    +0.000 OA
BRANCH  22  24
ATOM     24  OXT UNL     1       0.309   3.060  20.258  0.00  0.00    +0.000 OA
ATOM     25  HXT UNL     1      -0.345   2.373  20.497  0.00  0.00    +0.000 HD
ENDBRANCH  22  24
ENDBRANCH  18  22
ENDBRANCH  17  18
ENDBRANCH   1  17
BRANCH   3  26
ATOM     26  C   UNL     1       6.159   5.231  16.956  0.00  0.00    +0.000 C 
BRANCH  26  27
ATOM     27  P   UNL     1       7.293   5.271  18.392  0.00  0.00    +0.000 P 
ATOM     28  O   UNL     1       8.240   4.257  17.738  0.00  0.00    +0.000 OA
BRANCH  27  29
ATOM     29  O   UNL     1       7.897   6.719  17.930  0.00  0.00    +0.000 OA
ATOM     30  H   UNL     1       8.346   7.159  18.676  0.00  0.00    +0.000 HD
ENDBRANCH  27  29
BRANCH  27  31
ATOM     31  O   UNL     1       8.365   5.310  19.749  0.00  0.00    +0.000 OA
ATOM     32  H   UNL     1       7.773   5.244  20.527  0.00  0.00    +0.000 HD
ENDBRANCH  27  31
ENDBRANCH  26  27
ENDBRANCH   3  26
TORSDOF 10
ENDMDL
MODEL 7
REMARK VINA RESULT:      -9.2      1.518      1.974
REMARK  Name = 
REMARK  10 active torsions:
REMARK  status: ('A' for Active; 'I' for Inactive)
REMARK    1  A    between atoms: N_1  and  CA_2
REMARK    2  A    between atoms: CA_2  and  C_3
REMARK    3  A    between atoms: CA_2  and  C_25
REMARK    4  A    between atoms: C_3  and  C_4
REMARK    5  A    between atoms: C_6  and  C_7
REMARK    6  A    between atoms: C_7  and  P_8
REMARK    7  A    between atoms: P_8  and  O_10
REMARK    8  A    between atoms: P_8  and  O_11
REMARK    9  A    between atoms: C_13  and  C_14
REMARK   10  A    between atoms: C_25  and  OXT_27
REMARK                            x       y       z     vdW  Elec       q    Type
REMARK                         _______ _______ _______ _____ _____    ______ ____
ROOT
ATOM      1  C   UNL     1       3.171   4.619  19.352  0.00  0.00    +0.000 A 
ATOM      2  C   UNL     1       3.945   4.726  18.202  0.00  0.00    +0.000 A 
ATOM      3  C   UNL     1       4.121   5.963  17.589  0.00  0.00    +0.000 A 
ATOM      4  C   UNL     1       3.368   7.065  18.022  0.00  0.00    +0.000 A 
ATOM      5  C   UNL     1       2.496   6.972  19.125  0.00  0.00    +0.000 A 
ATOM      6  C   UNL     1       2.432   5.730  19.791  0.00  0.00    +0.000 A 
ENDROOT
BRANCH   5   7
ATOM      7  C   UNL     1       1.783   8.167  19.634  0.00  0.00    +0.000 A 
ATOM      8  C   UNL     1       1.439   9.223  18.772  0.00  0.00    +0.000 A 
ATOM      9  C   UNL     1       0.638  10.285  19.195  0.00  0.00    +0.000 A 
ATOM     10  C   UNL     1       0.135  10.325  20.497  0.00  0.00    +0.000 A 
ATOM     11  C   UNL     1      -0.768  11.321  20.900  0.00  0.00    +0.000 A 
ATOM     12  C   UNL     1      -1.270  11.345  22.198  0.00  0.00    +0.000 A 
ATOM     13  C   UNL     1      -0.842  10.399  23.125  0.00  0.00    +0.000 A 
ATOM     14  C   UNL     1       0.055   9.401  22.739  0.00  0.00    +0.000 A 
ATOM     15  C   UNL     1       0.530   9.326  21.418  0.00  0.00    +0.000 A 
ATOM     16  C   UNL     1       1.350   8.268  20.971  0.00  0.00    +0.000 A 
ENDBRANCH   5   7
BRANCH   1  17
ATOM     17  C   UNL     1       3.282   3.364  20.184  0.00  0.00    +0.000 C 
BRANCH  17  18
ATOM     18  CA  UNL     1       2.021   2.469  20.099  0.00  0.00    +0.000 C 
BRANCH  18  19
ATOM     19  N   UNL     1       0.988   3.029  21.006  0.00  0.00    +0.000 NA
ATOM     20  H1  UNL     1       0.375   3.697  20.546  0.00  0.00    +0.000 HD
ATOM     21  H2  UNL     1       1.345   3.332  21.906  0.00  0.00    +0.000 HD
ENDBRANCH  18  19
BRANCH  18  22
ATOM     22  C   UNL     1       1.481   2.308  18.650  0.00  0.00    +0.000 C 
ATOM     23  O   UNL     1       0.444   2.786  18.218  0.00  0.00    +0.000 OA
BRANCH  22  24
ATOM     24  OXT UNL     1       2.294   1.583  17.842  0.00  0.00    +0.000 OA
ATOM     25  HXT UNL     1       2.190   0.627  18.021  0.00  0.00    +0.000 HD
ENDBRANCH  22  24
ENDBRANCH  18  22
ENDBRANCH  17  18
ENDBRANCH   1  17
BRANCH   3  26
ATOM     26  C   UNL     1       5.190   6.092  16.536  0.00  0.00    +0.000 C 
BRANCH  26  27
ATOM     27  P   UNL     1       6.688   5.088  16.851  0.00  0.00    +0.000 P 
ATOM     28  O   UNL     1       7.324   5.529  15.526  0.00  0.00    +0.000 OA
BRANCH  27  29
ATOM     29  O   UNL     1       7.247   6.182  17.931  0.00  0.00    +0.000 OA
ATOM     30  H   UNL     1       6.518   6.737  18.268  0.00  0.00    +0.000 HD
ENDBRANCH  27  29
BRANCH  27  31
ATOM     31  O   UNL     1       8.104   4.140  17.148  0.00  0.00    +0.000 OA
ATOM     32  H   UNL     1       7.795   3.423  17.740  0.00  0.00    +0.000 HD
ENDBRANCH  27  31
ENDBRANCH  26  27
ENDBRANCH   3  26
TORSDOF 10
ENDMDL
MODEL 8
REMARK VINA RESULT:      -9.1      1.134      1.424
REMARK  Name = 
REMARK  10 active torsions:
REMARK  status: ('A' for Active; 'I' for Inactive)
REMARK    1  A    between atoms: N_1  and  CA_2
REMARK    2  A    between atoms: CA_2  and  C_3
REMARK    3  A    between atoms: CA_2  and  C_25
REMARK    4  A    between atoms: C_3  and  C_4
REMARK    5  A    between atoms: C_6  and  C_7
REMARK    6  A    between atoms: C_7  and  P_8
REMARK    7  A    between atoms: P_8  and  O_10
REMARK    8  A    between atoms: P_8  and  O_11
REMARK    9  A    between atoms: C_13  and  C_14
REMARK   10  A    between atoms: C_25  and  OXT_27
REMARK                            x       y       z     vdW  Elec       q    Type
REMARK                         _______ _______ _______ _____ _____    ______ ____
ROOT
ATOM      1  C   UNL     1       3.036   4.466  17.407  0.00  0.00    +0.000 A 
ATOM      2  C   UNL     1       4.337   4.652  16.953  0.00  0.00    +0.000 A 
ATOM      3  C   UNL     1       4.990   5.861  17.174  0.00  0.00    +0.000 A 
ATOM      4  C   UNL     1       4.272   6.953  17.686  0.00  0.00    +0.000 A 
ATOM      5  C   UNL     1       2.921   6.831  18.067  0.00  0.00    +0.000 A 
ATOM      6  C   UNL     1       2.328   5.558  17.935  0.00  0.00    +0.000 A 
ENDROOT
BRANCH   5   7
ATOM      7  C   UNL     1       2.204   7.964  18.700  0.00  0.00    +0.000 A 
ATOM      8  C   UNL     1       1.749   9.049  17.930  0.00  0.00    +0.000 A 
ATOM      9  C   UNL     1       0.944  10.050  18.476  0.00  0.00    +0.000 A 
ATOM     10  C   UNL     1       0.548   9.996  19.815  0.00  0.00    +0.000 A 
ATOM     11  C   UNL     1      -0.359  10.927  20.345  0.00  0.00    +0.000 A 
ATOM     12  C   UNL     1      -0.753  10.858  21.679  0.00  0.00    +0.000 A 
ATOM     13  C   UNL     1      -0.213   9.883  22.512  0.00  0.00    +0.000 A 
ATOM     14  C   UNL     1       0.689   8.949  21.998  0.00  0.00    +0.000 A 
ATOM     15  C   UNL     1       1.056   8.967  20.642  0.00  0.00    +0.000 A 
ATOM     16  C   UNL     1       1.879   7.973  20.070  0.00  0.00    +0.000 A 
ENDBRANCH   5   7
BRANCH   1  17
ATOM     17  C   UNL     1       2.486   3.062  17.472  0.00  0.00    +0.000 C 
BRANCH  17  18
ATOM     18  CA  UNL     1       2.601   2.433  18.883  0.00  0.00    +0.000 C 
BRANCH  18  19
ATOM     19  N   UNL     1       1.604   1.336  18.987  0.00  0.00    +0.000 NA
ATOM     20  H1  UNL     1       2.031   0.413  19.019  0.00  0.00    +0.000 HD
ATOM     21  H2  UNL     1       0.825   1.421  18.343  0.00  0.00    +0.000 HD
ENDBRANCH  18  19
BRANCH  18  22
ATOM     22  C   UNL     1       4.035   1.934  19.216  0.00  0.00    +0.000 C 
ATOM     23  O   UNL     1       4.847   2.514  19.920  0.00  0.00    +0.000 OA
BRANCH  22  24
ATOM     24  OXT UNL     1       4.336   0.732  18.664  0.00  0.00    +0.000 OA
ATOM     25  HXT UNL     1       3.529   0.189  18.564  0.00  0.00    +0.000 HD
ENDBRANCH  22  24
ENDBRANCH  18  22
ENDBRANCH  17  18
ENDBRANCH   1  17
BRANCH   3  26
ATOM     26  C   UNL     1       6.475   5.923  16.938  0.00  0.00    +0.000 C 
BRANCH  26  27
ATOM     27  P   UNL     1       7.493   5.561  18.415  0.00  0.00    +0.000 P 
ATOM     28  O   UNL     1       7.904   7.032  18.556  0.00  0.00    +0.000 OA
BRANCH  27  29
ATOM     29  O   UNL     1       6.162   5.438  19.356  0.00  0.00    +0.000 OA
ATOM     30  H   UNL     1       6.385   5.599  20.292  0.00  0.00    +0.000 HD
ENDBRANCH  27  29
BRANCH  27  31
ATOM     31  O   UNL     1       8.455   5.219  19.811  0.00  0.00    +0.000 OA
ATOM     32  H   UNL     1       8.306   4.265  19.980  0.00  0.00    +0.000 HD
ENDBRANCH  27  31
ENDBRANCH  26  27
ENDBRANCH   3  26
TORSDOF 10
ENDMDL
MODEL 9
REMARK VINA RESULT:      -9.1      2.322      4.239
REMARK  Name = 
REMARK  10 active torsions:
REMARK  status: ('A' for Active; 'I' for Inactive)
REMARK    1  A    between atoms: N_1  and  CA_2
REMARK    2  A    between atoms: CA_2  and  C_3
REMARK    3  A    between atoms: CA_2  and  C_25
REMARK    4  A    between atoms: C_3  and  C_4
REMARK    5  A    between atoms: C_6  and  C_7
REMARK    6  A    between atoms: C_7  and  P_8
REMARK    7  A    between atoms: P_8  and  O_10
REMARK    8  A    between atoms: P_8  and  O_11
REMARK    9  A    between atoms: C_13  and  C_14
REMARK   10  A    between atoms: C_25  and  OXT_27
REMARK                            x       y       z     vdW  Elec       q    Type
REMARK                         _______ _______ _______ _____ _____    ______ ____
ROOT
ATOM      1  C   UNL     1       4.323   6.259  17.091  0.00  0.00    +0.000 A 
ATOM      2  C   UNL     1       3.831   4.974  17.295  0.00  0.00    +0.000 A 
ATOM      3  C   UNL     1       2.651   4.780  18.005  0.00  0.00    +0.000 A 
ATOM      4  C   UNL     1       2.058   5.862  18.674  0.00  0.00    +0.000 A 
ATOM      5  C   UNL     1       2.583   7.166  18.572  0.00  0.00    +0.000 A 
ATOM      6  C   UNL     1       3.715   7.341  17.749  0.00  0.00    +0.000 A 
ENDROOT
BRANCH   5   7
ATOM      7  C   UNL     1       1.891   8.315  19.201  0.00  0.00    +0.000 A 
ATOM      8  C   UNL     1       1.516   9.437  18.439  0.00  0.00    +0.000 A 
ATOM      9  C   UNL     1       0.734  10.460  18.976  0.00  0.00    +0.000 A 
ATOM     10  C   UNL     1       0.281  10.396  20.296  0.00  0.00    +0.000 A 
ATOM     11  C   UNL     1      -0.605  11.355  20.810  0.00  0.00    +0.000 A 
ATOM     12  C   UNL     1      -1.057  11.275  22.125  0.00  0.00    +0.000 A 
ATOM     13  C   UNL     1      -0.595  10.259  22.956  0.00  0.00    +0.000 A 
ATOM     14  C   UNL     1       0.285   9.296  22.458  0.00  0.00    +0.000 A 
ATOM     15  C   UNL     1       0.709   9.327  21.119  0.00  0.00    +0.000 A 
ATOM     16  C   UNL     1       1.510   8.310  20.557  0.00  0.00    +0.000 A 
ENDBRANCH   5   7
BRANCH   1  17
ATOM     17  C   UNL     1       5.385   6.469  16.039  0.00  0.00    +0.000 C 
BRANCH  17  18
ATOM     18  CA  UNL     1       6.523   5.422  16.111  0.00  0.00    +0.000 C 
BRANCH  18  19
ATOM     19  N   UNL     1       7.383   5.583  14.911  0.00  0.00    +0.000 NA
ATOM     20  H1  UNL     1       6.854   5.601  14.043  0.00  0.00    +0.000 HD
ATOM     21  H2  UNL     1       8.197   4.977  14.899  0.00  0.00    +0.000 HD
ENDBRANCH  18  19
BRANCH  18  22
ATOM     22  C   UNL     1       7.352   5.509  17.423  0.00  0.00    +0.000 C 
ATOM     23  O   UNL     1       7.683   6.538  17.992  0.00  0.00    +0.000 OA
BRANCH  22  24
ATOM     24  OXT UNL     1       7.683   4.299  17.940  0.00  0.00    +0.000 OA
ATOM     25  HXT UNL     1       6.884   3.750  18.066  0.00  0.00    +0.000 HD
ENDBRANCH  22  24
ENDBRANCH  18  22
ENDBRANCH  17  18
ENDBRANCH   1  17
BRANCH   3  26
ATOM     26  C   UNL     1       2.001   3.423  17.952  0.00  0.00    +0.000 C 
BRANCH  26  27
ATOM     27  P   UNL     1       3.135   2.026  18.290  0.00  0.00    +0.000 P 
ATOM     28  O   UNL     1       3.707   2.723  19.531  0.00  0.00    +0.000 OA
BRANCH  27  29
ATOM     29  O   UNL     1       1.910   1.120  18.885  0.00  0.00    +0.000 OA
ATOM     30  H   UNL     1       1.048   1.463  18.582  0.00  0.00    +0.000 HD
ENDBRANCH  27  29
BRANCH  27  31
ATOM     31  O   UNL     1       4.205   0.706  18.610  0.00  0.00    +0.000 OA
ATOM     32  H   UNL     1       3.891  -0.009  18.018  0.00  0.00    +0.000 HD
ENDBRANCH  27  31
ENDBRANCH  26  27
ENDBRANCH   3  26
TORSDOF 10
ENDMDL
