MODEL 1
REMARK VINA RESULT:      -6.5      0.000      0.000
REMARK  Name = 
REMARK  8 active torsions:
REMARK  status: ('A' for Active; 'I' for Inactive)
REMARK    1  A    between atoms: C_1  and  C_2
REMARK    2  A    between atoms: C_14  and  C_15
REMARK    3  A    between atoms: C_15  and  C_16
REMARK    4  A    between atoms: C_16  and  C_17
REMARK    5  A    between atoms: C_16  and  C_18
REMARK    6  A    between atoms: C_22  and  C_23
REMARK    7  A    between atoms: C_27  and  C_28
REMARK    8  A    between atoms: C_28  and  C_29
REMARK                            x       y       z     vdW  Elec       q    Type
REMARK                         _______ _______ _______ _____ _____    ______ ____
ROOT
ATOM      1  C   UNL     1       1.202  11.047  20.139  0.00  0.00    +0.000 C 
ATOM      2  C   UNL     1       1.101  12.455  19.623  0.00  0.00    +0.000 C 
ATOM      3  O   UNL     1       2.138  13.121  19.531  0.00  0.00    +0.000 OA
ATOM      4  N   UNL     1      -0.126  12.957  19.203  0.00  0.00    +0.000 N 
ATOM      5  C   UNL     1      -0.107  14.328  18.676  0.00  0.00    +0.000 C 
ATOM      6  C   UNL     1      -0.085  15.414  19.761  0.00  0.00    +0.000 C 
ATOM      7  C   UNL     1      -0.079  16.807  19.123  0.00  0.00    +0.000 C 
ATOM      8  C   UNL     1      -0.011  17.969  20.123  0.00  0.00    +0.000 C 
ATOM      9  C   UNL     1      -1.381  18.487  20.586  0.00  0.00    +0.000 C 
ATOM     10  C   UNL     1      -1.926  17.742  21.796  0.00  0.00    +0.000 C 
ATOM     11  N   UNL     1      -3.316  18.066  22.054  0.00  0.00    +0.000 N 
ATOM     12  C   UNL     1      -3.869  17.478  23.189  0.00  0.00    +0.000 C 
ATOM     13  O   UNL     1      -3.341  17.537  24.297  0.00  0.00    +0.000 OA
ATOM     14  C   UNL     1      -4.960  16.448  22.853  0.00  0.00    +0.000 C 
ATOM     15  N   UNL     1      -4.241  15.168  22.895  0.00  0.00    +0.000 N 
ATOM     16  C   UNL     1      -4.486  14.137  22.034  0.00  0.00    +0.000 C 
ATOM     17  O   UNL     1      -5.160  14.285  21.010  0.00  0.00    +0.000 OA
ATOM     18  C   UNL     1      -3.894  12.753  22.393  0.00  0.00    +0.000 C 
ATOM     19  C   UNL     1      -3.118  12.639  23.701  0.00  0.00    +0.000 C 
ATOM     20  N   UNL     1      -3.211  12.262  21.200  0.00  0.00    +0.000 N 
ATOM     21  C   UNL     1      -1.897  12.579  20.918  0.00  0.00    +0.000 C 
ATOM     22  O   UNL     1      -1.136  13.049  21.762  0.00  0.00    +0.000 OA
ATOM     23  C   UNL     1      -1.468  12.362  19.452  0.00  0.00    +0.000 C 
ATOM     24  H   UNL     1      -3.898  18.025  21.228  0.00  0.00    +0.000 HD
ATOM     25  H   UNL     1      -3.547  15.077  23.630  0.00  0.00    +0.000 HD
ATOM     26  H   UNL     1      -3.829  12.150  20.402  0.00  0.00    +0.000 HD
ENDROOT
BRANCH  14  27
ATOM     27  C   UNL     1      -6.094  16.377  23.875  0.00  0.00    +0.000 C 
BRANCH  27  28
ATOM     28  C   UNL     1      -7.507  16.198  23.306  0.00  0.00    +0.000 C 
ATOM     29  C   UNL     1      -7.630  16.632  21.846  0.00  0.00    +0.000 C 
ATOM     30  C   UNL     1      -7.913  14.727  23.438  0.00  0.00    +0.000 C 
ENDBRANCH  27  28
ENDBRANCH  14  27
BRANCH  23  31
ATOM     31  C   UNL     1      -1.714  10.903  18.978  0.00  0.00    +0.000 C 
BRANCH  31  32
ATOM     32  C   UNL     1      -2.525  10.734  17.709  0.00  0.00    +0.000 A 
ATOM     33  C   UNL     1      -2.028   9.923  16.683  0.00  0.00    +0.000 A 
ATOM     34  C   UNL     1      -2.701   9.828  15.467  0.00  0.00    +0.000 A 
ATOM     35  C   UNL     1      -3.892  10.526  15.272  0.00  0.00    +0.000 A 
ATOM     36  C   UNL     1      -4.428  11.278  16.310  0.00  0.00    +0.000 A 
ATOM     37  C   UNL     1      -3.765  11.360  17.531  0.00  0.00    +0.000 A 
ENDBRANCH  31  32
ENDBRANCH  23  31
TORSDOF 4
ENDMDL
MODEL 2
REMARK VINA RESULT:      -6.3      2.365      8.110
REMARK  Name = 
REMARK  8 active torsions:
REMARK  status: ('A' for Active; 'I' for Inactive)
REMARK    1  A    between atoms: C_1  and  C_2
REMARK    2  A    between atoms: C_14  and  C_15
REMARK    3  A    between atoms: C_15  and  C_16
REMARK    4  A    between atoms: C_16  and  C_17
REMARK    5  A    between atoms: C_16  and  C_18
REMARK    6  A    between atoms: C_22  and  C_23
REMARK    7  A    between atoms: C_27  and  C_28
REMARK    8  A    between atoms: C_28  and  C_29
REMARK                            x       y       z     vdW  Elec       q    Type
REMARK                         _______ _______ _______ _____ _____    ______ ____
ROOT
ATOM      1  C   UNL     1      -7.111  12.440  23.865  0.00  0.00    +0.000 C 
ATOM      2  C   UNL     1      -7.130  12.495  22.363  0.00  0.00    +0.000 C 
ATOM      3  O   UNL     1      -7.914  11.754  21.759  0.00  0.00    +0.000 OA
ATOM      4  N   UNL     1      -6.328  13.409  21.689  0.00  0.00    +0.000 N 
ATOM      5  C   UNL     1      -6.454  13.412  20.226  0.00  0.00    +0.000 C 
ATOM      6  C   UNL     1      -5.676  12.286  19.530  0.00  0.00    +0.000 C 
ATOM      7  C   UNL     1      -5.854  12.372  18.011  0.00  0.00    +0.000 C 
ATOM      8  C   UNL     1      -5.152  11.262  17.220  0.00  0.00    +0.000 C 
ATOM      9  C   UNL     1      -3.715  11.597  16.795  0.00  0.00    +0.000 C 
ATOM     10  C   UNL     1      -2.678  11.227  17.846  0.00  0.00    +0.000 C 
ATOM     11  N   UNL     1      -1.373  11.783  17.542  0.00  0.00    +0.000 N 
ATOM     12  C   UNL     1      -0.350  11.430  18.420  0.00  0.00    +0.000 C 
ATOM     13  O   UNL     1      -0.111  10.267  18.734  0.00  0.00    +0.000 OA
ATOM     14  C   UNL     1       0.171  12.626  19.235  0.00  0.00    +0.000 C 
ATOM     15  N   UNL     1      -0.561  12.516  20.503  0.00  0.00    +0.000 N 
ATOM     16  C   UNL     1      -1.023  13.593  21.203  0.00  0.00    +0.000 C 
ATOM     17  O   UNL     1      -1.066  14.725  20.710  0.00  0.00    +0.000 OA
ATOM     18  C   UNL     1      -1.483  13.352  22.661  0.00  0.00    +0.000 C 
ATOM     19  C   UNL     1      -1.349  11.938  23.215  0.00  0.00    +0.000 C 
ATOM     20  N   UNL     1      -2.799  13.969  22.797  0.00  0.00    +0.000 N 
ATOM     21  C   UNL     1      -3.965  13.300  22.480  0.00  0.00    +0.000 C 
ATOM     22  O   UNL     1      -4.006  12.080  22.336  0.00  0.00    +0.000 OA
ATOM     23  C   UNL     1      -5.199  14.198  22.258  0.00  0.00    +0.000 C 
ATOM     24  H   UNL     1      -1.401  12.763  17.294  0.00  0.00    +0.000 HD
ATOM     25  H   UNL     1      -0.696  11.572  20.854  0.00  0.00    +0.000 HD
ATOM     26  H   UNL     1      -2.792  14.970  22.623  0.00  0.00    +0.000 HD
ENDROOT
BRANCH  14  27
ATOM     27  C   UNL     1       1.664  12.564  19.555  0.00  0.00    +0.000 C 
BRANCH  27  28
ATOM     28  C   UNL     1       2.408  13.906  19.572  0.00  0.00    +0.000 C 
ATOM     29  C   UNL     1       3.172  14.158  20.871  0.00  0.00    +0.000 C 
ATOM     30  C   UNL     1       3.381  13.949  18.390  0.00  0.00    +0.000 C 
ENDBRANCH  27  28
ENDBRANCH  14  27
BRANCH  23  31
ATOM     31  C   UNL     1      -5.494  15.106  23.484  0.00  0.00    +0.000 C 
BRANCH  31  32
ATOM     32  C   UNL     1      -4.590  16.309  23.665  0.00  0.00    +0.000 A 
ATOM     33  C   UNL     1      -4.102  16.612  24.941  0.00  0.00    +0.000 A 
ATOM     34  C   UNL     1      -3.353  17.766  25.157  0.00  0.00    +0.000 A 
ATOM     35  C   UNL     1      -3.063  18.619  24.092  0.00  0.00    +0.000 A 
ATOM     36  C   UNL     1      -3.485  18.290  22.810  0.00  0.00    +0.000 A 
ATOM     37  C   UNL     1      -4.220  17.127  22.591  0.00  0.00    +0.000 A 
ENDBRANCH  31  32
ENDBRANCH  23  31
TORSDOF 4
ENDMDL
MODEL 3
REMARK VINA RESULT:      -6.2      3.419      6.859
REMARK  Name = 
REMARK  8 active torsions:
REMARK  status: ('A' for Active; 'I' for Inactive)
REMARK    1  A    between atoms: C_1  and  C_2
REMARK    2  A    between atoms: C_14  and  C_15
REMARK    3  A    between atoms: C_15  and  C_16
REMARK    4  A    between atoms: C_16  and  C_17
REMARK    5  A    between atoms: C_16  and  C_18
REMARK    6  A    between atoms: C_22  and  C_23
REMARK    7  A    between atoms: C_27  and  C_28
REMARK    8  A    between atoms: C_28  and  C_29
REMARK                            x       y       z     vdW  Elec       q    Type
REMARK                         _______ _______ _______ _____ _____    ______ ____
ROOT
ATOM      1  C   UNL     1      -1.851  11.613  17.282  0.00  0.00    +0.000 C 
ATOM      2  C   UNL     1      -2.185  11.683  18.745  0.00  0.00    +0.000 C 
ATOM      3  O   UNL     1      -3.373  11.802  19.070  0.00  0.00    +0.000 OA
ATOM      4  N   UNL     1      -1.181  11.550  19.697  0.00  0.00    +0.000 N 
ATOM      5  C   UNL     1      -1.621  11.589  21.098  0.00  0.00    +0.000 C 
ATOM      6  C   UNL     1      -1.876  13.005  21.634  0.00  0.00    +0.000 C 
ATOM      7  C   UNL     1      -2.318  12.951  23.100  0.00  0.00    +0.000 C 
ATOM      8  C   UNL     1      -2.645  14.314  23.721  0.00  0.00    +0.000 C 
ATOM      9  C   UNL     1      -1.450  15.009  24.391  0.00  0.00    +0.000 C 
ATOM     10  C   UNL     1      -0.638  15.866  23.430  0.00  0.00    +0.000 C 
ATOM     11  N   UNL     1       0.618  16.297  24.013  0.00  0.00    +0.000 N 
ATOM     12  C   UNL     1       1.388  17.146  23.221  0.00  0.00    +0.000 C 
ATOM     13  O   UNL     1       0.939  18.164  22.700  0.00  0.00    +0.000 OA
ATOM     14  C   UNL     1       2.701  16.495  22.755  0.00  0.00    +0.000 C 
ATOM     15  N   UNL     1       2.377  16.008  21.408  0.00  0.00    +0.000 N 
ATOM     16  C   UNL     1       2.845  14.830  20.900  0.00  0.00    +0.000 C 
ATOM     17  O   UNL     1       3.382  13.976  21.613  0.00  0.00    +0.000 OA
ATOM     18  C   UNL     1       2.693  14.601  19.377  0.00  0.00    +0.000 C 
ATOM     19  C   UNL     1       2.068  15.724  18.557  0.00  0.00    +0.000 C 
ATOM     20  N   UNL     1       2.099  13.278  19.205  0.00  0.00    +0.000 N 
ATOM     21  C   UNL     1       0.734  13.074  19.217  0.00  0.00    +0.000 C 
ATOM     22  O   UNL     1      -0.071  13.995  19.091  0.00  0.00    +0.000 OA
ATOM     23  C   UNL     1       0.288  11.618  19.462  0.00  0.00    +0.000 C 
ATOM     24  H   UNL     1       1.133  15.548  24.458  0.00  0.00    +0.000 HD
ATOM     25  H   UNL     1       1.786  16.616  20.850  0.00  0.00    +0.000 HD
ATOM     26  H   UNL     1       2.671  12.530  19.587  0.00  0.00    +0.000 HD
ENDROOT
BRANCH  14  27
ATOM     27  C   UNL     1       3.873  17.467  22.627  0.00  0.00    +0.000 C 
BRANCH  27  28
ATOM     28  C   UNL     1       5.234  16.953  23.113  0.00  0.00    +0.000 C 
ATOM     29  C   UNL     1       5.124  15.804  24.114  0.00  0.00    +0.000 C 
ATOM     30  C   UNL     1       6.054  16.498  21.901  0.00  0.00    +0.000 C 
ENDBRANCH  27  28
ENDBRANCH  14  27
BRANCH  23  31
ATOM     31  C   UNL     1       0.905  10.633  18.430  0.00  0.00    +0.000 C 
BRANCH  31  32
ATOM     32  C   UNL     1       1.337   9.282  18.962  0.00  0.00    +0.000 A 
ATOM     33  C   UNL     1       1.057   8.950  20.293  0.00  0.00    +0.000 A 
ATOM     34  C   UNL     1       1.528   7.759  20.839  0.00  0.00    +0.000 A 
ATOM     35  C   UNL     1       2.267   6.875  20.053  0.00  0.00    +0.000 A 
ATOM     36  C   UNL     1       2.491   7.165  18.713  0.00  0.00    +0.000 A 
ATOM     37  C   UNL     1       2.005   8.348  18.162  0.00  0.00    +0.000 A 
ENDBRANCH  31  32
ENDBRANCH  23  31
TORSDOF 4
ENDMDL
MODEL 4
REMARK VINA RESULT:      -6.1      1.006      1.147
REMARK  Name = 
REMARK  8 active torsions:
REMARK  status: ('A' for Active; 'I' for Inactive)
REMARK    1  A    between atoms: C_1  and  C_2
REMARK    2  A    between atoms: C_14  and  C_15
REMARK    3  A    between atoms: C_15  and  C_16
REMARK    4  A    between atoms: C_16  and  C_17
REMARK    5  A    between atoms: C_16  and  C_18
REMARK    6  A    between atoms: C_22  and  C_23
REMARK    7  A    between atoms: C_27  and  C_28
REMARK    8  A    between atoms: C_28  and  C_29
REMARK                            x       y       z     vdW  Elec       q    Type
REMARK                         _______ _______ _______ _____ _____    ______ ____
ROOT
ATOM      1  C   UNL     1       1.151  10.368  19.493  0.00  0.00    +0.000 C 
ATOM      2  C   UNL     1       1.172  11.786  18.994  0.00  0.00    +0.000 C 
ATOM      3  O   UNL     1       2.263  12.290  18.707  0.00  0.00    +0.000 OA
ATOM      4  N   UNL     1      -0.021  12.475  18.803  0.00  0.00    +0.000 N 
ATOM      5  C   UNL     1       0.108  13.838  18.270  0.00  0.00    +0.000 C 
ATOM      6  C   UNL     1       0.491  14.886  19.324  0.00  0.00    +0.000 C 
ATOM      7  C   UNL     1       0.592  16.275  18.686  0.00  0.00    +0.000 C 
ATOM      8  C   UNL     1       1.016  17.393  19.646  0.00  0.00    +0.000 C 
ATOM      9  C   UNL     1      -0.152  18.101  20.350  0.00  0.00    +0.000 C 
ATOM     10  C   UNL     1      -0.572  17.422  21.645  0.00  0.00    +0.000 C 
ATOM     11  N   UNL     1      -1.827  17.945  22.151  0.00  0.00    +0.000 N 
ATOM     12  C   UNL     1      -2.245  17.424  23.374  0.00  0.00    +0.000 C 
ATOM     13  O   UNL     1      -1.521  17.381  24.365  0.00  0.00    +0.000 OA
ATOM     14  C   UNL     1      -3.523  16.576  23.251  0.00  0.00    +0.000 C 
ATOM     15  N   UNL     1      -3.010  15.202  23.171  0.00  0.00    +0.000 N 
ATOM     16  C   UNL     1      -3.560  14.237  22.377  0.00  0.00    +0.000 C 
ATOM     17  O   UNL     1      -4.381  14.505  21.494  0.00  0.00    +0.000 OA
ATOM     18  C   UNL     1      -3.129  12.773  22.632  0.00  0.00    +0.000 C 
ATOM     19  C   UNL     1      -2.153  12.518  23.776  0.00  0.00    +0.000 C 
ATOM     20  N   UNL     1      -2.758  12.209  21.338  0.00  0.00    +0.000 N 
ATOM     21  C   UNL     1      -1.485  12.332  20.816  0.00  0.00    +0.000 C 
ATOM     22  O   UNL     1      -0.521  12.665  21.503  0.00  0.00    +0.000 OA
ATOM     23  C   UNL     1      -1.370  12.083  19.299  0.00  0.00    +0.000 C 
ATOM     24  H   UNL     1      -2.550  18.009  21.446  0.00  0.00    +0.000 HD
ATOM     25  H   UNL     1      -2.214  14.993  23.766  0.00  0.00    +0.000 HD
ATOM     26  H   UNL     1      -3.522  12.208  20.668  0.00  0.00    +0.000 HD
ENDROOT
BRANCH  14  27
ATOM     27  C   UNL     1      -4.448  16.655  24.465  0.00  0.00    +0.000 C 
BRANCH  27  28
ATOM     28  C   UNL     1      -5.898  17.071  24.184  0.00  0.00    +0.000 C 
ATOM     29  C   UNL     1      -6.019  18.155  23.114  0.00  0.00    +0.000 C 
ATOM     30  C   UNL     1      -6.693  15.835  23.752  0.00  0.00    +0.000 C 
ENDBRANCH  27  28
ENDBRANCH  14  27
BRANCH  23  31
ATOM     31  C   UNL     1      -1.916  10.687  18.889  0.00  0.00    +0.000 C 
BRANCH  31  32
ATOM     32  C   UNL     1      -2.642  10.610  17.562  0.00  0.00    +0.000 A 
ATOM     33  C   UNL     1      -2.073   9.879  16.512  0.00  0.00    +0.000 A 
ATOM     34  C   UNL     1      -2.666   9.872  15.252  0.00  0.00    +0.000 A 
ATOM     35  C   UNL     1      -3.848  10.579  15.032  0.00  0.00    +0.000 A 
ATOM     36  C   UNL     1      -4.455  11.251  16.086  0.00  0.00    +0.000 A 
ATOM     37  C   UNL     1      -3.872  11.244  17.351  0.00  0.00    +0.000 A 
ENDBRANCH  31  32
ENDBRANCH  23  31
TORSDOF 4
ENDMDL
MODEL 5
REMARK VINA RESULT:      -6.1      2.388      7.655
REMARK  Name = 
REMARK  8 active torsions:
REMARK  status: ('A' for Active; 'I' for Inactive)
REMARK    1  A    between atoms: C_1  and  C_2
REMARK    2  A    between atoms: C_14  and  C_15
REMARK    3  A    between atoms: C_15  and  C_16
REMARK    4  A    between atoms: C_16  and  C_17
REMARK    5  A    between atoms: C_16  and  C_18
REMARK    6  A    between atoms: C_22  and  C_23
REMARK    7  A    between atoms: C_27  and  C_28
REMARK    8  A    between atoms: C_28  and  C_29
REMARK                            x       y       z     vdW  Elec       q    Type
REMARK                         _______ _______ _______ _____ _____    ______ ____
ROOT
ATOM      1  C   UNL     1      -7.132  12.489  22.782  0.00  0.00    +0.000 C 
ATOM      2  C   UNL     1      -6.800  12.067  21.379  0.00  0.00    +0.000 C 
ATOM      3  O   UNL     1      -7.267  11.001  20.962  0.00  0.00    +0.000 OA
ATOM      4  N   UNL     1      -6.041  12.897  20.562  0.00  0.00    +0.000 N 
ATOM      5  C   UNL     1      -5.812  12.410  19.195  0.00  0.00    +0.000 C 
ATOM      6  C   UNL     1      -4.698  11.360  19.084  0.00  0.00    +0.000 C 
ATOM      7  C   UNL     1      -4.520  10.919  17.628  0.00  0.00    +0.000 C 
ATOM      8  C   UNL     1      -3.458   9.834  17.412  0.00  0.00    +0.000 C 
ATOM      9  C   UNL     1      -2.047  10.374  17.135  0.00  0.00    +0.000 C 
ATOM     10  C   UNL     1      -1.242  10.626  18.401  0.00  0.00    +0.000 C 
ATOM     11  N   UNL     1      -0.026  11.372  18.133  0.00  0.00    +0.000 N 
ATOM     12  C   UNL     1       0.803  11.582  19.233  0.00  0.00    +0.000 C 
ATOM     13  O   UNL     1       1.169  10.676  19.977  0.00  0.00    +0.000 OA
ATOM     14  C   UNL     1       0.886  13.064  19.638  0.00  0.00    +0.000 C 
ATOM     15  N   UNL     1      -0.095  13.172  20.725  0.00  0.00    +0.000 N 
ATOM     16  C   UNL     1      -0.900  14.260  20.908  0.00  0.00    +0.000 C 
ATOM     17  O   UNL     1      -1.030  15.131  20.042  0.00  0.00    +0.000 OA
ATOM     18  C   UNL     1      -1.643  14.378  22.260  0.00  0.00    +0.000 C 
ATOM     19  C   UNL     1      -1.389  13.289  23.298  0.00  0.00    +0.000 C 
ATOM     20  N   UNL     1      -3.044  14.651  21.951  0.00  0.00    +0.000 N 
ATOM     21  C   UNL     1      -3.957  13.643  21.710  0.00  0.00    +0.000 C 
ATOM     22  O   UNL     1      -3.739  12.470  22.008  0.00  0.00    +0.000 OA
ATOM     23  C   UNL     1      -5.245  14.083  20.984  0.00  0.00    +0.000 C 
ATOM     24  H   UNL     1      -0.173  12.185  17.550  0.00  0.00    +0.000 HD
ATOM     25  H   UNL     1      -0.135  12.384  21.364  0.00  0.00    +0.000 HD
ATOM     26  H   UNL     1      -3.178  15.514  21.433  0.00  0.00    +0.000 HD
ENDROOT
BRANCH  14  27
ATOM     27  C   UNL     1       2.245  13.486  20.197  0.00  0.00    +0.000 C 
BRANCH  27  28
ATOM     28  C   UNL     1       2.684  14.924  19.890  0.00  0.00    +0.000 C 
ATOM     29  C   UNL     1       2.492  15.879  21.067  0.00  0.00    +0.000 C 
ATOM     30  C   UNL     1       4.159  14.915  19.475  0.00  0.00    +0.000 C 
ENDBRANCH  27  28
ENDBRANCH  14  27
BRANCH  23  31
ATOM     31  C   UNL     1      -5.985  15.222  21.739  0.00  0.00    +0.000 C 
BRANCH  31  32
ATOM     32  C   UNL     1      -6.612  16.302  20.881  0.00  0.00    +0.000 A 
ATOM     33  C   UNL     1      -7.409  15.934  19.792  0.00  0.00    +0.000 A 
ATOM     34  C   UNL     1      -7.916  16.900  18.927  0.00  0.00    +0.000 A 
ATOM     35  C   UNL     1      -7.650  18.250  19.155  0.00  0.00    +0.000 A 
ATOM     36  C   UNL     1      -6.917  18.629  20.272  0.00  0.00    +0.000 A 
ATOM     37  C   UNL     1      -6.424  17.664  21.147  0.00  0.00    +0.000 A 
ENDBRANCH  31  32
ENDBRANCH  23  31
TORSDOF 4
ENDMDL
MODEL 6
REMARK VINA RESULT:      -6.0      7.051     11.300
REMARK  Name = 
REMARK  8 active torsions:
REMARK  status: ('A' for Active; 'I' for Inactive)
REMARK    1  A    between atoms: C_1  and  C_2
REMARK    2  A    between atoms: C_14  and  C_15
REMARK    3  A    between atoms: C_15  and  C_16
REMARK    4  A    between atoms: C_16  and  C_17
REMARK    5  A    between atoms: C_16  and  C_18
REMARK    6  A    between atoms: C_22  and  C_23
REMARK    7  A    between atoms: C_27  and  C_28
REMARK    8  A    between atoms: C_28  and  C_29
REMARK                            x       y       z     vdW  Elec       q    Type
REMARK                         _______ _______ _______ _____ _____    ______ ____
ROOT
ATOM      1  C   UNL     1       2.298  17.360  19.630  0.00  0.00    +0.000 C 
ATOM      2  C   UNL     1       2.735  16.634  20.870  0.00  0.00    +0.000 C 
ATOM      3  O   UNL     1       2.385  17.084  21.967  0.00  0.00    +0.000 OA
ATOM      4  N   UNL     1       3.458  15.451  20.767  0.00  0.00    +0.000 N 
ATOM      5  C   UNL     1       3.798  14.797  22.038  0.00  0.00    +0.000 C 
ATOM      6  C   UNL     1       5.004  15.418  22.756  0.00  0.00    +0.000 C 
ATOM      7  C   UNL     1       5.293  14.669  24.061  0.00  0.00    +0.000 C 
ATOM      8  C   UNL     1       6.455  15.240  24.883  0.00  0.00    +0.000 C 
ATOM      9  C   UNL     1       7.826  14.631  24.550  0.00  0.00    +0.000 C 
ATOM     10  C   UNL     1       8.541  15.348  23.415  0.00  0.00    +0.000 C 
ATOM     11  N   UNL     1       9.698  14.609  22.947  0.00  0.00    +0.000 N 
ATOM     12  C   UNL     1      10.450  15.235  21.955  0.00  0.00    +0.000 C 
ATOM     13  O   UNL     1      10.856  16.390  22.052  0.00  0.00    +0.000 OA
ATOM     14  C   UNL     1      10.382  14.498  20.606  0.00  0.00    +0.000 C 
ATOM     15  N   UNL     1       9.341  15.230  19.873  0.00  0.00    +0.000 N 
ATOM     16  C   UNL     1       8.436  14.628  19.047  0.00  0.00    +0.000 C 
ATOM     17  O   UNL     1       8.274  13.404  19.035  0.00  0.00    +0.000 OA
ATOM     18  C   UNL     1       7.618  15.539  18.101  0.00  0.00    +0.000 C 
ATOM     19  C   UNL     1       7.914  17.035  18.137  0.00  0.00    +0.000 C 
ATOM     20  N   UNL     1       6.216  15.162  18.257  0.00  0.00    +0.000 N 
ATOM     21  C   UNL     1       5.408  15.710  19.234  0.00  0.00    +0.000 C 
ATOM     22  O   UNL     1       5.714  16.732  19.845  0.00  0.00    +0.000 OA
ATOM     23  C   UNL     1       4.125  14.914  19.547  0.00  0.00    +0.000 C 
ATOM     24  H   UNL     1       9.510  13.629  22.783  0.00  0.00    +0.000 HD
ATOM     25  H   UNL     1       9.339  16.238  19.999  0.00  0.00    +0.000 HD
ATOM     26  H   UNL     1       6.033  14.194  18.010  0.00  0.00    +0.000 HD
ENDROOT
BRANCH  14  27
ATOM     27  C   UNL     1      11.669  14.575  19.784  0.00  0.00    +0.000 C 
BRANCH  27  28
ATOM     28  C   UNL     1      12.187  13.247  19.216  0.00  0.00    +0.000 C 
ATOM     29  C   UNL     1      11.713  12.026  20.003  0.00  0.00    +0.000 C 
ATOM     30  C   UNL     1      11.735  13.122  17.757  0.00  0.00    +0.000 C 
ENDBRANCH  27  28
ENDBRANCH  14  27
BRANCH  23  31
ATOM     31  C   UNL     1       3.250  14.686  18.283  0.00  0.00    +0.000 C 
BRANCH  31  32
ATOM     32  C   UNL     1       2.158  13.643  18.398  0.00  0.00    +0.000 A 
ATOM     33  C   UNL     1       0.837  14.056  18.603  0.00  0.00    +0.000 A 
ATOM     34  C   UNL     1      -0.173  13.120  18.812  0.00  0.00    +0.000 A 
ATOM     35  C   UNL     1       0.124  11.758  18.796  0.00  0.00    +0.000 A 
ATOM     36  C   UNL     1       1.420  11.338  18.525  0.00  0.00    +0.000 A 
ATOM     37  C   UNL     1       2.426  12.273  18.299  0.00  0.00    +0.000 A 
ENDBRANCH  31  32
ENDBRANCH  23  31
TORSDOF 4
ENDMDL
MODEL 7
REMARK VINA RESULT:      -6.0      2.987      5.271
REMARK  Name = 
REMARK  8 active torsions:
REMARK  status: ('A' for Active; 'I' for Inactive)
REMARK    1  A    between atoms: C_1  and  C_2
REMARK    2  A    between atoms: C_14  and  C_15
REMARK    3  A    between atoms: C_15  and  C_16
REMARK    4  A    between atoms: C_16  and  C_17
REMARK    5  A    between atoms: C_16  and  C_18
REMARK    6  A    between atoms: C_22  and  C_23
REMARK    7  A    between atoms: C_27  and  C_28
REMARK    8  A    between atoms: C_28  and  C_29
REMARK                            x       y       z     vdW  Elec       q    Type
REMARK                         _______ _______ _______ _____ _____    ______ ____
ROOT
ATOM      1  C   UNL     1       3.978  14.819  21.758  0.00  0.00    +0.000 C 
ATOM      2  C   UNL     1       3.100  15.735  22.564  0.00  0.00    +0.000 C 
ATOM      3  O   UNL     1       3.505  16.113  23.669  0.00  0.00    +0.000 OA
ATOM      4  N   UNL     1       1.896  16.189  22.037  0.00  0.00    +0.000 N 
ATOM      5  C   UNL     1       1.136  17.114  22.888  0.00  0.00    +0.000 C 
ATOM      6  C   UNL     1       0.335  16.423  24.001  0.00  0.00    +0.000 C 
ATOM      7  C   UNL     1      -0.434  17.459  24.828  0.00  0.00    +0.000 C 
ATOM      8  C   UNL     1      -1.233  16.877  26.000  0.00  0.00    +0.000 C 
ATOM      9  C   UNL     1      -2.677  16.487  25.651  0.00  0.00    +0.000 C 
ATOM     10  C   UNL     1      -2.803  15.066  25.121  0.00  0.00    +0.000 C 
ATOM     11  N   UNL     1      -4.116  14.809  24.558  0.00  0.00    +0.000 N 
ATOM     12  C   UNL     1      -4.335  13.506  24.116  0.00  0.00    +0.000 C 
ATOM     13  O   UNL     1      -4.112  12.518  24.810  0.00  0.00    +0.000 OA
ATOM     14  C   UNL     1      -4.499  13.418  22.589  0.00  0.00    +0.000 C 
ATOM     15  N   UNL     1      -3.157  13.040  22.126  0.00  0.00    +0.000 N 
ATOM     16  C   UNL     1      -2.594  13.518  20.978  0.00  0.00    +0.000 C 
ATOM     17  O   UNL     1      -3.069  14.479  20.365  0.00  0.00    +0.000 OA
ATOM     18  C   UNL     1      -1.329  12.797  20.451  0.00  0.00    +0.000 C 
ATOM     19  C   UNL     1      -0.834  11.586  21.234  0.00  0.00    +0.000 C 
ATOM     20  N   UNL     1      -0.335  13.832  20.179  0.00  0.00    +0.000 N 
ATOM     21  C   UNL     1       0.525  14.304  21.150  0.00  0.00    +0.000 C 
ATOM     22  O   UNL     1       0.710  13.711  22.211  0.00  0.00    +0.000 OA
ATOM     23  C   UNL     1       1.189  15.660  20.837  0.00  0.00    +0.000 C 
ATOM     24  H   UNL     1      -4.430  15.532  23.925  0.00  0.00    +0.000 HD
ATOM     25  H   UNL     1      -2.662  12.372  22.709  0.00  0.00    +0.000 HD
ATOM     26  H   UNL     1      -0.638  14.503  19.479  0.00  0.00    +0.000 HD
ENDROOT
BRANCH  14  27
ATOM     27  C   UNL     1      -5.472  12.335  22.123  0.00  0.00    +0.000 C 
BRANCH  27  28
ATOM     28  C   UNL     1      -6.461  12.743  21.024  0.00  0.00    +0.000 C 
ATOM     29  C   UNL     1      -6.553  14.255  20.823  0.00  0.00    +0.000 C 
ATOM     30  C   UNL     1      -6.043  12.078  19.709  0.00  0.00    +0.000 C 
ENDBRANCH  27  28
ENDBRANCH  14  27
BRANCH  23  31
ATOM     31  C   UNL     1       1.964  15.638  19.490  0.00  0.00    +0.000 C 
BRANCH  31  32
ATOM     32  C   UNL     1       1.498  16.614  18.429  0.00  0.00    +0.000 A 
ATOM     33  C   UNL     1       0.169  17.053  18.439  0.00  0.00    +0.000 A 
ATOM     34  C   UNL     1      -0.314  17.870  17.421  0.00  0.00    +0.000 A 
ATOM     35  C   UNL     1       0.533  18.277  16.391  0.00  0.00    +0.000 A 
ATOM     36  C   UNL     1       1.871  17.903  16.410  0.00  0.00    +0.000 A 
ATOM     37  C   UNL     1       2.359  17.100  17.437  0.00  0.00    +0.000 A 
ENDBRANCH  31  32
ENDBRANCH  23  31
TORSDOF 4
ENDMDL
MODEL 8
REMARK VINA RESULT:      -6.0      2.479      7.765
REMARK  Name = 
REMARK  8 active torsions:
REMARK  status: ('A' for Active; 'I' for Inactive)
REMARK    1  A    between atoms: C_1  and  C_2
REMARK    2  A    between atoms: C_14  and  C_15
REMARK    3  A    between atoms: C_15  and  C_16
REMARK    4  A    between atoms: C_16  and  C_17
REMARK    5  A    between atoms: C_16  and  C_18
REMARK    6  A    between atoms: C_22  and  C_23
REMARK    7  A    between atoms: C_27  and  C_28
REMARK    8  A    between atoms: C_28  and  C_29
REMARK                            x       y       z     vdW  Elec       q    Type
REMARK                         _______ _______ _______ _____ _____    ______ ____
ROOT
ATOM      1  C   UNL     1      -7.388  12.406  22.971  0.00  0.00    +0.000 C 
ATOM      2  C   UNL     1      -7.143  12.091  21.522  0.00  0.00    +0.000 C 
ATOM      3  O   UNL     1      -7.743  11.133  21.022  0.00  0.00    +0.000 OA
ATOM      4  N   UNL     1      -6.312  12.906  20.762  0.00  0.00    +0.000 N 
ATOM      5  C   UNL     1      -6.175  12.536  19.348  0.00  0.00    +0.000 C 
ATOM      6  C   UNL     1      -5.195  11.381  19.097  0.00  0.00    +0.000 C 
ATOM      7  C   UNL     1      -5.106  11.071  17.599  0.00  0.00    +0.000 C 
ATOM      8  C   UNL     1      -4.185   9.898  17.241  0.00  0.00    +0.000 C 
ATOM      9  C   UNL     1      -2.728  10.297  16.967  0.00  0.00    +0.000 C 
ATOM     10  C   UNL     1      -1.868  10.328  18.222  0.00  0.00    +0.000 C 
ATOM     11  N   UNL     1      -0.579  10.951  17.984  0.00  0.00    +0.000 N 
ATOM     12  C   UNL     1       0.295  10.954  19.068  0.00  0.00    +0.000 C 
ATOM     13  O   UNL     1       0.570   9.942  19.708  0.00  0.00    +0.000 OA
ATOM     14  C   UNL     1       0.563  12.368  19.611  0.00  0.00    +0.000 C 
ATOM     15  N   UNL     1      -0.373  12.480  20.738  0.00  0.00    +0.000 N 
ATOM     16  C   UNL     1      -1.039  13.629  21.054  0.00  0.00    +0.000 C 
ATOM     17  O   UNL     1      -1.087  14.591  20.282  0.00  0.00    +0.000 OA
ATOM     18  C   UNL     1      -1.730  13.695  22.437  0.00  0.00    +0.000 C 
ATOM     19  C   UNL     1      -1.581  12.487  23.355  0.00  0.00    +0.000 C 
ATOM     20  N   UNL     1      -3.096  14.157  22.206  0.00  0.00    +0.000 N 
ATOM     21  C   UNL     1      -4.127  13.290  21.902  0.00  0.00    +0.000 C 
ATOM     22  O   UNL     1      -4.041  12.076  22.078  0.00  0.00    +0.000 OA
ATOM     23  C   UNL     1      -5.372  13.945  21.269  0.00  0.00    +0.000 C 
ATOM     24  H   UNL     1      -0.644  11.830  17.488  0.00  0.00    +0.000 HD
ATOM     25  H   UNL     1      -0.489  11.641  21.299  0.00  0.00    +0.000 HD
ATOM     26  H   UNL     1      -3.140  15.078  21.780  0.00  0.00    +0.000 HD
ENDROOT
BRANCH  14  27
ATOM     27  C   UNL     1       1.975  12.573  20.159  0.00  0.00    +0.000 C 
BRANCH  27  28
ATOM     28  C   UNL     1       2.597  13.956  19.922  0.00  0.00    +0.000 C 
ATOM     29  C   UNL     1       1.969  14.709  18.750  0.00  0.00    +0.000 C 
ATOM     30  C   UNL     1       2.454  14.789  21.200  0.00  0.00    +0.000 C 
ENDBRANCH  27  28
ENDBRANCH  14  27
BRANCH  23  31
ATOM     31  C   UNL     1      -5.954  15.081  22.156  0.00  0.00    +0.000 C 
BRANCH  31  32
ATOM     32  C   UNL     1      -6.492  16.295  21.428  0.00  0.00    +0.000 A 
ATOM     33  C   UNL     1      -5.947  16.646  20.188  0.00  0.00    +0.000 A 
ATOM     34  C   UNL     1      -6.350  17.812  19.542  0.00  0.00    +0.000 A 
ATOM     35  C   UNL     1      -7.321  18.630  20.120  0.00  0.00    +0.000 A 
ATOM     36  C   UNL     1      -7.916  18.254  21.317  0.00  0.00    +0.000 A 
ATOM     37  C   UNL     1      -7.525  17.079  21.955  0.00  0.00    +0.000 A 
ENDBRANCH  31  32
ENDBRANCH  23  31
TORSDOF 4
ENDMDL
MODEL 9
REMARK VINA RESULT:      -5.9      3.443      6.895
REMARK  Name = 
REMARK  8 active torsions:
REMARK  status: ('A' for Active; 'I' for Inactive)
REMARK    1  A    between atoms: C_1  and  C_2
REMARK    2  A    between atoms: C_14  and  C_15
REMARK    3  A    between atoms: C_15  and  C_16
REMARK    4  A    between atoms: C_16  and  C_17
REMARK    5  A    between atoms: C_16  and  C_18
REMARK    6  A    between atoms: C_22  and  C_23
REMARK    7  A    between atoms: C_27  and  C_28
REMARK    8  A    between atoms: C_28  and  C_29
REMARK                            x       y       z     vdW  Elec       q    Type
REMARK                         _______ _______ _______ _____ _____    ______ ____
ROOT
ATOM      1  C   UNL     1      -2.060  11.689  17.293  0.00  0.00    +0.000 C 
ATOM      2  C   UNL     1      -2.398  11.839  18.749  0.00  0.00    +0.000 C 
ATOM      3  O   UNL     1      -3.575  12.059  19.058  0.00  0.00    +0.000 OA
ATOM      4  N   UNL     1      -1.413  11.665  19.715  0.00  0.00    +0.000 N 
ATOM      5  C   UNL     1      -1.858  11.789  21.109  0.00  0.00    +0.000 C 
ATOM      6  C   UNL     1      -2.008  13.240  21.590  0.00  0.00    +0.000 C 
ATOM      7  C   UNL     1      -2.462  13.274  23.053  0.00  0.00    +0.000 C 
ATOM      8  C   UNL     1      -2.688  14.681  23.620  0.00  0.00    +0.000 C 
ATOM      9  C   UNL     1      -1.448  15.307  24.275  0.00  0.00    +0.000 C 
ATOM     10  C   UNL     1      -0.567  16.063  23.292  0.00  0.00    +0.000 C 
ATOM     11  N   UNL     1       0.715  16.419  23.871  0.00  0.00    +0.000 N 
ATOM     12  C   UNL     1       1.552  17.177  23.055  0.00  0.00    +0.000 C 
ATOM     13  O   UNL     1       1.185  18.206  22.493  0.00  0.00    +0.000 OA
ATOM     14  C   UNL     1       2.815  16.411  22.626  0.00  0.00    +0.000 C 
ATOM     15  N   UNL     1       2.463  15.900  21.295  0.00  0.00    +0.000 N 
ATOM     16  C   UNL     1       2.843  14.672  20.834  0.00  0.00    +0.000 C 
ATOM     17  O   UNL     1       3.309  13.807  21.583  0.00  0.00    +0.000 OA
ATOM     18  C   UNL     1       2.684  14.399  19.320  0.00  0.00    +0.000 C 
ATOM     19  C   UNL     1       2.152  15.535  18.453  0.00  0.00    +0.000 C 
ATOM     20  N   UNL     1       1.993  13.119  19.191  0.00  0.00    +0.000 N 
ATOM     21  C   UNL     1       0.615  13.020  19.197  0.00  0.00    +0.000 C 
ATOM     22  O   UNL     1      -0.116  13.994  19.030  0.00  0.00    +0.000 OA
ATOM     23  C   UNL     1       0.059  11.612  19.492  0.00  0.00    +0.000 C 
ATOM     24  H   UNL     1       1.167  15.651  24.348  0.00  0.00    +0.000 HD
ATOM     25  H   UNL     1       1.924  16.530  20.709  0.00  0.00    +0.000 HD
ATOM     26  H   UNL     1       2.503  12.345  19.605  0.00  0.00    +0.000 HD
ENDROOT
BRANCH  14  27
ATOM     27  C   UNL     1       4.058  17.286  22.473  0.00  0.00    +0.000 C 
BRANCH  27  28
ATOM     28  C   UNL     1       5.407  16.556  22.512  0.00  0.00    +0.000 C 
ATOM     29  C   UNL     1       6.353  16.971  21.386  0.00  0.00    +0.000 C 
ATOM     30  C   UNL     1       6.076  16.822  23.865  0.00  0.00    +0.000 C 
ENDBRANCH  27  28
ENDBRANCH  14  27
BRANCH  23  31
ATOM     31  C   UNL     1       0.605  10.545  18.502  0.00  0.00    +0.000 C 
BRANCH  31  32
ATOM     32  C   UNL     1       1.211   9.302  19.119  0.00  0.00    +0.000 A 
ATOM     33  C   UNL     1       1.958   8.434  18.314  0.00  0.00    +0.000 A 
ATOM     34  C   UNL     1       2.444   7.234  18.827  0.00  0.00    +0.000 A 
ATOM     35  C   UNL     1       2.205   6.898  20.160  0.00  0.00    +0.000 A 
ATOM     36  C   UNL     1       1.523   7.785  20.983  0.00  0.00    +0.000 A 
ATOM     37  C   UNL     1       1.053   8.993  20.475  0.00  0.00    +0.000 A 
ENDBRANCH  31  32
ENDBRANCH  23  31
TORSDOF 4
ENDMDL
