MODEL 1
REMARK VINA RESULT:      -7.7      0.000      0.000
REMARK  Name = 
REMARK  3 active torsions:
REMARK  status: ('A' for Active; 'I' for Inactive)
REMARK    1  A    between atoms: C_1  and  C_2
REMARK    2  A    between atoms: C_4  and  C_5
REMARK    3  A    between atoms: C_11  and  C_12
REMARK                            x       y       z     vdW  Elec       q    Type
REMARK                         _______ _______ _______ _____ _____    ______ ____
ROOT
ATOM      1  C   UNL     1       1.670   3.316  21.634  0.00  0.00    +0.000 C 
ATOM      2  C   UNL     1       2.327   3.183  20.311  0.00  0.00    +0.000 A 
ATOM      3  C   UNL     1       1.794   2.641  19.128  0.00  0.00    +0.000 A 
ATOM      4  C   UNL     1       2.794   2.757  18.185  0.00  0.00    +0.000 A 
ATOM      5  C   UNL     1       2.808   2.304  16.772  0.00  0.00    +0.000 C 
ATOM      6  N   UNL     1       3.856   3.403  18.816  0.00  0.00    +0.000 N 
ATOM      7  C   UNL     1       5.091   3.864  18.241  0.00  0.00    +0.000 A 
ATOM      8  N   UNL     1       6.018   4.386  19.084  0.00  0.00    +0.000 NA
ATOM      9  N   UNL     1       7.184   4.865  18.587  0.00  0.00    +0.000 NA
ATOM     10  C   UNL     1       7.366   4.835  17.257  0.00  0.00    +0.000 A 
ATOM     11  C   UNL     1       6.406   4.322  16.403  0.00  0.00    +0.000 A 
ATOM     12  N   UNL     1       5.258   3.799  16.898  0.00  0.00    +0.000 NA
ATOM     13  N   UNL     1       3.581   3.604  20.140  0.00  0.00    +0.000 NA
ENDROOT
BRANCH  11  14
ATOM     14  C   UNL     1       6.554   4.332  14.934  0.00  0.00    +0.000 A 
ATOM     15  C   UNL     1       5.720   3.557  14.110  0.00  0.00    +0.000 A 
ATOM     16  C   UNL     1       5.875   3.548  12.718  0.00  0.00    +0.000 A 
ATOM     17  C   UNL     1       6.866   4.322  12.121  0.00  0.00    +0.000 A 
ATOM     18  C   UNL     1       7.691   5.116  12.910  0.00  0.00    +0.000 A 
ATOM     19  C   UNL     1       7.532   5.123  14.299  0.00  0.00    +0.000 A 
ENDBRANCH  11  14
TORSDOF 1
ENDMDL
MODEL 2
REMARK VINA RESULT:      -7.6      0.331      1.152
REMARK  Name = 
REMARK  3 active torsions:
REMARK  status: ('A' for Active; 'I' for Inactive)
REMARK    1  A    between atoms: C_1  and  C_2
REMARK    2  A    between atoms: C_4  and  C_5
REMARK    3  A    between atoms: C_11  and  C_12
REMARK                            x       y       z     vdW  Elec       q    Type
REMARK                         _______ _______ _______ _____ _____    ______ ____
ROOT
ATOM      1  C   UNL     1       1.820   3.830  21.555  0.00  0.00    +0.000 C 
ATOM      2  C   UNL     1       2.435   3.636  20.220  0.00  0.00    +0.000 A 
ATOM      3  C   UNL     1       1.822   3.182  19.039  0.00  0.00    +0.000 A 
ATOM      4  C   UNL     1       2.814   3.187  18.081  0.00  0.00    +0.000 A 
ATOM      5  C   UNL     1       2.750   2.757  16.662  0.00  0.00    +0.000 C 
ATOM      6  N   UNL     1       3.957   3.688  18.702  0.00  0.00    +0.000 N 
ATOM      7  C   UNL     1       5.231   4.002  18.113  0.00  0.00    +0.000 A 
ATOM      8  N   UNL     1       6.227   4.394  18.946  0.00  0.00    +0.000 NA
ATOM      9  N   UNL     1       7.436   4.733  18.436  0.00  0.00    +0.000 NA
ATOM     10  C   UNL     1       7.592   4.700  17.102  0.00  0.00    +0.000 A 
ATOM     11  C   UNL     1       6.563   4.322  16.259  0.00  0.00    +0.000 A 
ATOM     12  N   UNL     1       5.367   3.937  16.766  0.00  0.00    +0.000 NA
ATOM     13  N   UNL     1       3.728   3.903  20.033  0.00  0.00    +0.000 NA
ENDROOT
BRANCH  11  14
ATOM     14  C   UNL     1       6.689   4.335  14.788  0.00  0.00    +0.000 A 
ATOM     15  C   UNL     1       7.640   5.143  14.141  0.00  0.00    +0.000 A 
ATOM     16  C   UNL     1       7.745   5.173  12.746  0.00  0.00    +0.000 A 
ATOM     17  C   UNL     1       6.901   4.387  11.965  0.00  0.00    +0.000 A 
ATOM     18  C   UNL     1       5.965   3.561  12.578  0.00  0.00    +0.000 A 
ATOM     19  C   UNL     1       5.865   3.533  13.973  0.00  0.00    +0.000 A 
ENDBRANCH  11  14
TORSDOF 1
ENDMDL
MODEL 3
REMARK VINA RESULT:      -7.5      5.537      8.487
REMARK  Name = 
REMARK  3 active torsions:
REMARK  status: ('A' for Active; 'I' for Inactive)
REMARK    1  A    between atoms: C_1  and  C_2
REMARK    2  A    between atoms: C_4  and  C_5
REMARK    3  A    between atoms: C_11  and  C_12
REMARK                            x       y       z     vdW  Elec       q    Type
REMARK                         _______ _______ _______ _____ _____    ______ ____
ROOT
ATOM      1  C   UNL     1       5.276   4.262  17.056  0.00  0.00    +0.000 C 
ATOM      2  C   UNL     1       4.244   4.923  17.889  0.00  0.00    +0.000 A 
ATOM      3  C   UNL     1       3.635   4.442  19.062  0.00  0.00    +0.000 A 
ATOM      4  C   UNL     1       2.756   5.431  19.455  0.00  0.00    +0.000 A 
ATOM      5  C   UNL     1       1.810   5.444  20.598  0.00  0.00    +0.000 C 
ATOM      6  N   UNL     1       2.908   6.475  18.545  0.00  0.00    +0.000 N 
ATOM      7  C   UNL     1       2.306   7.781  18.574  0.00  0.00    +0.000 A 
ATOM      8  N   UNL     1       2.536   8.601  17.518  0.00  0.00    +0.000 NA
ATOM      9  N   UNL     1       2.020   9.854  17.514  0.00  0.00    +0.000 NA
ATOM     10  C   UNL     1       1.318  10.253  18.587  0.00  0.00    +0.000 A 
ATOM     11  C   UNL     1       1.109   9.419  19.670  0.00  0.00    +0.000 A 
ATOM     12  N   UNL     1       1.583   8.150  19.660  0.00  0.00    +0.000 NA
ATOM     13  N   UNL     1       3.780   6.127  17.551  0.00  0.00    +0.000 NA
ENDROOT
BRANCH  11  14
ATOM     14  C   UNL     1       0.394   9.852  20.888  0.00  0.00    +0.000 A 
ATOM     15  C   UNL     1       0.480   9.122  22.085  0.00  0.00    +0.000 A 
ATOM     16  C   UNL     1      -0.216   9.519  23.233  0.00  0.00    +0.000 A 
ATOM     17  C   UNL     1      -1.009  10.663  23.208  0.00  0.00    +0.000 A 
ATOM     18  C   UNL     1      -1.095  11.418  22.043  0.00  0.00    +0.000 A 
ATOM     19  C   UNL     1      -0.397  11.018  20.899  0.00  0.00    +0.000 A 
ENDBRANCH  11  14
TORSDOF 1
ENDMDL
MODEL 4
REMARK VINA RESULT:      -7.4      3.852      4.804
REMARK  Name = 
REMARK  3 active torsions:
REMARK  status: ('A' for Active; 'I' for Inactive)
REMARK    1  A    between atoms: C_1  and  C_2
REMARK    2  A    between atoms: C_4  and  C_5
REMARK    3  A    between atoms: C_11  and  C_12
REMARK                            x       y       z     vdW  Elec       q    Type
REMARK                         _______ _______ _______ _____ _____    ______ ____
ROOT
ATOM      1  C   UNL     1       0.099   9.582  22.650  0.00  0.00    +0.000 C 
ATOM      2  C   UNL     1       0.702   9.028  21.414  0.00  0.00    +0.000 A 
ATOM      3  C   UNL     1       0.938   9.686  20.194  0.00  0.00    +0.000 A 
ATOM      4  C   UNL     1       1.520   8.742  19.371  0.00  0.00    +0.000 A 
ATOM      5  C   UNL     1       1.936   8.864  17.952  0.00  0.00    +0.000 C 
ATOM      6  N   UNL     1       1.656   7.586  20.137  0.00  0.00    +0.000 N 
ATOM      7  C   UNL     1       2.307   6.352  19.785  0.00  0.00    +0.000 A 
ATOM      8  N   UNL     1       2.228   5.328  20.671  0.00  0.00    +0.000 NA
ATOM      9  N   UNL     1       2.854   4.156  20.402  0.00  0.00    +0.000 NA
ATOM     10  C   UNL     1       3.566   4.065  19.266  0.00  0.00    +0.000 A 
ATOM     11  C   UNL     1       3.660   5.123  18.380  0.00  0.00    +0.000 A 
ATOM     12  N   UNL     1       2.999   6.280  18.622  0.00  0.00    +0.000 NA
ATOM     13  N   UNL     1       1.093   7.754  21.372  0.00  0.00    +0.000 NA
ENDROOT
BRANCH  11  14
ATOM     14  C   UNL     1       4.484   5.070  17.156  0.00  0.00    +0.000 A 
ATOM     15  C   UNL     1       4.837   6.240  16.461  0.00  0.00    +0.000 A 
ATOM     16  C   UNL     1       5.599   6.189  15.288  0.00  0.00    +0.000 A 
ATOM     17  C   UNL     1       6.031   4.963  14.788  0.00  0.00    +0.000 A 
ATOM     18  C   UNL     1       5.716   3.792  15.467  0.00  0.00    +0.000 A 
ATOM     19  C   UNL     1       4.955   3.847  16.639  0.00  0.00    +0.000 A 
ENDBRANCH  11  14
TORSDOF 1
ENDMDL
MODEL 5
REMARK VINA RESULT:      -7.4      5.530      8.498
REMARK  Name = 
REMARK  3 active torsions:
REMARK  status: ('A' for Active; 'I' for Inactive)
REMARK    1  A    between atoms: C_1  and  C_2
REMARK    2  A    between atoms: C_4  and  C_5
REMARK    3  A    between atoms: C_11  and  C_12
REMARK                            x       y       z     vdW  Elec       q    Type
REMARK                         _______ _______ _______ _____ _____    ______ ____
ROOT
ATOM      1  C   UNL     1       5.462   4.327  17.189  0.00  0.00    +0.000 C 
ATOM      2  C   UNL     1       4.398   4.972  17.996  0.00  0.00    +0.000 A 
ATOM      3  C   UNL     1       3.789   4.496  19.170  0.00  0.00    +0.000 A 
ATOM      4  C   UNL     1       2.875   5.464  19.532  0.00  0.00    +0.000 A 
ATOM      5  C   UNL     1       1.914   5.471  20.662  0.00  0.00    +0.000 C 
ATOM      6  N   UNL     1       3.006   6.494  18.602  0.00  0.00    +0.000 N 
ATOM      7  C   UNL     1       2.364   7.781  18.597  0.00  0.00    +0.000 A 
ATOM      8  N   UNL     1       2.582   8.586  17.527  0.00  0.00    +0.000 NA
ATOM      9  N   UNL     1       2.027   9.821  17.490  0.00  0.00    +0.000 NA
ATOM     10  C   UNL     1       1.299  10.220  18.546  0.00  0.00    +0.000 A 
ATOM     11  C   UNL     1       1.102   9.402  19.644  0.00  0.00    +0.000 A 
ATOM     12  N   UNL     1       1.615   8.148  19.666  0.00  0.00    +0.000 NA
ATOM     13  N   UNL     1       3.902   6.154  17.626  0.00  0.00    +0.000 NA
ENDROOT
BRANCH  11  14
ATOM     14  C   UNL     1       0.358   9.837  20.843  0.00  0.00    +0.000 A 
ATOM     15  C   UNL     1      -0.352  11.050  20.864  0.00  0.00    +0.000 A 
ATOM     16  C   UNL     1      -1.038  11.474  22.008  0.00  0.00    +0.000 A 
ATOM     17  C   UNL     1      -1.035  10.687  23.156  0.00  0.00    +0.000 A 
ATOM     18  C   UNL     1      -0.360   9.471  23.157  0.00  0.00    +0.000 A 
ATOM     19  C   UNL     1       0.324   9.051  22.012  0.00  0.00    +0.000 A 
ENDBRANCH  11  14
TORSDOF 1
ENDMDL
MODEL 6
REMARK VINA RESULT:      -7.4      3.803      4.703
REMARK  Name = 
REMARK  3 active torsions:
REMARK  status: ('A' for Active; 'I' for Inactive)
REMARK    1  A    between atoms: C_1  and  C_2
REMARK    2  A    between atoms: C_4  and  C_5
REMARK    3  A    between atoms: C_11  and  C_12
REMARK                            x       y       z     vdW  Elec       q    Type
REMARK                         _______ _______ _______ _____ _____    ______ ____
ROOT
ATOM      1  C   UNL     1       0.104   9.472  22.736  0.00  0.00    +0.000 C 
ATOM      2  C   UNL     1       0.706   8.938  21.490  0.00  0.00    +0.000 A 
ATOM      3  C   UNL     1       0.946   9.616  20.282  0.00  0.00    +0.000 A 
ATOM      4  C   UNL     1       1.525   8.686  19.444  0.00  0.00    +0.000 A 
ATOM      5  C   UNL     1       1.943   8.830  18.028  0.00  0.00    +0.000 C 
ATOM      6  N   UNL     1       1.656   7.515  20.189  0.00  0.00    +0.000 N 
ATOM      7  C   UNL     1       2.303   6.286  19.816  0.00  0.00    +0.000 A 
ATOM      8  N   UNL     1       2.221   5.246  20.684  0.00  0.00    +0.000 NA
ATOM      9  N   UNL     1       2.842   4.077  20.394  0.00  0.00    +0.000 NA
ATOM     10  C   UNL     1       3.555   4.003  19.258  0.00  0.00    +0.000 A 
ATOM     11  C   UNL     1       3.654   5.077  18.391  0.00  0.00    +0.000 A 
ATOM     12  N   UNL     1       2.996   6.232  18.653  0.00  0.00    +0.000 NA
ATOM     13  N   UNL     1       1.093   7.663  21.426  0.00  0.00    +0.000 NA
ENDROOT
BRANCH  11  14
ATOM     14  C   UNL     1       4.479   5.043  17.167  0.00  0.00    +0.000 A 
ATOM     15  C   UNL     1       4.948   3.830  16.634  0.00  0.00    +0.000 A 
ATOM     16  C   UNL     1       5.749   3.800  15.486  0.00  0.00    +0.000 A 
ATOM     17  C   UNL     1       6.094   4.985  14.843  0.00  0.00    +0.000 A 
ATOM     18  C   UNL     1       5.625   6.198  15.335  0.00  0.00    +0.000 A 
ATOM     19  C   UNL     1       4.824   6.225  16.481  0.00  0.00    +0.000 A 
ENDBRANCH  11  14
TORSDOF 1
ENDMDL
MODEL 7
REMARK VINA RESULT:      -7.1      1.296      1.296
REMARK  Name = 
REMARK  3 active torsions:
REMARK  status: ('A' for Active; 'I' for Inactive)
REMARK    1  A    between atoms: C_1  and  C_2
REMARK    2  A    between atoms: C_4  and  C_5
REMARK    3  A    between atoms: C_11  and  C_12
REMARK                            x       y       z     vdW  Elec       q    Type
REMARK                         _______ _______ _______ _____ _____    ______ ____
ROOT
ATOM      1  C   UNL     1       1.514   5.488  21.080  0.00  0.00    +0.000 C 
ATOM      2  C   UNL     1       2.211   5.005  19.863  0.00  0.00    +0.000 A 
ATOM      3  C   UNL     1       1.729   4.124  18.879  0.00  0.00    +0.000 A 
ATOM      4  C   UNL     1       2.751   4.002  17.960  0.00  0.00    +0.000 A 
ATOM      5  C   UNL     1       2.819   3.161  16.739  0.00  0.00    +0.000 C 
ATOM      6  N   UNL     1       3.773   4.844  18.395  0.00  0.00    +0.000 N 
ATOM      7  C   UNL     1       5.008   5.168  17.733  0.00  0.00    +0.000 A 
ATOM      8  N   UNL     1       5.892   5.948  18.403  0.00  0.00    +0.000 NA
ATOM      9  N   UNL     1       7.055   6.310  17.809  0.00  0.00    +0.000 NA
ATOM     10  C   UNL     1       7.275   5.904  16.548  0.00  0.00    +0.000 A 
ATOM     11  C   UNL     1       6.357   5.129  15.863  0.00  0.00    +0.000 A 
ATOM     12  N   UNL     1       5.213   4.726  16.468  0.00  0.00    +0.000 NA
ATOM     13  N   UNL     1       3.454   5.409  19.599  0.00  0.00    +0.000 NA
ENDROOT
BRANCH  11  14
ATOM     14  C   UNL     1       6.545   4.720  14.457  0.00  0.00    +0.000 A 
ATOM     15  C   UNL     1       5.705   3.768  13.853  0.00  0.00    +0.000 A 
ATOM     16  C   UNL     1       5.898   3.363  12.527  0.00  0.00    +0.000 A 
ATOM     17  C   UNL     1       6.933   3.909  11.773  0.00  0.00    +0.000 A 
ATOM     18  C   UNL     1       7.766   4.869  12.338  0.00  0.00    +0.000 A 
ATOM     19  C   UNL     1       7.570   5.271  13.662  0.00  0.00    +0.000 A 
ENDBRANCH  11  14
TORSDOF 1
ENDMDL
MODEL 8
REMARK VINA RESULT:      -6.9      1.411      1.836
REMARK  Name = 
REMARK  3 active torsions:
REMARK  status: ('A' for Active; 'I' for Inactive)
REMARK    1  A    between atoms: C_1  and  C_2
REMARK    2  A    between atoms: C_4  and  C_5
REMARK    3  A    between atoms: C_11  and  C_12
REMARK                            x       y       z     vdW  Elec       q    Type
REMARK                         _______ _______ _______ _____ _____    ______ ____
ROOT
ATOM      1  C   UNL     1       1.082   3.160  21.163  0.00  0.00    +0.000 C 
ATOM      2  C   UNL     1       2.052   3.062  20.046  0.00  0.00    +0.000 A 
ATOM      3  C   UNL     1       2.463   1.911  19.352  0.00  0.00    +0.000 A 
ATOM      4  C   UNL     1       3.365   2.353  18.405  0.00  0.00    +0.000 A 
ATOM      5  C   UNL     1       4.155   1.568  17.425  0.00  0.00    +0.000 C 
ATOM      6  N   UNL     1       3.421   3.739  18.533  0.00  0.00    +0.000 N 
ATOM      7  C   UNL     1       4.122   4.686  17.708  0.00  0.00    +0.000 A 
ATOM      8  N   UNL     1       4.099   5.988  18.090  0.00  0.00    +0.000 NA
ATOM      9  N   UNL     1       4.717   6.923  17.328  0.00  0.00    +0.000 NA
ATOM     10  C   UNL     1       5.307   6.524  16.189  0.00  0.00    +0.000 A 
ATOM     11  C   UNL     1       5.304   5.197  15.795  0.00  0.00    +0.000 A 
ATOM     12  N   UNL     1       4.729   4.251  16.576  0.00  0.00    +0.000 NA
ATOM     13  N   UNL     1       2.656   4.159  19.586  0.00  0.00    +0.000 NA
ENDROOT
BRANCH  11  14
ATOM     14  C   UNL     1       5.892   4.740  14.520  0.00  0.00    +0.000 A 
ATOM     15  C   UNL     1       7.131   5.228  14.069  0.00  0.00    +0.000 A 
ATOM     16  C   UNL     1       7.677   4.812  12.849  0.00  0.00    +0.000 A 
ATOM     17  C   UNL     1       6.997   3.891  12.057  0.00  0.00    +0.000 A 
ATOM     18  C   UNL     1       5.781   3.375  12.489  0.00  0.00    +0.000 A 
ATOM     19  C   UNL     1       5.238   3.792  13.708  0.00  0.00    +0.000 A 
ENDBRANCH  11  14
TORSDOF 1
ENDMDL
MODEL 9
REMARK VINA RESULT:      -6.9      5.225      7.434
REMARK  Name = 
REMARK  3 active torsions:
REMARK  status: ('A' for Active; 'I' for Inactive)
REMARK    1  A    between atoms: C_1  and  C_2
REMARK    2  A    between atoms: C_4  and  C_5
REMARK    3  A    between atoms: C_11  and  C_12
REMARK                            x       y       z     vdW  Elec       q    Type
REMARK                         _______ _______ _______ _____ _____    ______ ____
ROOT
ATOM      1  C   UNL     1      -0.287  12.593  18.565  0.00  0.00    +0.000 C 
ATOM      2  C   UNL     1       0.132  11.307  19.173  0.00  0.00    +0.000 A 
ATOM      3  C   UNL     1      -0.345  10.709  20.352  0.00  0.00    +0.000 A 
ATOM      4  C   UNL     1       0.355   9.526  20.476  0.00  0.00    +0.000 A 
ATOM      5  C   UNL     1       0.300   8.512  21.558  0.00  0.00    +0.000 C 
ATOM      6  N   UNL     1       1.176   9.437  19.353  0.00  0.00    +0.000 N 
ATOM      7  C   UNL     1       2.019   8.345  18.946  0.00  0.00    +0.000 A 
ATOM      8  N   UNL     1       2.801   8.531  17.853  0.00  0.00    +0.000 NA
ATOM      9  N   UNL     1       3.588   7.521  17.409  0.00  0.00    +0.000 NA
ATOM     10  C   UNL     1       3.536   6.346  18.058  0.00  0.00    +0.000 A 
ATOM     11  C   UNL     1       2.717   6.157  19.157  0.00  0.00    +0.000 A 
ATOM     12  N   UNL     1       1.964   7.178  19.633  0.00  0.00    +0.000 NA
ATOM     13  N   UNL     1       1.076  10.567  18.590  0.00  0.00    +0.000 NA
ENDROOT
BRANCH  11  14
ATOM     14  C   UNL     1       2.596   4.860  19.851  0.00  0.00    +0.000 A 
ATOM     15  C   UNL     1       1.475   4.556  20.643  0.00  0.00    +0.000 A 
ATOM     16  C   UNL     1       1.370   3.335  21.320  0.00  0.00    +0.000 A 
ATOM     17  C   UNL     1       2.383   2.387  21.212  0.00  0.00    +0.000 A 
ATOM     18  C   UNL     1       3.493   2.651  20.417  0.00  0.00    +0.000 A 
ATOM     19  C   UNL     1       3.594   3.871  19.742  0.00  0.00    +0.000 A 
ENDBRANCH  11  14
TORSDOF 1
ENDMDL
