MODEL 1
REMARK VINA RESULT:      -7.1      0.000      0.000
REMARK  Name = 
REMARK  6 active torsions:
REMARK  status: ('A' for Active; 'I' for Inactive)
REMARK    1  A    between atoms: C_1  and  C_2
REMARK    2  A    between atoms: C_2  and  S_3
REMARK    3  A    between atoms: C_2  and  C_16
REMARK    4  A    between atoms: S_3  and  C_4
REMARK    5  A    between atoms: C_7  and  C_8
REMARK    6  A    between atoms: N_14  and  N_15
REMARK                            x       y       z     vdW  Elec       q    Type
REMARK                         _______ _______ _______ _____ _____    ______ ____
ROOT
ATOM      1  C   UNL     1       1.467   9.270  18.933  0.00  0.00    +0.000 A 
ATOM      2  N   UNL     1       1.829   9.431  17.685  0.00  0.00    +0.000 NA
ATOM      3  N   UNL     1       2.468   8.273  17.294  0.00  0.00    +0.000 NA
ATOM      4  C   UNL     1       2.460   7.418  18.303  0.00  0.00    +0.000 A 
ATOM      5  N   UNL     1       1.871   8.040  19.388  0.00  0.00    +0.000 N 
ENDROOT
BRANCH   4   6
ATOM      6  C   UNL     1       3.024   6.071  18.295  0.00  0.00    +0.000 A 
ATOM      7  C   UNL     1       2.256   4.987  17.858  0.00  0.00    +0.000 A 
ATOM      8  C   UNL     1       2.814   3.707  17.834  0.00  0.00    +0.000 A 
ATOM      9  C   UNL     1       4.121   3.549  18.257  0.00  0.00    +0.000 A 
ATOM     10  N   UNL     1       4.894   4.565  18.696  0.00  0.00    +0.000 NA
ATOM     11  C   UNL     1       4.323   5.797  18.717  0.00  0.00    +0.000 A 
ENDBRANCH   4   6
BRANCH   5  12
ATOM     12  N   UNL     1       1.749   7.532  20.736  0.00  0.00    +0.000 N 
ATOM     13  H   UNL     1       2.445   7.957  21.349  0.00  0.00    +0.000 HD
ATOM     14  H   UNL     1       0.847   7.807  21.130  0.00  0.00    +0.000 HD
ENDBRANCH   5  12
BRANCH   1  15
ATOM     15  S   UNL     1       0.668  10.413  19.947  0.00  0.00    +0.000 S 
BRANCH  15  17
ATOM     16  C   UNL     1       0.557  12.917  18.784  0.00  0.00    +0.000 C 
ATOM     17  C   UNL     1      -0.112  11.539  18.736  0.00  0.00    +0.000 C 
BRANCH  17  18
ATOM     18  C   UNL     1      -1.635  11.647  18.895  0.00  0.00    +0.000 C 
ATOM     19  O   UNL     1      -2.111  12.407  19.745  0.00  0.00    +0.000 OA
ATOM     20  N   UNL     1      -2.464  10.983  18.003  0.00  0.00    +0.000 N 
ATOM     21  C   UNL     1      -2.076  10.072  16.919  0.00  0.00    +0.000 C 
ATOM     22  C   UNL     1      -2.711  10.515  15.596  0.00  0.00    +0.000 C 
ATOM     23  O   UNL     1      -4.135  10.642  15.714  0.00  0.00    +0.000 OA
ATOM     24  C   UNL     1      -4.481  11.592  16.737  0.00  0.00    +0.000 C 
ATOM     25  C   UNL     1      -3.915  11.170  18.097  0.00  0.00    +0.000 C 
ENDBRANCH  17  18
ENDBRANCH  15  17
ENDBRANCH   1  15
TORSDOF 5
ENDMDL
MODEL 2
REMARK VINA RESULT:      -6.9      0.638      1.032
REMARK  Name = 
REMARK  6 active torsions:
REMARK  status: ('A' for Active; 'I' for Inactive)
REMARK    1  A    between atoms: C_1  and  C_2
REMARK    2  A    between atoms: C_2  and  S_3
REMARK    3  A    between atoms: C_2  and  C_16
REMARK    4  A    between atoms: S_3  and  C_4
REMARK    5  A    between atoms: C_7  and  C_8
REMARK    6  A    between atoms: N_14  and  N_15
REMARK                            x       y       z     vdW  Elec       q    Type
REMARK                         _______ _______ _______ _____ _____    ______ ____
ROOT
ATOM      1  C   UNL     1       1.325   9.396  18.972  0.00  0.00    +0.000 A 
ATOM      2  N   UNL     1       1.624   9.674  17.728  0.00  0.00    +0.000 NA
ATOM      3  N   UNL     1       2.372   8.621  17.243  0.00  0.00    +0.000 NA
ATOM      4  C   UNL     1       2.492   7.708  18.194  0.00  0.00    +0.000 A 
ATOM      5  N   UNL     1       1.876   8.192  19.333  0.00  0.00    +0.000 N 
ENDROOT
BRANCH   4   6
ATOM      6  C   UNL     1       3.198   6.435  18.081  0.00  0.00    +0.000 A 
ATOM      7  C   UNL     1       4.569   6.410  17.804  0.00  0.00    +0.000 A 
ATOM      8  C   UNL     1       5.237   5.187  17.720  0.00  0.00    +0.000 A 
ATOM      9  C   UNL     1       4.511   4.025  17.907  0.00  0.00    +0.000 A 
ATOM     10  N   UNL     1       3.187   4.002  18.165  0.00  0.00    +0.000 NA
ATOM     11  C   UNL     1       2.561   5.206  18.232  0.00  0.00    +0.000 A 
ENDBRANCH   4   6
BRANCH   5  12
ATOM     12  N   UNL     1       1.855   7.589  20.647  0.00  0.00    +0.000 N 
ATOM     13  H   UNL     1       1.194   6.813  20.680  0.00  0.00    +0.000 HD
ATOM     14  H   UNL     1       2.764   7.170  20.852  0.00  0.00    +0.000 HD
ENDBRANCH   5  12
BRANCH   1  15
ATOM     15  S   UNL     1       0.441  10.377  20.080  0.00  0.00    +0.000 S 
BRANCH  15  17
ATOM     16  C   UNL     1       0.344  13.021  19.282  0.00  0.00    +0.000 C 
ATOM     17  C   UNL     1      -0.283  11.652  18.989  0.00  0.00    +0.000 C 
BRANCH  17  18
ATOM     18  C   UNL     1      -1.816  11.711  19.051  0.00  0.00    +0.000 C 
ATOM     19  O   UNL     1      -2.369  12.447  19.875  0.00  0.00    +0.000 OA
ATOM     20  N   UNL     1      -2.564  11.030  18.102  0.00  0.00    +0.000 N 
ATOM     21  C   UNL     1      -2.079  10.143  17.038  0.00  0.00    +0.000 C 
ATOM     22  C   UNL     1      -2.642  10.579  15.681  0.00  0.00    +0.000 C 
ATOM     23  O   UNL     1      -4.075  10.660  15.709  0.00  0.00    +0.000 OA
ATOM     24  C   UNL     1      -4.515  11.588  16.715  0.00  0.00    +0.000 C 
ATOM     25  C   UNL     1      -4.024  11.171  18.105  0.00  0.00    +0.000 C 
ENDBRANCH  17  18
ENDBRANCH  15  17
ENDBRANCH   1  15
TORSDOF 5
ENDMDL
MODEL 3
REMARK VINA RESULT:      -6.8      6.668      8.542
REMARK  Name = 
REMARK  6 active torsions:
REMARK  status: ('A' for Active; 'I' for Inactive)
REMARK    1  A    between atoms: C_1  and  C_2
REMARK    2  A    between atoms: C_2  and  S_3
REMARK    3  A    between atoms: C_2  and  C_16
REMARK    4  A    between atoms: S_3  and  C_4
REMARK    5  A    between atoms: C_7  and  C_8
REMARK    6  A    between atoms: N_14  and  N_15
REMARK                            x       y       z     vdW  Elec       q    Type
REMARK                         _______ _______ _______ _____ _____    ______ ____
ROOT
ATOM      1  C   UNL     1       6.990   4.798  16.031  0.00  0.00    +0.000 A 
ATOM      2  N   UNL     1       7.546   5.669  15.228  0.00  0.00    +0.000 NA
ATOM      3  N   UNL     1       7.235   5.291  13.939  0.00  0.00    +0.000 NA
ATOM      4  C   UNL     1       6.473   4.210  13.982  0.00  0.00    +0.000 A 
ATOM      5  N   UNL     1       6.335   3.835  15.305  0.00  0.00    +0.000 N 
ENDROOT
BRANCH   4   6
ATOM      6  C   UNL     1       5.917   3.502  12.832  0.00  0.00    +0.000 A 
ATOM      7  C   UNL     1       4.648   3.831  12.346  0.00  0.00    +0.000 A 
ATOM      8  C   UNL     1       4.137   3.160  11.232  0.00  0.00    +0.000 A 
ATOM      9  C   UNL     1       4.909   2.175  10.644  0.00  0.00    +0.000 A 
ATOM     10  N   UNL     1       6.133   1.819  11.087  0.00  0.00    +0.000 NA
ATOM     11  C   UNL     1       6.601   2.481  12.177  0.00  0.00    +0.000 A 
ENDBRANCH   4   6
BRANCH   5  12
ATOM     12  N   UNL     1       5.686   2.652  15.823  0.00  0.00    +0.000 N 
ATOM     13  H   UNL     1       6.346   2.072  16.340  0.00  0.00    +0.000 HD
ATOM     14  H   UNL     1       4.975   2.917  16.507  0.00  0.00    +0.000 HD
ENDBRANCH   5  12
BRANCH   1  15
ATOM     15  S   UNL     1       7.084   4.752  17.752  0.00  0.00    +0.000 S 
BRANCH  15  17
ATOM     16  C   UNL     1       5.151   6.084  19.211  0.00  0.00    +0.000 C 
ATOM     17  C   UNL     1       5.331   4.904  18.248  0.00  0.00    +0.000 C 
BRANCH  17  18
ATOM     18  C   UNL     1       4.747   3.609  18.831  0.00  0.00    +0.000 C 
ATOM     19  O   UNL     1       5.320   3.044  19.768  0.00  0.00    +0.000 OA
ATOM     20  N   UNL     1       3.517   3.151  18.380  0.00  0.00    +0.000 N 
ATOM     21  C   UNL     1       2.686   3.710  17.307  0.00  0.00    +0.000 C 
ATOM     22  C   UNL     1       1.260   3.959  17.809  0.00  0.00    +0.000 C 
ATOM     23  O   UNL     1       0.688   2.770  18.376  0.00  0.00    +0.000 OA
ATOM     24  C   UNL     1       1.489   2.288  19.469  0.00  0.00    +0.000 C 
ATOM     25  C   UNL     1       2.917   1.971  19.010  0.00  0.00    +0.000 C 
ENDBRANCH  17  18
ENDBRANCH  15  17
ENDBRANCH   1  15
TORSDOF 5
ENDMDL
MODEL 4
REMARK VINA RESULT:      -6.8      4.116      8.127
REMARK  Name = 
REMARK  6 active torsions:
REMARK  status: ('A' for Active; 'I' for Inactive)
REMARK    1  A    between atoms: C_1  and  C_2
REMARK    2  A    between atoms: C_2  and  S_3
REMARK    3  A    between atoms: C_2  and  C_16
REMARK    4  A    between atoms: S_3  and  C_4
REMARK    5  A    between atoms: C_7  and  C_8
REMARK    6  A    between atoms: N_14  and  N_15
REMARK                            x       y       z     vdW  Elec       q    Type
REMARK                         _______ _______ _______ _____ _____    ______ ____
ROOT
ATOM      1  C   UNL     1       2.377   7.391  19.054  0.00  0.00    +0.000 A 
ATOM      2  N   UNL     1       2.328   7.968  17.880  0.00  0.00    +0.000 NA
ATOM      3  N   UNL     1       1.625   9.145  18.034  0.00  0.00    +0.000 NA
ATOM      4  C   UNL     1       1.281   9.275  19.305  0.00  0.00    +0.000 A 
ATOM      5  N   UNL     1       1.703   8.145  19.981  0.00  0.00    +0.000 N 
ENDROOT
BRANCH   4   6
ATOM      6  C   UNL     1       0.538  10.389  19.886  0.00  0.00    +0.000 A 
ATOM      7  C   UNL     1      -0.766  10.666  19.461  0.00  0.00    +0.000 A 
ATOM      8  C   UNL     1      -1.473  11.721  20.041  0.00  0.00    +0.000 A 
ATOM      9  C   UNL     1      -0.853  12.473  21.022  0.00  0.00    +0.000 A 
ATOM     10  N   UNL     1       0.405  12.246  21.454  0.00  0.00    +0.000 NA
ATOM     11  C   UNL     1       1.074  11.220  20.867  0.00  0.00    +0.000 A 
ENDBRANCH   4   6
BRANCH   5  12
ATOM     12  N   UNL     1       1.448   7.797  21.361  0.00  0.00    +0.000 N 
ATOM     13  H   UNL     1       1.766   6.849  21.561  0.00  0.00    +0.000 HD
ATOM     14  H   UNL     1       2.000   8.396  21.978  0.00  0.00    +0.000 HD
ENDBRANCH   5  12
BRANCH   1  15
ATOM     15  S   UNL     1       3.096   5.873  19.444  0.00  0.00    +0.000 S 
BRANCH  15  17
ATOM     16  C   UNL     1       1.458   3.990  18.259  0.00  0.00    +0.000 C 
ATOM     17  C   UNL     1       2.692   4.856  17.980  0.00  0.00    +0.000 C 
BRANCH  17  18
ATOM     18  C   UNL     1       3.871   4.009  17.480  0.00  0.00    +0.000 C 
ATOM     19  O   UNL     1       3.821   2.777  17.561  0.00  0.00    +0.000 OA
ATOM     20  N   UNL     1       4.931   4.629  16.834  0.00  0.00    +0.000 N 
ATOM     21  C   UNL     1       5.140   6.066  16.620  0.00  0.00    +0.000 C 
ATOM     22  C   UNL     1       5.401   6.353  15.138  0.00  0.00    +0.000 C 
ATOM     23  O   UNL     1       6.489   5.565  14.633  0.00  0.00    +0.000 OA
ATOM     24  C   UNL     1       6.222   4.161  14.795  0.00  0.00    +0.000 C 
ATOM     25  C   UNL     1       6.006   3.806  16.270  0.00  0.00    +0.000 C 
ENDBRANCH  17  18
ENDBRANCH  15  17
ENDBRANCH   1  15
TORSDOF 5
ENDMDL
MODEL 5
REMARK VINA RESULT:      -6.7      3.927      8.324
REMARK  Name = 
REMARK  6 active torsions:
REMARK  status: ('A' for Active; 'I' for Inactive)
REMARK    1  A    between atoms: C_1  and  C_2
REMARK    2  A    between atoms: C_2  and  S_3
REMARK    3  A    between atoms: C_2  and  C_16
REMARK    4  A    between atoms: S_3  and  C_4
REMARK    5  A    between atoms: C_7  and  C_8
REMARK    6  A    between atoms: N_14  and  N_15
REMARK                            x       y       z     vdW  Elec       q    Type
REMARK                         _______ _______ _______ _____ _____    ______ ____
ROOT
ATOM      1  C   UNL     1       2.169   7.773  18.954  0.00  0.00    +0.000 A 
ATOM      2  N   UNL     1       2.498   8.092  17.728  0.00  0.00    +0.000 NA
ATOM      3  N   UNL     1       2.030   9.369  17.500  0.00  0.00    +0.000 NA
ATOM      4  C   UNL     1       1.446   9.814  18.601  0.00  0.00    +0.000 A 
ATOM      5  N   UNL     1       1.472   8.800  19.539  0.00  0.00    +0.000 N 
ENDROOT
BRANCH   4   6
ATOM      6  C   UNL     1       0.833  11.127  18.779  0.00  0.00    +0.000 A 
ATOM      7  C   UNL     1       1.621  12.239  19.091  0.00  0.00    +0.000 A 
ATOM      8  C   UNL     1       1.024  13.493  19.238  0.00  0.00    +0.000 A 
ATOM      9  C   UNL     1      -0.345  13.594  19.077  0.00  0.00    +0.000 A 
ATOM     10  N   UNL     1      -1.145  12.547  18.787  0.00  0.00    +0.000 NA
ATOM     11  C   UNL     1      -0.539  11.337  18.658  0.00  0.00    +0.000 A 
ENDBRANCH   4   6
BRANCH   5  12
ATOM     12  N   UNL     1       0.853   8.793  20.846  0.00  0.00    +0.000 N 
ATOM     13  H   UNL     1      -0.148   8.606  20.772  0.00  0.00    +0.000 HD
ATOM     14  H   UNL     1       1.225   8.021  21.402  0.00  0.00    +0.000 HD
ENDBRANCH   5  12
BRANCH   1  15
ATOM     15  S   UNL     1       2.463   6.278  19.762  0.00  0.00    +0.000 S 
BRANCH  15  17
ATOM     16  C   UNL     1       2.041   3.998  18.258  0.00  0.00    +0.000 C 
ATOM     17  C   UNL     1       2.998   5.189  18.395  0.00  0.00    +0.000 C 
BRANCH  17  18
ATOM     18  C   UNL     1       4.457   4.726  18.518  0.00  0.00    +0.000 C 
ATOM     19  O   UNL     1       4.744   3.799  19.282  0.00  0.00    +0.000 OA
ATOM     20  N   UNL     1       5.419   5.272  17.681  0.00  0.00    +0.000 N 
ATOM     21  C   UNL     1       5.252   6.348  16.697  0.00  0.00    +0.000 C 
ATOM     22  C   UNL     1       5.779   5.907  15.327  0.00  0.00    +0.000 C 
ATOM     23  O   UNL     1       7.138   5.452  15.409  0.00  0.00    +0.000 OA
ATOM     24  C   UNL     1       7.255   4.353  16.329  0.00  0.00    +0.000 C 
ATOM     25  C   UNL     1       6.790   4.755  17.733  0.00  0.00    +0.000 C 
ENDBRANCH  17  18
ENDBRANCH  15  17
ENDBRANCH   1  15
TORSDOF 5
ENDMDL
MODEL 6
REMARK VINA RESULT:      -6.7      4.037      8.253
REMARK  Name = 
REMARK  6 active torsions:
REMARK  status: ('A' for Active; 'I' for Inactive)
REMARK    1  A    between atoms: C_1  and  C_2
REMARK    2  A    between atoms: C_2  and  S_3
REMARK    3  A    between atoms: C_2  and  C_16
REMARK    4  A    between atoms: S_3  and  C_4
REMARK    5  A    between atoms: C_7  and  C_8
REMARK    6  A    between atoms: N_14  and  N_15
REMARK                            x       y       z     vdW  Elec       q    Type
REMARK                         _______ _______ _______ _____ _____    ______ ____
ROOT
ATOM      1  C   UNL     1       2.277   7.587  19.045  0.00  0.00    +0.000 A 
ATOM      2  N   UNL     1       2.552   7.880  17.800  0.00  0.00    +0.000 NA
ATOM      3  N   UNL     1       1.981   9.107  17.534  0.00  0.00    +0.000 NA
ATOM      4  C   UNL     1       1.390   9.551  18.631  0.00  0.00    +0.000 A 
ATOM      5  N   UNL     1       1.516   8.581  19.608  0.00  0.00    +0.000 N 
ENDROOT
BRANCH   4   6
ATOM      6  C   UNL     1       0.681  10.819  18.775  0.00  0.00    +0.000 A 
ATOM      7  C   UNL     1      -0.676  10.909  18.448  0.00  0.00    +0.000 A 
ATOM      8  C   UNL     1      -1.348  12.123  18.610  0.00  0.00    +0.000 A 
ATOM      9  C   UNL     1      -0.641  13.211  19.085  0.00  0.00    +0.000 A 
ATOM     10  N   UNL     1       0.671  13.171  19.403  0.00  0.00    +0.000 NA
ATOM     11  C   UNL     1       1.302  11.981  19.227  0.00  0.00    +0.000 A 
ENDBRANCH   4   6
BRANCH   5  12
ATOM     12  N   UNL     1       0.930   8.579  20.929  0.00  0.00    +0.000 N 
ATOM     13  H   UNL     1       1.206   9.412  21.450  0.00  0.00    +0.000 HD
ATOM     14  H   UNL     1      -0.088   8.638  20.858  0.00  0.00    +0.000 HD
ENDBRANCH   5  12
BRANCH   1  15
ATOM     15  S   UNL     1       2.705   6.153  19.902  0.00  0.00    +0.000 S 
BRANCH  15  17
ATOM     16  C   UNL     1       2.328   3.749  18.594  0.00  0.00    +0.000 C 
ATOM     17  C   UNL     1       3.189   5.017  18.555  0.00  0.00    +0.000 C 
BRANCH  17  18
ATOM     18  C   UNL     1       4.687   4.679  18.550  0.00  0.00    +0.000 C 
ATOM     19  O   UNL     1       5.129   3.837  19.338  0.00  0.00    +0.000 OA
ATOM     20  N   UNL     1       5.509   5.235  17.580  0.00  0.00    +0.000 N 
ATOM     21  C   UNL     1       5.151   6.220  16.552  0.00  0.00    +0.000 C 
ATOM     22  C   UNL     1       5.571   5.721  15.165  0.00  0.00    +0.000 C 
ATOM     23  O   UNL     1       6.965   5.381  15.129  0.00  0.00    +0.000 OA
ATOM     24  C   UNL     1       7.269   4.364  16.101  0.00  0.00    +0.000 C 
ATOM     25  C   UNL     1       6.917   4.832  17.518  0.00  0.00    +0.000 C 
ENDBRANCH  17  18
ENDBRANCH  15  17
ENDBRANCH   1  15
TORSDOF 5
ENDMDL
MODEL 7
REMARK VINA RESULT:      -6.7      6.654      8.582
REMARK  Name = 
REMARK  6 active torsions:
REMARK  status: ('A' for Active; 'I' for Inactive)
REMARK    1  A    between atoms: C_1  and  C_2
REMARK    2  A    between atoms: C_2  and  S_3
REMARK    3  A    between atoms: C_2  and  C_16
REMARK    4  A    between atoms: S_3  and  C_4
REMARK    5  A    between atoms: C_7  and  C_8
REMARK    6  A    between atoms: N_14  and  N_15
REMARK                            x       y       z     vdW  Elec       q    Type
REMARK                         _______ _______ _______ _____ _____    ______ ____
ROOT
ATOM      1  C   UNL     1       7.020   4.832  16.001  0.00  0.00    +0.000 A 
ATOM      2  N   UNL     1       7.597   5.690  15.199  0.00  0.00    +0.000 NA
ATOM      3  N   UNL     1       7.310   5.298  13.908  0.00  0.00    +0.000 NA
ATOM      4  C   UNL     1       6.541   4.221  13.949  0.00  0.00    +0.000 A 
ATOM      5  N   UNL     1       6.374   3.864  15.274  0.00  0.00    +0.000 N 
ENDROOT
BRANCH   4   6
ATOM      6  C   UNL     1       6.006   3.502  12.797  0.00  0.00    +0.000 A 
ATOM      7  C   UNL     1       6.801   2.580  12.109  0.00  0.00    +0.000 A 
ATOM      8  C   UNL     1       6.270   1.882  11.022  0.00  0.00    +0.000 A 
ATOM      9  C   UNL     1       4.962   2.134  10.651  0.00  0.00    +0.000 A 
ATOM     10  N   UNL     1       4.163   3.022  11.280  0.00  0.00    +0.000 NA
ATOM     11  C   UNL     1       4.708   3.693  12.328  0.00  0.00    +0.000 A 
ENDBRANCH   4   6
BRANCH   5  12
ATOM     12  N   UNL     1       5.707   2.691  15.793  0.00  0.00    +0.000 N 
ATOM     13  H   UNL     1       4.733   2.665  15.492  0.00  0.00    +0.000 HD
ATOM     14  H   UNL     1       6.128   1.848  15.398  0.00  0.00    +0.000 HD
ENDBRANCH   5  12
BRANCH   1  15
ATOM     15  S   UNL     1       7.077   4.808  17.725  0.00  0.00    +0.000 S 
BRANCH  15  17
ATOM     16  C   UNL     1       5.082   6.169  19.068  0.00  0.00    +0.000 C 
ATOM     17  C   UNL     1       5.312   4.939  18.181  0.00  0.00    +0.000 C 
BRANCH  17  18
ATOM     18  C   UNL     1       4.753   3.665  18.831  0.00  0.00    +0.000 C 
ATOM     19  O   UNL     1       5.345   3.152  19.786  0.00  0.00    +0.000 OA
ATOM     20  N   UNL     1       3.525   3.170  18.416  0.00  0.00    +0.000 N 
ATOM     21  C   UNL     1       2.674   3.667  17.329  0.00  0.00    +0.000 C 
ATOM     22  C   UNL     1       1.250   3.919  17.837  0.00  0.00    +0.000 C 
ATOM     23  O   UNL     1       0.702   2.751  18.466  0.00  0.00    +0.000 OA
ATOM     24  C   UNL     1       1.523   2.331  19.569  0.00  0.00    +0.000 C 
ATOM     25  C   UNL     1       2.949   2.013  19.108  0.00  0.00    +0.000 C 
ENDBRANCH  17  18
ENDBRANCH  15  17
ENDBRANCH   1  15
TORSDOF 5
ENDMDL
MODEL 8
REMARK VINA RESULT:      -6.6      1.101      1.106
REMARK  Name = 
REMARK  6 active torsions:
REMARK  status: ('A' for Active; 'I' for Inactive)
REMARK    1  A    between atoms: C_1  and  C_2
REMARK    2  A    between atoms: C_2  and  S_3
REMARK    3  A    between atoms: C_2  and  C_16
REMARK    4  A    between atoms: S_3  and  C_4
REMARK    5  A    between atoms: C_7  and  C_8
REMARK    6  A    between atoms: N_14  and  N_15
REMARK                            x       y       z     vdW  Elec       q    Type
REMARK                         _______ _______ _______ _____ _____    ______ ____
ROOT
ATOM      1  C   UNL     1       1.235   9.575  19.459  0.00  0.00    +0.000 A 
ATOM      2  N   UNL     1       1.530   9.395  18.196  0.00  0.00    +0.000 NA
ATOM      3  N   UNL     1       2.067   8.130  18.079  0.00  0.00    +0.000 NA
ATOM      4  C   UNL     1       2.065   7.553  19.270  0.00  0.00    +0.000 A 
ATOM      5  N   UNL     1       1.585   8.467  20.189  0.00  0.00    +0.000 N 
ENDROOT
BRANCH   4   6
ATOM      6  C   UNL     1       2.538   6.206  19.574  0.00  0.00    +0.000 A 
ATOM      7  C   UNL     1       1.768   5.349  20.368  0.00  0.00    +0.000 A 
ATOM      8  C   UNL     1       2.222   4.055  20.633  0.00  0.00    +0.000 A 
ATOM      9  C   UNL     1       3.437   3.661  20.104  0.00  0.00    +0.000 A 
ATOM     10  N   UNL     1       4.217   4.457  19.343  0.00  0.00    +0.000 NA
ATOM     11  C   UNL     1       3.755   5.713  19.108  0.00  0.00    +0.000 A 
ENDBRANCH   4   6
BRANCH   5  12
ATOM     12  N   UNL     1       1.511   8.317  21.625  0.00  0.00    +0.000 N 
ATOM     13  H   UNL     1       0.545   8.371  21.946  0.00  0.00    +0.000 HD
ATOM     14  H   UNL     1       1.827   7.383  21.894  0.00  0.00    +0.000 HD
ENDBRANCH   5  12
BRANCH   1  15
ATOM     15  S   UNL     1       0.575  10.991  20.188  0.00  0.00    +0.000 S 
BRANCH  15  17
ATOM     16  C   UNL     1       0.225  13.217  18.589  0.00  0.00    +0.000 C 
ATOM     17  C   UNL     1      -0.293  11.788  18.790  0.00  0.00    +0.000 C 
BRANCH  17  18
ATOM     18  C   UNL     1      -1.822  11.757  18.923  0.00  0.00    +0.000 C 
ATOM     19  O   UNL     1      -2.378  12.446  19.785  0.00  0.00    +0.000 OA
ATOM     20  N   UNL     1      -2.573  11.050  17.996  0.00  0.00    +0.000 N 
ATOM     21  C   UNL     1      -2.088  10.210  16.894  0.00  0.00    +0.000 C 
ATOM     22  C   UNL     1      -2.737  10.635  15.572  0.00  0.00    +0.000 C 
ATOM     23  O   UNL     1      -4.169  10.633  15.666  0.00  0.00    +0.000 OA
ATOM     24  C   UNL     1      -4.615  11.517  16.708  0.00  0.00    +0.000 C 
ATOM     25  C   UNL     1      -4.037  11.106  18.067  0.00  0.00    +0.000 C 
ENDBRANCH  17  18
ENDBRANCH  15  17
ENDBRANCH   1  15
TORSDOF 5
ENDMDL
MODEL 9
REMARK VINA RESULT:      -6.5      5.715      7.770
REMARK  Name = 
REMARK  6 active torsions:
REMARK  status: ('A' for Active; 'I' for Inactive)
REMARK    1  A    between atoms: C_1  and  C_2
REMARK    2  A    between atoms: C_2  and  S_3
REMARK    3  A    between atoms: C_2  and  C_16
REMARK    4  A    between atoms: S_3  and  C_4
REMARK    5  A    between atoms: C_7  and  C_8
REMARK    6  A    between atoms: N_14  and  N_15
REMARK                            x       y       z     vdW  Elec       q    Type
REMARK                         _______ _______ _______ _____ _____    ______ ____
ROOT
ATOM      1  C   UNL     1       6.367   5.492  16.627  0.00  0.00    +0.000 A 
ATOM      2  N   UNL     1       7.376   6.064  16.020  0.00  0.00    +0.000 NA
ATOM      3  N   UNL     1       7.436   5.538  14.746  0.00  0.00    +0.000 NA
ATOM      4  C   UNL     1       6.446   4.673  14.593  0.00  0.00    +0.000 A 
ATOM      5  N   UNL     1       5.769   4.580  15.794  0.00  0.00    +0.000 N 
ENDROOT
BRANCH   4   6
ATOM      6  C   UNL     1       6.150   3.908  13.386  0.00  0.00    +0.000 A 
ATOM      7  C   UNL     1       4.836   3.811  12.915  0.00  0.00    +0.000 A 
ATOM      8  C   UNL     1       4.570   3.094  11.747  0.00  0.00    +0.000 A 
ATOM      9  C   UNL     1       5.625   2.488  11.089  0.00  0.00    +0.000 A 
ATOM     10  N   UNL     1       6.905   2.548  11.513  0.00  0.00    +0.000 NA
ATOM     11  C   UNL     1       7.134   3.244  12.657  0.00  0.00    +0.000 A 
ENDBRANCH   4   6
BRANCH   5  12
ATOM     12  N   UNL     1       4.690   3.679  16.130  0.00  0.00    +0.000 N 
ATOM     13  H   UNL     1       4.814   2.777  15.671  0.00  0.00    +0.000 HD
ATOM     14  H   UNL     1       4.709   3.470  17.131  0.00  0.00    +0.000 HD
ENDBRANCH   5  12
BRANCH   1  15
ATOM     15  S   UNL     1       5.850   5.737  18.254  0.00  0.00    +0.000 S 
BRANCH  15  17
ATOM     16  C   UNL     1       3.782   7.359  17.401  0.00  0.00    +0.000 C 
ATOM     17  C   UNL     1       4.052   6.002  18.061  0.00  0.00    +0.000 C 
BRANCH  17  18
ATOM     18  C   UNL     1       3.268   5.849  19.373  0.00  0.00    +0.000 C 
ATOM     19  O   UNL     1       2.720   6.834  19.879  0.00  0.00    +0.000 OA
ATOM     20  N   UNL     1       3.082   4.585  19.914  0.00  0.00    +0.000 N 
ATOM     21  C   UNL     1       3.628   3.310  19.434  0.00  0.00    +0.000 C 
ATOM     22  C   UNL     1       2.505   2.282  19.257  0.00  0.00    +0.000 C 
ATOM     23  O   UNL     1       1.741   2.126  20.462  0.00  0.00    +0.000 OA
ATOM     24  C   UNL     1       1.164   3.379  20.868  0.00  0.00    +0.000 C 
ATOM     25  C   UNL     1       2.249   4.434  21.111  0.00  0.00    +0.000 C 
ENDBRANCH  17  18
ENDBRANCH  15  17
ENDBRANCH   1  15
TORSDOF 5
ENDMDL
