MODEL 1
REMARK VINA RESULT:      -9.2      0.000      0.000
REMARK  Name = 
REMARK  3 active torsions:
REMARK  status: ('A' for Active; 'I' for Inactive)
REMARK    1  A    between atoms: C_6  and  C_7
REMARK    2  A    between atoms: C_13  and  C_14
REMARK    3  A    between atoms: C_17  and  N_18
REMARK                            x       y       z     vdW  Elec       q    Type
REMARK                         _______ _______ _______ _____ _____    ______ ____
ROOT
ATOM      1  C   UNL     1       4.428   3.789  18.541  0.00  0.00    +0.000 A 
ATOM      2  C   UNL     1       4.295   2.605  19.261  0.00  0.00    +0.000 A 
ATOM      3  N   UNL     1       3.396   2.716  20.294  0.00  0.00    +0.000 NA
ATOM      4  C   UNL     1       2.967   3.953  20.203  0.00  0.00    +0.000 A 
ATOM      5  C   UNL     1       2.011   4.625  21.043  0.00  0.00    +0.000 A 
ATOM      6  N   UNL     1       1.664   5.867  20.836  0.00  0.00    +0.000 NA
ATOM      7  C   UNL     1       2.239   6.519  19.755  0.00  0.00    +0.000 A 
ATOM      8  C   UNL     1       3.129   5.947  18.922  0.00  0.00    +0.000 A 
ATOM      9  N   UNL     1       3.526   4.643  19.157  0.00  0.00    +0.000 N 
ENDROOT
BRANCH   1  15
ATOM     10  F   UNL     1       5.201   4.183  13.760  0.00  0.00    +0.000 F 
ATOM     11  C   UNL     1       5.666   4.305  15.010  0.00  0.00    +0.000 A 
ATOM     12  C   UNL     1       6.974   4.718  15.220  0.00  0.00    +0.000 A 
ATOM     13  C   UNL     1       7.447   4.841  16.523  0.00  0.00    +0.000 A 
ATOM     14  C   UNL     1       6.611   4.531  17.603  0.00  0.00    +0.000 A 
ATOM     15  C   UNL     1       5.288   4.103  17.396  0.00  0.00    +0.000 A 
ATOM     16  C   UNL     1       4.822   4.021  16.078  0.00  0.00    +0.000 A 
ENDBRANCH   1  15
BRANCH   7  17
ATOM     17  C   UNL     1       1.879   7.919  19.502  0.00  0.00    +0.000 A 
ATOM     18  C   UNL     1       1.225   8.674  20.476  0.00  0.00    +0.000 A 
ATOM     19  C   UNL     1       0.819   9.987  20.201  0.00  0.00    +0.000 A 
ATOM     20  C   UNL     1       1.053  10.590  18.955  0.00  0.00    +0.000 A 
ATOM     21  C   UNL     1       1.717   9.811  17.994  0.00  0.00    +0.000 A 
ATOM     22  C   UNL     1       2.124   8.498  18.255  0.00  0.00    +0.000 A 
BRANCH  20  23
ATOM     23  N   UNL     1       0.663  11.887  18.701  0.00  0.00    +0.000 N 
ATOM     24  C   UNL     1      -0.746  12.279  18.556  0.00  0.00    +0.000 C 
ATOM     25  C   UNL     1      -1.126  13.323  19.626  0.00  0.00    +0.000 C 
ATOM     26  N   UNL     1      -0.243  14.505  19.623  0.00  0.00    +0.000 NA
ATOM     27  C   UNL     1       1.158  14.064  19.782  0.00  0.00    +0.000 C 
ATOM     28  C   UNL     1       1.610  13.013  18.734  0.00  0.00    +0.000 C 
ATOM     29  H   UNL     1      -0.492  15.108  20.407  0.00  0.00    +0.000 HD
ENDBRANCH  20  23
ENDBRANCH   7  17
TORSDOF 3
ENDMDL
MODEL 2
REMARK VINA RESULT:      -9.0      0.737      1.075
REMARK  Name = 
REMARK  3 active torsions:
REMARK  status: ('A' for Active; 'I' for Inactive)
REMARK    1  A    between atoms: C_6  and  C_7
REMARK    2  A    between atoms: C_13  and  C_14
REMARK    3  A    between atoms: C_17  and  N_18
REMARK                            x       y       z     vdW  Elec       q    Type
REMARK                         _______ _______ _______ _____ _____    ______ ____
ROOT
ATOM      1  C   UNL     1       4.338   3.675  18.474  0.00  0.00    +0.000 A 
ATOM      2  C   UNL     1       4.203   2.398  19.010  0.00  0.00    +0.000 A 
ATOM      3  N   UNL     1       3.306   2.357  20.050  0.00  0.00    +0.000 NA
ATOM      4  C   UNL     1       2.880   3.594  20.144  0.00  0.00    +0.000 A 
ATOM      5  C   UNL     1       1.927   4.136  21.076  0.00  0.00    +0.000 A 
ATOM      6  N   UNL     1       1.582   5.396  21.056  0.00  0.00    +0.000 NA
ATOM      7  C   UNL     1       2.157   6.200  20.083  0.00  0.00    +0.000 A 
ATOM      8  C   UNL     1       3.044   5.755  19.173  0.00  0.00    +0.000 A 
ATOM      9  N   UNL     1       3.439   4.431  19.211  0.00  0.00    +0.000 N 
ENDROOT
BRANCH   1  15
ATOM     10  F   UNL     1       5.312   4.288  13.752  0.00  0.00    +0.000 F 
ATOM     11  C   UNL     1       5.675   4.464  15.030  0.00  0.00    +0.000 A 
ATOM     12  C   UNL     1       6.877   5.090  15.323  0.00  0.00    +0.000 A 
ATOM     13  C   UNL     1       7.245   5.266  16.654  0.00  0.00    +0.000 A 
ATOM     14  C   UNL     1       6.412   4.798  17.677  0.00  0.00    +0.000 A 
ATOM     15  C   UNL     1       5.198   4.154  17.386  0.00  0.00    +0.000 A 
ATOM     16  C   UNL     1       4.831   4.019  16.042  0.00  0.00    +0.000 A 
ENDBRANCH   1  15
BRANCH   7  17
ATOM     17  C   UNL     1       1.800   7.622  20.041  0.00  0.00    +0.000 A 
ATOM     18  C   UNL     1       1.272   8.259  21.164  0.00  0.00    +0.000 A 
ATOM     19  C   UNL     1       0.866   9.598  21.095  0.00  0.00    +0.000 A 
ATOM     20  C   UNL     1       0.973  10.345  19.912  0.00  0.00    +0.000 A 
ATOM     21  C   UNL     1       1.511   9.684  18.797  0.00  0.00    +0.000 A 
ATOM     22  C   UNL     1       1.918   8.346  18.852  0.00  0.00    +0.000 A 
BRANCH  20  23
ATOM     23  N   UNL     1       0.583  11.667  19.860  0.00  0.00    +0.000 N 
ATOM     24  C   UNL     1       0.787  12.509  18.673  0.00  0.00    +0.000 C 
ATOM     25  C   UNL     1      -0.565  13.021  18.138  0.00  0.00    +0.000 C 
ATOM     26  N   UNL     1      -1.365  13.726  19.160  0.00  0.00    +0.000 NA
ATOM     27  C   UNL     1      -1.552  12.838  20.325  0.00  0.00    +0.000 C 
ATOM     28  C   UNL     1      -0.229  12.288  20.918  0.00  0.00    +0.000 C 
ATOM     29  H   UNL     1      -2.277  13.957  18.767  0.00  0.00    +0.000 HD
ENDBRANCH  20  23
ENDBRANCH   7  17
TORSDOF 3
ENDMDL
MODEL 3
REMARK VINA RESULT:      -8.9      1.210      1.648
REMARK  Name = 
REMARK  3 active torsions:
REMARK  status: ('A' for Active; 'I' for Inactive)
REMARK    1  A    between atoms: C_6  and  C_7
REMARK    2  A    between atoms: C_13  and  C_14
REMARK    3  A    between atoms: C_17  and  N_18
REMARK                            x       y       z     vdW  Elec       q    Type
REMARK                         _______ _______ _______ _____ _____    ______ ____
ROOT
ATOM      1  C   UNL     1       4.382   3.766  18.428  0.00  0.00    +0.000 A 
ATOM      2  C   UNL     1       4.227   2.475  18.923  0.00  0.00    +0.000 A 
ATOM      3  N   UNL     1       3.289   2.405  19.925  0.00  0.00    +0.000 NA
ATOM      4  C   UNL     1       2.859   3.639  20.036  0.00  0.00    +0.000 A 
ATOM      5  C   UNL     1       1.869   4.157  20.944  0.00  0.00    +0.000 A 
ATOM      6  N   UNL     1       1.525   5.416  20.945  0.00  0.00    +0.000 NA
ATOM      7  C   UNL     1       2.137   6.247  20.018  0.00  0.00    +0.000 A 
ATOM      8  C   UNL     1       3.060   5.827  19.132  0.00  0.00    +0.000 A 
ATOM      9  N   UNL     1       3.454   4.501  19.149  0.00  0.00    +0.000 N 
ENDROOT
BRANCH   1  15
ATOM     10  F   UNL     1       7.818   6.833  16.878  0.00  0.00    +0.000 F 
ATOM     11  C   UNL     1       7.003   5.802  16.623  0.00  0.00    +0.000 A 
ATOM     12  C   UNL     1       7.003   5.221  15.363  0.00  0.00    +0.000 A 
ATOM     13  C   UNL     1       6.151   4.151  15.109  0.00  0.00    +0.000 A 
ATOM     14  C   UNL     1       5.295   3.684  16.113  0.00  0.00    +0.000 A 
ATOM     15  C   UNL     1       5.284   4.274  17.388  0.00  0.00    +0.000 A 
ATOM     16  C   UNL     1       6.174   5.326  17.633  0.00  0.00    +0.000 A 
ENDBRANCH   1  15
BRANCH   7  17
ATOM     17  C   UNL     1       1.782   7.670  20.001  0.00  0.00    +0.000 A 
ATOM     18  C   UNL     1       1.261   8.288  21.138  0.00  0.00    +0.000 A 
ATOM     19  C   UNL     1       0.855   9.629  21.092  0.00  0.00    +0.000 A 
ATOM     20  C   UNL     1       0.957  10.395  19.921  0.00  0.00    +0.000 A 
ATOM     21  C   UNL     1       1.488   9.752  18.793  0.00  0.00    +0.000 A 
ATOM     22  C   UNL     1       1.894   8.413  18.824  0.00  0.00    +0.000 A 
BRANCH  20  23
ATOM     23  N   UNL     1       0.568  11.718  19.893  0.00  0.00    +0.000 N 
ATOM     24  C   UNL     1       0.695  12.558  18.694  0.00  0.00    +0.000 C 
ATOM     25  C   UNL     1      -0.688  13.072  18.249  0.00  0.00    +0.000 C 
ATOM     26  N   UNL     1      -1.416  13.781  19.320  0.00  0.00    +0.000 NA
ATOM     27  C   UNL     1      -1.529  12.896  20.497  0.00  0.00    +0.000 C 
ATOM     28  C   UNL     1      -0.170  12.343  21.002  0.00  0.00    +0.000 C 
ATOM     29  H   UNL     1      -2.352  14.014  18.988  0.00  0.00    +0.000 HD
ENDBRANCH  20  23
ENDBRANCH   7  17
TORSDOF 3
ENDMDL
MODEL 4
REMARK VINA RESULT:      -8.7      0.623      1.184
REMARK  Name = 
REMARK  3 active torsions:
REMARK  status: ('A' for Active; 'I' for Inactive)
REMARK    1  A    between atoms: C_6  and  C_7
REMARK    2  A    between atoms: C_13  and  C_14
REMARK    3  A    between atoms: C_17  and  N_18
REMARK                            x       y       z     vdW  Elec       q    Type
REMARK                         _______ _______ _______ _____ _____    ______ ____
ROOT
ATOM      1  C   UNL     1       4.256   3.709  18.638  0.00  0.00    +0.000 A 
ATOM      2  C   UNL     1       4.059   2.510  19.315  0.00  0.00    +0.000 A 
ATOM      3  N   UNL     1       3.115   2.616  20.308  0.00  0.00    +0.000 NA
ATOM      4  C   UNL     1       2.723   3.866  20.234  0.00  0.00    +0.000 A 
ATOM      5  C   UNL     1       1.746   4.539  21.048  0.00  0.00    +0.000 A 
ATOM      6  N   UNL     1       1.442   5.795  20.863  0.00  0.00    +0.000 NA
ATOM      7  C   UNL     1       2.083   6.463  19.830  0.00  0.00    +0.000 A 
ATOM      8  C   UNL     1       2.996   5.890  19.022  0.00  0.00    +0.000 A 
ATOM      9  N   UNL     1       3.349   4.570  19.236  0.00  0.00    +0.000 N 
ENDROOT
BRANCH   1  15
ATOM     10  F   UNL     1       5.277   4.176  13.909  0.00  0.00    +0.000 F 
ATOM     11  C   UNL     1       5.679   4.271  15.184  0.00  0.00    +0.000 A 
ATOM     12  C   UNL     1       6.978   4.665  15.467  0.00  0.00    +0.000 A 
ATOM     13  C   UNL     1       7.385   4.759  16.795  0.00  0.00    +0.000 A 
ATOM     14  C   UNL     1       6.492   4.441  17.825  0.00  0.00    +0.000 A 
ATOM     15  C   UNL     1       5.177   4.033  17.543  0.00  0.00    +0.000 A 
ATOM     16  C   UNL     1       4.778   3.979  16.202  0.00  0.00    +0.000 A 
ENDBRANCH   1  15
BRANCH   7  17
ATOM     17  C   UNL     1       1.772   7.878  19.602  0.00  0.00    +0.000 A 
ATOM     18  C   UNL     1       2.062   8.484  18.380  0.00  0.00    +0.000 A 
ATOM     19  C   UNL     1       1.830   9.854  18.195  0.00  0.00    +0.000 A 
ATOM     20  C   UNL     1       1.301  10.661  19.214  0.00  0.00    +0.000 A 
ATOM     21  C   UNL     1       1.013  10.027  20.432  0.00  0.00    +0.000 A 
ATOM     22  C   UNL     1       1.244   8.661  20.631  0.00  0.00    +0.000 A 
BRANCH  20  23
ATOM     23  N   UNL     1       1.063  12.004  19.015  0.00  0.00    +0.000 N 
ATOM     24  C   UNL     1       0.135  12.779  19.851  0.00  0.00    +0.000 C 
ATOM     25  C   UNL     1       0.879  13.931  20.555  0.00  0.00    +0.000 C 
ATOM     26  N   UNL     1       1.610  14.808  19.618  0.00  0.00    +0.000 NA
ATOM     27  C   UNL     1       2.535  13.989  18.810  0.00  0.00    +0.000 C 
ATOM     28  C   UNL     1       1.852  12.810  18.069  0.00  0.00    +0.000 C 
ATOM     29  H   UNL     1       2.148  15.489  20.152  0.00  0.00    +0.000 HD
ENDBRANCH  20  23
ENDBRANCH   7  17
TORSDOF 3
ENDMDL
MODEL 5
REMARK VINA RESULT:      -8.7      1.210      1.981
REMARK  Name = 
REMARK  3 active torsions:
REMARK  status: ('A' for Active; 'I' for Inactive)
REMARK    1  A    between atoms: C_6  and  C_7
REMARK    2  A    between atoms: C_13  and  C_14
REMARK    3  A    between atoms: C_17  and  N_18
REMARK                            x       y       z     vdW  Elec       q    Type
REMARK                         _______ _______ _______ _____ _____    ______ ____
ROOT
ATOM      1  C   UNL     1       4.546   3.805  18.601  0.00  0.00    +0.000 A 
ATOM      2  C   UNL     1       4.517   2.528  19.153  0.00  0.00    +0.000 A 
ATOM      3  N   UNL     1       3.615   2.423  20.185  0.00  0.00    +0.000 NA
ATOM      4  C   UNL     1       3.083   3.620  20.258  0.00  0.00    +0.000 A 
ATOM      5  C   UNL     1       2.076   4.090  21.173  0.00  0.00    +0.000 A 
ATOM      6  N   UNL     1       1.625   5.314  21.133  0.00  0.00    +0.000 NA
ATOM      7  C   UNL     1       2.138   6.153  20.154  0.00  0.00    +0.000 A 
ATOM      8  C   UNL     1       3.070   5.774  19.258  0.00  0.00    +0.000 A 
ATOM      9  N   UNL     1       3.578   4.489  19.319  0.00  0.00    +0.000 N 
ENDROOT
BRANCH   1  15
ATOM     10  F   UNL     1       7.853   6.929  16.892  0.00  0.00    +0.000 F 
ATOM     11  C   UNL     1       7.028   5.898  16.669  0.00  0.00    +0.000 A 
ATOM     12  C   UNL     1       6.945   5.346  15.399  0.00  0.00    +0.000 A 
ATOM     13  C   UNL     1       6.083   4.275  15.179  0.00  0.00    +0.000 A 
ATOM     14  C   UNL     1       5.300   3.780  16.228  0.00  0.00    +0.000 A 
ATOM     15  C   UNL     1       5.372   4.342  17.514  0.00  0.00    +0.000 A 
ATOM     16  C   UNL     1       6.272   5.395  17.722  0.00  0.00    +0.000 A 
ENDBRANCH   1  15
BRANCH   7  17
ATOM     17  C   UNL     1       1.660   7.538  20.089  0.00  0.00    +0.000 A 
ATOM     18  C   UNL     1       1.800   8.286  18.919  0.00  0.00    +0.000 A 
ATOM     19  C   UNL     1       1.408   9.631  18.887  0.00  0.00    +0.000 A 
ATOM     20  C   UNL     1       0.864  10.272  20.011  0.00  0.00    +0.000 A 
ATOM     21  C   UNL     1       0.730   9.498  21.174  0.00  0.00    +0.000 A 
ATOM     22  C   UNL     1       1.121   8.154  21.220  0.00  0.00    +0.000 A 
BRANCH  20  23
ATOM     23  N   UNL     1       0.469  11.592  19.963  0.00  0.00    +0.000 N 
ATOM     24  C   UNL     1       1.401  12.691  19.678  0.00  0.00    +0.000 C 
ATOM     25  C   UNL     1       0.968  13.447  18.406  0.00  0.00    +0.000 C 
ATOM     26  N   UNL     1      -0.424  13.934  18.466  0.00  0.00    +0.000 NA
ATOM     27  C   UNL     1      -1.323  12.795  18.742  0.00  0.00    +0.000 C 
ATOM     28  C   UNL     1      -0.948  11.989  20.013  0.00  0.00    +0.000 C 
ATOM     29  H   UNL     1      -0.673  14.342  17.566  0.00  0.00    +0.000 HD
ENDBRANCH  20  23
ENDBRANCH   7  17
TORSDOF 3
ENDMDL
MODEL 6
REMARK VINA RESULT:      -8.6      1.238      1.619
REMARK  Name = 
REMARK  3 active torsions:
REMARK  status: ('A' for Active; 'I' for Inactive)
REMARK    1  A    between atoms: C_6  and  C_7
REMARK    2  A    between atoms: C_13  and  C_14
REMARK    3  A    between atoms: C_17  and  N_18
REMARK                            x       y       z     vdW  Elec       q    Type
REMARK                         _______ _______ _______ _____ _____    ______ ____
ROOT
ATOM      1  C   UNL     1       4.340   3.848  18.494  0.00  0.00    +0.000 A 
ATOM      2  C   UNL     1       4.189   2.562  19.005  0.00  0.00    +0.000 A 
ATOM      3  N   UNL     1       3.254   2.502  20.010  0.00  0.00    +0.000 NA
ATOM      4  C   UNL     1       2.823   3.737  20.109  0.00  0.00    +0.000 A 
ATOM      5  C   UNL     1       1.835   4.263  21.013  0.00  0.00    +0.000 A 
ATOM      6  N   UNL     1       1.488   5.522  21.002  0.00  0.00    +0.000 NA
ATOM      7  C   UNL     1       2.096   6.343  20.063  0.00  0.00    +0.000 A 
ATOM      8  C   UNL     1       3.017   5.914  19.178  0.00  0.00    +0.000 A 
ATOM      9  N   UNL     1       3.413   4.590  19.210  0.00  0.00    +0.000 N 
ENDROOT
BRANCH   1  15
ATOM     10  F   UNL     1       7.836   6.838  16.927  0.00  0.00    +0.000 F 
ATOM     11  C   UNL     1       6.986   5.834  16.672  0.00  0.00    +0.000 A 
ATOM     12  C   UNL     1       6.947   5.273  15.404  0.00  0.00    +0.000 A 
ATOM     13  C   UNL     1       6.059   4.232  15.149  0.00  0.00    +0.000 A 
ATOM     14  C   UNL     1       5.208   3.775  16.162  0.00  0.00    +0.000 A 
ATOM     15  C   UNL     1       5.237   4.345  17.446  0.00  0.00    +0.000 A 
ATOM     16  C   UNL     1       6.162   5.368  17.690  0.00  0.00    +0.000 A 
ENDBRANCH   1  15
BRANCH   7  17
ATOM     17  C   UNL     1       1.738   7.765  20.030  0.00  0.00    +0.000 A 
ATOM     18  C   UNL     1       1.249   8.403  21.170  0.00  0.00    +0.000 A 
ATOM     19  C   UNL     1       0.840   9.742  21.113  0.00  0.00    +0.000 A 
ATOM     20  C   UNL     1       0.906  10.488  19.925  0.00  0.00    +0.000 A 
ATOM     21  C   UNL     1       1.405   9.825  18.794  0.00  0.00    +0.000 A 
ATOM     22  C   UNL     1       1.814   8.487  18.837  0.00  0.00    +0.000 A 
BRANCH  20  23
ATOM     23  N   UNL     1       0.515  11.809  19.884  0.00  0.00    +0.000 N 
ATOM     24  C   UNL     1       0.334  12.622  21.095  0.00  0.00    +0.000 C 
ATOM     25  C   UNL     1       1.286  13.834  21.076  0.00  0.00    +0.000 C 
ATOM     26  N   UNL     1       1.152  14.658  19.858  0.00  0.00    +0.000 NA
ATOM     27  C   UNL     1       1.353  13.803  18.671  0.00  0.00    +0.000 C 
ATOM     28  C   UNL     1       0.423  12.562  18.623  0.00  0.00    +0.000 C 
ATOM     29  H   UNL     1       1.867  15.385  19.868  0.00  0.00    +0.000 HD
ENDBRANCH  20  23
ENDBRANCH   7  17
TORSDOF 3
ENDMDL
MODEL 7
REMARK VINA RESULT:      -8.6      1.023      1.583
REMARK  Name = 
REMARK  3 active torsions:
REMARK  status: ('A' for Active; 'I' for Inactive)
REMARK    1  A    between atoms: C_6  and  C_7
REMARK    2  A    between atoms: C_13  and  C_14
REMARK    3  A    between atoms: C_17  and  N_18
REMARK                            x       y       z     vdW  Elec       q    Type
REMARK                         _______ _______ _______ _____ _____    ______ ____
ROOT
ATOM      1  C   UNL     1       4.471   3.973  18.596  0.00  0.00    +0.000 A 
ATOM      2  C   UNL     1       4.373   2.767  19.283  0.00  0.00    +0.000 A 
ATOM      3  N   UNL     1       3.443   2.811  20.293  0.00  0.00    +0.000 NA
ATOM      4  C   UNL     1       2.960   4.028  20.220  0.00  0.00    +0.000 A 
ATOM      5  C   UNL     1       1.952   4.635  21.049  0.00  0.00    +0.000 A 
ATOM      6  N   UNL     1       1.554   5.864  20.863  0.00  0.00    +0.000 NA
ATOM      7  C   UNL     1       2.126   6.569  19.814  0.00  0.00    +0.000 A 
ATOM      8  C   UNL     1       3.063   6.059  18.992  0.00  0.00    +0.000 A 
ATOM      9  N   UNL     1       3.514   4.770  19.207  0.00  0.00    +0.000 N 
ENDROOT
BRANCH   1  15
ATOM     10  F   UNL     1       7.853   6.842  16.609  0.00  0.00    +0.000 F 
ATOM     11  C   UNL     1       7.038   5.785  16.499  0.00  0.00    +0.000 A 
ATOM     12  C   UNL     1       7.012   5.056  15.318  0.00  0.00    +0.000 A 
ATOM     13  C   UNL     1       6.161   3.960  15.214  0.00  0.00    +0.000 A 
ATOM     14  C   UNL     1       5.330   3.615  16.287  0.00  0.00    +0.000 A 
ATOM     15  C   UNL     1       5.345   4.355  17.482  0.00  0.00    +0.000 A 
ATOM     16  C   UNL     1       6.235   5.432  17.578  0.00  0.00    +0.000 A 
ENDBRANCH   1  15
BRANCH   7  17
ATOM     17  C   UNL     1       1.709   7.957  19.584  0.00  0.00    +0.000 A 
ATOM     18  C   UNL     1       1.920   8.570  18.349  0.00  0.00    +0.000 A 
ATOM     19  C   UNL     1       1.585   9.918  18.160  0.00  0.00    +0.000 A 
ATOM     20  C   UNL     1       1.030  10.695  19.188  0.00  0.00    +0.000 A 
ATOM     21  C   UNL     1       0.823  10.055  20.420  0.00  0.00    +0.000 A 
ATOM     22  C   UNL     1       1.156   8.710  20.622  0.00  0.00    +0.000 A 
BRANCH  20  23
ATOM     23  N   UNL     1       0.691  12.016  18.986  0.00  0.00    +0.000 N 
ATOM     24  C   UNL     1      -0.602  12.578  19.402  0.00  0.00    +0.000 C 
ATOM     25  C   UNL     1      -0.391  13.718  20.417  0.00  0.00    +0.000 C 
ATOM     26  N   UNL     1       0.514  14.775  19.923  0.00  0.00    +0.000 NA
ATOM     27  C   UNL     1       1.800  14.167  19.529  0.00  0.00    +0.000 C 
ATOM     28  C   UNL     1       1.663  13.011  18.504  0.00  0.00    +0.000 C 
ATOM     29  H   UNL     1       0.679  15.448  20.671  0.00  0.00    +0.000 HD
ENDBRANCH  20  23
ENDBRANCH   7  17
TORSDOF 3
ENDMDL
MODEL 8
REMARK VINA RESULT:      -8.5      2.933      9.187
REMARK  Name = 
REMARK  3 active torsions:
REMARK  status: ('A' for Active; 'I' for Inactive)
REMARK    1  A    between atoms: C_6  and  C_7
REMARK    2  A    between atoms: C_13  and  C_14
REMARK    3  A    between atoms: C_17  and  N_18
REMARK                            x       y       z     vdW  Elec       q    Type
REMARK                         _______ _______ _______ _____ _____    ______ ____
ROOT
ATOM      1  C   UNL     1      -2.317  12.030  19.502  0.00  0.00    +0.000 A 
ATOM      2  C   UNL     1      -2.549  13.060  20.408  0.00  0.00    +0.000 A 
ATOM      3  N   UNL     1      -1.671  13.040  21.464  0.00  0.00    +0.000 NA
ATOM      4  C   UNL     1      -0.894  12.015  21.204  0.00  0.00    +0.000 A 
ATOM      5  C   UNL     1       0.208  11.516  21.984  0.00  0.00    +0.000 A 
ATOM      6  N   UNL     1       0.910  10.482  21.604  0.00  0.00    +0.000 NA
ATOM      7  C   UNL     1       0.568   9.886  20.399  0.00  0.00    +0.000 A 
ATOM      8  C   UNL     1      -0.441  10.309  19.614  0.00  0.00    +0.000 A 
ATOM      9  N   UNL     1      -1.210  11.381  20.028  0.00  0.00    +0.000 N 
ENDROOT
BRANCH   1  15
ATOM     10  F   UNL     1      -2.379  10.547  14.874  0.00  0.00    +0.000 F 
ATOM     11  C   UNL     1      -3.056  10.933  15.963  0.00  0.00    +0.000 A 
ATOM     12  C   UNL     1      -4.440  11.015  15.919  0.00  0.00    +0.000 A 
ATOM     13  C   UNL     1      -5.134  11.418  17.056  0.00  0.00    +0.000 A 
ATOM     14  C   UNL     1      -4.433  11.752  18.221  0.00  0.00    +0.000 A 
ATOM     15  C   UNL     1      -3.031  11.680  18.269  0.00  0.00    +0.000 A 
ATOM     16  C   UNL     1      -2.355  11.239  17.125  0.00  0.00    +0.000 A 
ENDBRANCH   1  15
BRANCH   7  17
ATOM     17  C   UNL     1       1.329   8.715  19.949  0.00  0.00    +0.000 A 
ATOM     18  C   UNL     1       1.870   8.668  18.664  0.00  0.00    +0.000 A 
ATOM     19  C   UNL     1       2.533   7.517  18.216  0.00  0.00    +0.000 A 
ATOM     20  C   UNL     1       2.681   6.383  19.029  0.00  0.00    +0.000 A 
ATOM     21  C   UNL     1       2.132   6.457  20.318  0.00  0.00    +0.000 A 
ATOM     22  C   UNL     1       1.465   7.599  20.777  0.00  0.00    +0.000 A 
BRANCH  20  23
ATOM     23  N   UNL     1       3.348   5.262  18.582  0.00  0.00    +0.000 N 
ATOM     24  C   UNL     1       4.639   5.331  17.883  0.00  0.00    +0.000 C 
ATOM     25  C   UNL     1       5.719   4.563  18.670  0.00  0.00    +0.000 C 
ATOM     26  N   UNL     1       5.344   3.164  18.956  0.00  0.00    +0.000 NA
ATOM     27  C   UNL     1       4.050   3.145  19.667  0.00  0.00    +0.000 C 
ATOM     28  C   UNL     1       2.913   3.899  18.928  0.00  0.00    +0.000 C 
ATOM     29  H   UNL     1       6.057   2.744  19.551  0.00  0.00    +0.000 HD
ENDBRANCH  20  23
ENDBRANCH   7  17
TORSDOF 3
ENDMDL
MODEL 9
REMARK VINA RESULT:      -8.4      2.879      9.123
REMARK  Name = 
REMARK  3 active torsions:
REMARK  status: ('A' for Active; 'I' for Inactive)
REMARK    1  A    between atoms: C_6  and  C_7
REMARK    2  A    between atoms: C_13  and  C_14
REMARK    3  A    between atoms: C_17  and  N_18
REMARK                            x       y       z     vdW  Elec       q    Type
REMARK                         _______ _______ _______ _____ _____    ______ ____
ROOT
ATOM      1  C   UNL     1      -2.018  11.840  19.505  0.00  0.00    +0.000 A 
ATOM      2  C   UNL     1      -2.154  12.876  20.425  0.00  0.00    +0.000 A 
ATOM      3  N   UNL     1      -1.239  12.796  21.447  0.00  0.00    +0.000 NA
ATOM      4  C   UNL     1      -0.535  11.728  21.152  0.00  0.00    +0.000 A 
ATOM      5  C   UNL     1       0.563  11.159  21.887  0.00  0.00    +0.000 A 
ATOM      6  N   UNL     1       1.187  10.088  21.476  0.00  0.00    +0.000 NA
ATOM      7  C   UNL     1       0.765   9.522  20.282  0.00  0.00    +0.000 A 
ATOM      8  C   UNL     1      -0.245  10.010  19.538  0.00  0.00    +0.000 A 
ATOM      9  N   UNL     1      -0.933  11.123  19.986  0.00  0.00    +0.000 N 
ENDROOT
BRANCH   1  15
ATOM     10  F   UNL     1      -2.335  10.465  14.855  0.00  0.00    +0.000 F 
ATOM     11  C   UNL     1      -2.950  10.849  15.981  0.00  0.00    +0.000 A 
ATOM     12  C   UNL     1      -4.331  10.978  16.001  0.00  0.00    +0.000 A 
ATOM     13  C   UNL     1      -4.960  11.378  17.176  0.00  0.00    +0.000 A 
ATOM     14  C   UNL     1      -4.197  11.662  18.316  0.00  0.00    +0.000 A 
ATOM     15  C   UNL     1      -2.797  11.542  18.299  0.00  0.00    +0.000 A 
ATOM     16  C   UNL     1      -2.189  11.104  17.116  0.00  0.00    +0.000 A 
ENDBRANCH   1  15
BRANCH   7  17
ATOM     17  C   UNL     1       1.438   8.311  19.797  0.00  0.00    +0.000 A 
ATOM     18  C   UNL     1       1.539   7.180  20.606  0.00  0.00    +0.000 A 
ATOM     19  C   UNL     1       2.246   6.053  20.165  0.00  0.00    +0.000 A 
ATOM     20  C   UNL     1       2.871   6.015  18.909  0.00  0.00    +0.000 A 
ATOM     21  C   UNL     1       2.752   7.164  18.112  0.00  0.00    +0.000 A 
ATOM     22  C   UNL     1       2.050   8.297  18.542  0.00  0.00    +0.000 A 
BRANCH  20  23
ATOM     23  N   UNL     1       3.552   4.896  18.479  0.00  0.00    +0.000 N 
ATOM     24  C   UNL     1       4.721   4.357  19.187  0.00  0.00    +0.000 C 
ATOM     25  C   UNL     1       4.449   2.913  19.654  0.00  0.00    +0.000 C 
ATOM     26  N   UNL     1       4.032   2.017  18.557  0.00  0.00    +0.000 NA
ATOM     27  C   UNL     1       2.850   2.593  17.884  0.00  0.00    +0.000 C 
ATOM     28  C   UNL     1       3.055   4.047  17.384  0.00  0.00    +0.000 C 
ATOM     29  H   UNL     1       3.783   1.109  18.945  0.00  0.00    +0.000 HD
ENDBRANCH  20  23
ENDBRANCH   7  17
TORSDOF 3
ENDMDL
