MODEL 1
REMARK VINA RESULT:      -9.0      0.000      0.000
REMARK  Name = 
REMARK  11 active torsions:
REMARK  status: ('A' for Active; 'I' for Inactive)
REMARK    1  A    between atoms: C_1  and  N_2
REMARK    2  A    between atoms: N_2  and  C_3
REMARK    3  A    between atoms: C_4  and  C_6
REMARK    4  A    between atoms: C_10  and  N_11
REMARK    5  A    between atoms: N_11  and  C_12
REMARK    6  A    between atoms: C_13  and  N_14
REMARK    7  A    between atoms: N_14  and  C_15
REMARK    8  A    between atoms: C_15  and  C_16
REMARK    9  A    between atoms: C_15  and  C_21
REMARK   10  A    between atoms: C_16  and  C_17
REMARK   11  A    between atoms: C_30  and  O_31
REMARK                            x       y       z     vdW  Elec       q    Type
REMARK                         _______ _______ _______ _____ _____    ______ ____
ROOT
ATOM      1  C   UNL     1       2.870   4.539  19.412  0.00  0.00    +0.000 C 
ATOM      2  C   UNL     1       3.592   3.715  18.573  0.00  0.00    +0.000 C 
ATOM      3  C   UNL     1       2.380   2.905  18.260  0.00  0.00    +0.000 C 
ATOM      4  O   UNL     1       2.066   1.955  17.561  0.00  0.00    +0.000 OA
ATOM      5  C   UNL     1       1.663   3.669  19.312  0.00  0.00    +0.000 C 
ATOM      6  O   UNL     1       0.574   3.586  19.818  0.00  0.00    +0.000 OA
ENDROOT
BRANCH   1   7
ATOM      7  N   UNL     1       3.010   5.679  20.095  0.00  0.00    +0.000 N 
ATOM      8  H   UNL     1       2.597   5.701  21.031  0.00  0.00    +0.000 HD
BRANCH   7  13
ATOM      9  C   UNL     1       1.374   9.073  19.585  0.00  0.00    +0.000 A 
ATOM     10  C   UNL     1       1.671   9.241  18.215  0.00  0.00    +0.000 A 
ATOM     11  C   UNL     1       2.455   8.326  17.509  0.00  0.00    +0.000 A 
ATOM     12  C   UNL     1       2.908   7.172  18.139  0.00  0.00    +0.000 A 
ATOM     13  C   UNL     1       2.625   6.943  19.494  0.00  0.00    +0.000 A 
ATOM     14  C   UNL     1       1.922   7.945  20.230  0.00  0.00    +0.000 A 
BRANCH   9  18
ATOM     15  C   UNL     1      -0.841  12.052  20.704  0.00  0.00    +0.000 C 
ATOM     16  N   UNL     1       0.287  11.381  20.060  0.00  0.00    +0.000 N 
ATOM     17  C   UNL     1       1.383  12.228  19.647  0.00  0.00    +0.000 C 
ATOM     18  C   UNL     1       0.273   9.983  20.075  0.00  0.00    +0.000 C 
ATOM     19  O   UNL     1      -0.725   9.401  20.523  0.00  0.00    +0.000 OA
ENDBRANCH   9  18
BRANCH  14  20
ATOM     20  O   UNL     1       1.811   7.768  21.583  0.00  0.00    +0.000 OA
ATOM     21  H   UNL     1       2.493   8.300  22.020  0.00  0.00    +0.000 HD
ENDBRANCH  14  20
ENDBRANCH   7  13
ENDBRANCH   1   7
BRANCH   2  22
ATOM     22  N   UNL     1       4.791   3.607  18.052  0.00  0.00    +0.000 N 
ATOM     23  H   UNL     1       5.409   2.837  18.306  0.00  0.00    +0.000 HD
BRANCH  22  24
ATOM     24  C   UNL     1       5.413   4.564  17.114  0.00  0.00    +0.000 C 
BRANCH  24  25
ATOM     25  C   UNL     1       6.575   5.350  17.682  0.00  0.00    +0.000 A 
ATOM     26  C   UNL     1       7.127   6.587  17.404  0.00  0.00    +0.000 A 
ATOM     27  C   UNL     1       7.965   6.906  18.502  0.00  0.00    +0.000 A 
ATOM     28  C   UNL     1       7.948   5.810  19.330  0.00  0.00    +0.000 A 
ATOM     29  O   UNL     1       7.131   4.850  18.827  0.00  0.00    +0.000 OA
ENDBRANCH  24  25
BRANCH  24  30
ATOM     30  C   UNL     1       5.874   3.812  15.869  0.00  0.00    +0.000 C 
BRANCH  30  31
ATOM     31  C   UNL     1       5.808   4.667  14.623  0.00  0.00    +0.000 C 
ATOM     32  F   UNL     1       5.221   4.067  13.564  0.00  0.00    +0.000 F 
ATOM     33  F   UNL     1       5.096   5.793  14.865  0.00  0.00    +0.000 F 
ATOM     34  F   UNL     1       7.045   5.054  14.236  0.00  0.00    +0.000 F 
ENDBRANCH  30  31
ENDBRANCH  24  30
ENDBRANCH  22  24
ENDBRANCH   2  22
TORSDOF 9
ENDMDL
MODEL 2
REMARK VINA RESULT:      -9.0      0.719      1.092
REMARK  Name = 
REMARK  11 active torsions:
REMARK  status: ('A' for Active; 'I' for Inactive)
REMARK    1  A    between atoms: C_1  and  N_2
REMARK    2  A    between atoms: N_2  and  C_3
REMARK    3  A    between atoms: C_4  and  C_6
REMARK    4  A    between atoms: C_10  and  N_11
REMARK    5  A    between atoms: N_11  and  C_12
REMARK    6  A    between atoms: C_13  and  N_14
REMARK    7  A    between atoms: N_14  and  C_15
REMARK    8  A    between atoms: C_15  and  C_16
REMARK    9  A    between atoms: C_15  and  C_21
REMARK   10  A    between atoms: C_16  and  C_17
REMARK   11  A    between atoms: C_30  and  O_31
REMARK                            x       y       z     vdW  Elec       q    Type
REMARK                         _______ _______ _______ _____ _____    ______ ____
ROOT
ATOM      1  C   UNL     1       2.867   4.558  19.393  0.00  0.00    +0.000 C 
ATOM      2  C   UNL     1       3.572   3.720  18.554  0.00  0.00    +0.000 C 
ATOM      3  C   UNL     1       2.353   2.910  18.272  0.00  0.00    +0.000 C 
ATOM      4  O   UNL     1       2.024   1.952  17.592  0.00  0.00    +0.000 OA
ATOM      5  C   UNL     1       1.655   3.692  19.324  0.00  0.00    +0.000 C 
ATOM      6  O   UNL     1       0.574   3.620  19.848  0.00  0.00    +0.000 OA
ENDROOT
BRANCH   1   7
ATOM      7  N   UNL     1       3.022   5.708  20.057  0.00  0.00    +0.000 N 
ATOM      8  H   UNL     1       2.597   5.755  20.987  0.00  0.00    +0.000 HD
BRANCH   7  13
ATOM      9  C   UNL     1       1.408   9.093  19.432  0.00  0.00    +0.000 A 
ATOM     10  C   UNL     1       1.794   9.259  18.083  0.00  0.00    +0.000 A 
ATOM     11  C   UNL     1       2.626   8.346  17.433  0.00  0.00    +0.000 A 
ATOM     12  C   UNL     1       3.041   7.196  18.095  0.00  0.00    +0.000 A 
ATOM     13  C   UNL     1       2.671   6.968  19.428  0.00  0.00    +0.000 A 
ATOM     14  C   UNL     1       1.918   7.969  20.114  0.00  0.00    +0.000 A 
BRANCH   9  18
ATOM     15  C   UNL     1      -1.736  11.353  19.631  0.00  0.00    +0.000 C 
ATOM     16  N   UNL     1      -0.827  10.359  19.063  0.00  0.00    +0.000 N 
ATOM     17  C   UNL     1      -1.058   9.997  17.682  0.00  0.00    +0.000 C 
ATOM     18  C   UNL     1       0.274  10.000  19.846  0.00  0.00    +0.000 C 
ATOM     19  O   UNL     1       0.358  10.449  20.998  0.00  0.00    +0.000 OA
ENDBRANCH   9  18
BRANCH  14  20
ATOM     20  O   UNL     1       1.719   7.795  21.458  0.00  0.00    +0.000 OA
ATOM     21  H   UNL     1       1.566   8.663  21.861  0.00  0.00    +0.000 HD
ENDBRANCH  14  20
ENDBRANCH   7  13
ENDBRANCH   1   7
BRANCH   2  22
ATOM     22  N   UNL     1       4.762   3.600  18.015  0.00  0.00    +0.000 N 
ATOM     23  H   UNL     1       5.362   2.805  18.233  0.00  0.00    +0.000 HD
BRANCH  22  24
ATOM     24  C   UNL     1       5.400   4.575  17.108  0.00  0.00    +0.000 C 
BRANCH  24  25
ATOM     25  C   UNL     1       6.569   5.331  17.702  0.00  0.00    +0.000 A 
ATOM     26  C   UNL     1       7.164   6.550  17.434  0.00  0.00    +0.000 A 
ATOM     27  C   UNL     1       7.981   6.850  18.552  0.00  0.00    +0.000 A 
ATOM     28  C   UNL     1       7.912   5.759  19.384  0.00  0.00    +0.000 A 
ATOM     29  O   UNL     1       7.081   4.820  18.863  0.00  0.00    +0.000 OA
ENDBRANCH  24  25
BRANCH  24  30
ATOM     30  C   UNL     1       5.858   3.853  15.844  0.00  0.00    +0.000 C 
BRANCH  30  31
ATOM     31  C   UNL     1       5.775   4.732  14.616  0.00  0.00    +0.000 C 
ATOM     32  F   UNL     1       6.973   5.083  14.097  0.00  0.00    +0.000 F 
ATOM     33  F   UNL     1       5.104   4.095  13.628  0.00  0.00    +0.000 F 
ATOM     34  F   UNL     1       5.099   5.873  14.883  0.00  0.00    +0.000 F 
ENDBRANCH  30  31
ENDBRANCH  24  30
ENDBRANCH  22  24
ENDBRANCH   2  22
TORSDOF 9
ENDMDL
MODEL 3
REMARK VINA RESULT:      -8.7      1.933      2.743
REMARK  Name = 
REMARK  11 active torsions:
REMARK  status: ('A' for Active; 'I' for Inactive)
REMARK    1  A    between atoms: C_1  and  N_2
REMARK    2  A    between atoms: N_2  and  C_3
REMARK    3  A    between atoms: C_4  and  C_6
REMARK    4  A    between atoms: C_10  and  N_11
REMARK    5  A    between atoms: N_11  and  C_12
REMARK    6  A    between atoms: C_13  and  N_14
REMARK    7  A    between atoms: N_14  and  C_15
REMARK    8  A    between atoms: C_15  and  C_16
REMARK    9  A    between atoms: C_15  and  C_21
REMARK   10  A    between atoms: C_16  and  C_17
REMARK   11  A    between atoms: C_30  and  O_31
REMARK                            x       y       z     vdW  Elec       q    Type
REMARK                         _______ _______ _______ _____ _____    ______ ____
ROOT
ATOM      1  C   UNL     1       2.948   4.480  19.616  0.00  0.00    +0.000 C 
ATOM      2  C   UNL     1       3.866   3.587  19.103  0.00  0.00    +0.000 C 
ATOM      3  C   UNL     1       2.793   2.821  18.408  0.00  0.00    +0.000 C 
ATOM      4  O   UNL     1       2.685   1.857  17.668  0.00  0.00    +0.000 OA
ATOM      5  C   UNL     1       1.801   3.663  19.123  0.00  0.00    +0.000 C 
ATOM      6  O   UNL     1       0.602   3.652  19.219  0.00  0.00    +0.000 OA
ENDROOT
BRANCH   1   7
ATOM      7  N   UNL     1       2.909   5.642  20.275  0.00  0.00    +0.000 N 
ATOM      8  H   UNL     1       2.337   5.663  21.124  0.00  0.00    +0.000 HD
BRANCH   7  13
ATOM      9  C   UNL     1       1.402   9.043  19.493  0.00  0.00    +0.000 A 
ATOM     10  C   UNL     1       1.712   9.094  18.116  0.00  0.00    +0.000 A 
ATOM     11  C   UNL     1       2.464   8.099  17.489  0.00  0.00    +0.000 A 
ATOM     12  C   UNL     1       2.871   6.982  18.209  0.00  0.00    +0.000 A 
ATOM     13  C   UNL     1       2.574   6.868  19.575  0.00  0.00    +0.000 A 
ATOM     14  C   UNL     1       1.905   7.949  20.227  0.00  0.00    +0.000 A 
BRANCH   9  18
ATOM     15  C   UNL     1      -0.719  12.181  20.325  0.00  0.00    +0.000 C 
ATOM     16  N   UNL     1       0.378  11.416  19.735  0.00  0.00    +0.000 N 
ATOM     17  C   UNL     1       1.484  12.186  19.210  0.00  0.00    +0.000 C 
ATOM     18  C   UNL     1       0.334  10.029  19.902  0.00  0.00    +0.000 C 
ATOM     19  O   UNL     1      -0.667   9.524  20.432  0.00  0.00    +0.000 OA
ENDBRANCH   9  18
BRANCH  14  20
ATOM     20  O   UNL     1       1.781   7.882  21.589  0.00  0.00    +0.000 OA
ATOM     21  H   UNL     1       2.381   8.532  21.985  0.00  0.00    +0.000 HD
ENDBRANCH  14  20
ENDBRANCH   7  13
ENDBRANCH   1   7
BRANCH   2  22
ATOM     22  N   UNL     1       5.163   3.401  19.035  0.00  0.00    +0.000 N 
ATOM     23  H   UNL     1       5.613   2.638  19.538  0.00  0.00    +0.000 HD
BRANCH  22  24
ATOM     24  C   UNL     1       6.120   4.258  18.307  0.00  0.00    +0.000 C 
BRANCH  24  25
ATOM     25  C   UNL     1       5.686   4.658  16.912  0.00  0.00    +0.000 A 
ATOM     26  C   UNL     1       5.537   5.868  16.261  0.00  0.00    +0.000 A 
ATOM     27  C   UNL     1       5.445   5.569  14.878  0.00  0.00    +0.000 A 
ATOM     28  C   UNL     1       5.446   4.199  14.781  0.00  0.00    +0.000 A 
ATOM     29  O   UNL     1       5.563   3.637  16.011  0.00  0.00    +0.000 OA
ENDBRANCH  24  25
BRANCH  24  30
ATOM     30  C   UNL     1       6.389   5.515  19.129  0.00  0.00    +0.000 C 
BRANCH  30  31
ATOM     31  C   UNL     1       7.865   5.736  19.376  0.00  0.00    +0.000 C 
ATOM     32  F   UNL     1       8.235   5.644  20.673  0.00  0.00    +0.000 F 
ATOM     33  F   UNL     1       8.596   4.814  18.705  0.00  0.00    +0.000 F 
ATOM     34  F   UNL     1       8.253   6.952  18.929  0.00  0.00    +0.000 F 
ENDBRANCH  30  31
ENDBRANCH  24  30
ENDBRANCH  22  24
ENDBRANCH   2  22
TORSDOF 9
ENDMDL
MODEL 4
REMARK VINA RESULT:      -8.6      1.598      2.469
REMARK  Name = 
REMARK  11 active torsions:
REMARK  status: ('A' for Active; 'I' for Inactive)
REMARK    1  A    between atoms: C_1  and  N_2
REMARK    2  A    between atoms: N_2  and  C_3
REMARK    3  A    between atoms: C_4  and  C_6
REMARK    4  A    between atoms: C_10  and  N_11
REMARK    5  A    between atoms: N_11  and  C_12
REMARK    6  A    between atoms: C_13  and  N_14
REMARK    7  A    between atoms: N_14  and  C_15
REMARK    8  A    between atoms: C_15  and  C_16
REMARK    9  A    between atoms: C_15  and  C_21
REMARK   10  A    between atoms: C_16  and  C_17
REMARK   11  A    between atoms: C_30  and  O_31
REMARK                            x       y       z     vdW  Elec       q    Type
REMARK                         _______ _______ _______ _____ _____    ______ ____
ROOT
ATOM      1  C   UNL     1       3.270   4.557  19.671  0.00  0.00    +0.000 C 
ATOM      2  C   UNL     1       4.342   3.862  19.149  0.00  0.00    +0.000 C 
ATOM      3  C   UNL     1       3.435   2.874  18.498  0.00  0.00    +0.000 C 
ATOM      4  O   UNL     1       3.512   1.892  17.779  0.00  0.00    +0.000 OA
ATOM      5  C   UNL     1       2.307   3.510  19.225  0.00  0.00    +0.000 C 
ATOM      6  O   UNL     1       1.138   3.254  19.354  0.00  0.00    +0.000 OA
ENDROOT
BRANCH   1   7
ATOM      7  N   UNL     1       3.007   5.702  20.310  0.00  0.00    +0.000 N 
ATOM      8  H   UNL     1       2.325   5.649  21.071  0.00  0.00    +0.000 HD
BRANCH   7  13
ATOM      9  C   UNL     1       1.411   9.031  19.403  0.00  0.00    +0.000 A 
ATOM     10  C   UNL     1       1.692   9.023  18.018  0.00  0.00    +0.000 A 
ATOM     11  C   UNL     1       2.453   8.016  17.423  0.00  0.00    +0.000 A 
ATOM     12  C   UNL     1       2.898   6.942  18.185  0.00  0.00    +0.000 A 
ATOM     13  C   UNL     1       2.631   6.886  19.561  0.00  0.00    +0.000 A 
ATOM     14  C   UNL     1       1.953   7.983  20.176  0.00  0.00    +0.000 A 
BRANCH   9  18
ATOM     15  C   UNL     1      -0.755  12.159  20.145  0.00  0.00    +0.000 C 
ATOM     16  N   UNL     1       0.348  11.392  19.570  0.00  0.00    +0.000 N 
ATOM     17  C   UNL     1       1.434  12.161  19.004  0.00  0.00    +0.000 C 
ATOM     18  C   UNL     1       0.330  10.012  19.788  0.00  0.00    +0.000 C 
ATOM     19  O   UNL     1      -0.655   9.510  20.348  0.00  0.00    +0.000 OA
ENDBRANCH   9  18
BRANCH  14  20
ATOM     20  O   UNL     1       1.858   7.977  21.541  0.00  0.00    +0.000 OA
ATOM     21  H   UNL     1       2.283   8.778  21.883  0.00  0.00    +0.000 HD
ENDBRANCH  14  20
ENDBRANCH   7  13
ENDBRANCH   1   7
BRANCH   2  22
ATOM     22  N   UNL     1       5.647   3.947  19.049  0.00  0.00    +0.000 N 
ATOM     23  H   UNL     1       6.258   3.472  19.713  0.00  0.00    +0.000 HD
BRANCH  22  24
ATOM     24  C   UNL     1       6.385   4.746  18.050  0.00  0.00    +0.000 C 
BRANCH  24  25
ATOM     25  C   UNL     1       5.933   4.553  16.618  0.00  0.00    +0.000 A 
ATOM     26  C   UNL     1       5.005   5.183  15.810  0.00  0.00    +0.000 A 
ATOM     27  C   UNL     1       5.294   4.781  14.481  0.00  0.00    +0.000 A 
ATOM     28  C   UNL     1       6.312   3.862  14.571  0.00  0.00    +0.000 A 
ATOM     29  O   UNL     1       6.686   3.696  15.865  0.00  0.00    +0.000 OA
ENDBRANCH  24  25
BRANCH  24  30
ATOM     30  C   UNL     1       6.279   6.222  18.417  0.00  0.00    +0.000 C 
BRANCH  30  31
ATOM     31  C   UNL     1       7.439   7.033  17.884  0.00  0.00    +0.000 C 
ATOM     32  F   UNL     1       7.936   6.592  16.707  0.00  0.00    +0.000 F 
ATOM     33  F   UNL     1       7.058   8.317  17.678  0.00  0.00    +0.000 F 
ATOM     34  F   UNL     1       8.460   7.060  18.770  0.00  0.00    +0.000 F 
ENDBRANCH  30  31
ENDBRANCH  24  30
ENDBRANCH  22  24
ENDBRANCH   2  22
TORSDOF 9
ENDMDL
MODEL 5
REMARK VINA RESULT:      -8.5      0.789      1.064
REMARK  Name = 
REMARK  11 active torsions:
REMARK  status: ('A' for Active; 'I' for Inactive)
REMARK    1  A    between atoms: C_1  and  N_2
REMARK    2  A    between atoms: N_2  and  C_3
REMARK    3  A    between atoms: C_4  and  C_6
REMARK    4  A    between atoms: C_10  and  N_11
REMARK    5  A    between atoms: N_11  and  C_12
REMARK    6  A    between atoms: C_13  and  N_14
REMARK    7  A    between atoms: N_14  and  C_15
REMARK    8  A    between atoms: C_15  and  C_16
REMARK    9  A    between atoms: C_15  and  C_21
REMARK   10  A    between atoms: C_16  and  C_17
REMARK   11  A    between atoms: C_30  and  O_31
REMARK                            x       y       z     vdW  Elec       q    Type
REMARK                         _______ _______ _______ _____ _____    ______ ____
ROOT
ATOM      1  C   UNL     1       3.080   4.672  19.559  0.00  0.00    +0.000 C 
ATOM      2  C   UNL     1       3.993   3.992  18.779  0.00  0.00    +0.000 C 
ATOM      3  C   UNL     1       2.968   2.982  18.390  0.00  0.00    +0.000 C 
ATOM      4  O   UNL     1       2.875   1.994  17.679  0.00  0.00    +0.000 OA
ATOM      5  C   UNL     1       2.055   3.604  19.383  0.00  0.00    +0.000 C 
ATOM      6  O   UNL     1       0.965   3.327  19.813  0.00  0.00    +0.000 OA
ENDROOT
BRANCH   1   7
ATOM      7  N   UNL     1       2.969   5.817  20.239  0.00  0.00    +0.000 N 
ATOM      8  H   UNL     1       2.388   5.789  21.081  0.00  0.00    +0.000 HD
BRANCH   7  13
ATOM      9  C   UNL     1       1.304   9.158  19.518  0.00  0.00    +0.000 A 
ATOM     10  C   UNL     1       1.596   9.240  18.138  0.00  0.00    +0.000 A 
ATOM     11  C   UNL     1       2.384   8.287  17.490  0.00  0.00    +0.000 A 
ATOM     12  C   UNL     1       2.848   7.180  18.192  0.00  0.00    +0.000 A 
ATOM     13  C   UNL     1       2.571   7.036  19.559  0.00  0.00    +0.000 A 
ATOM     14  C   UNL     1       1.863   8.078  20.232  0.00  0.00    +0.000 A 
BRANCH   9  18
ATOM     15  C   UNL     1      -0.900  12.178  20.545  0.00  0.00    +0.000 C 
ATOM     16  N   UNL     1       0.249  11.487  19.963  0.00  0.00    +0.000 N 
ATOM     17  C   UNL     1       1.392  12.311  19.637  0.00  0.00    +0.000 C 
ATOM     18  C   UNL     1       0.198  10.090  19.951  0.00  0.00    +0.000 C 
ATOM     19  O   UNL     1      -0.842   9.528  20.323  0.00  0.00    +0.000 OA
ENDBRANCH   9  18
BRANCH  14  20
ATOM     20  O   UNL     1       1.758   7.989  21.594  0.00  0.00    +0.000 OA
ATOM     21  H   UNL     1       1.274   8.764  21.917  0.00  0.00    +0.000 HD
ENDBRANCH  14  20
ENDBRANCH   7  13
ENDBRANCH   1   7
BRANCH   2  22
ATOM     22  N   UNL     1       5.225   4.100  18.342  0.00  0.00    +0.000 N 
ATOM     23  H   UNL     1       5.976   3.537  18.740  0.00  0.00    +0.000 HD
BRANCH  22  24
ATOM     24  C   UNL     1       5.693   5.042  17.306  0.00  0.00    +0.000 C 
BRANCH  24  25
ATOM     25  C   UNL     1       6.586   6.155  17.813  0.00  0.00    +0.000 A 
ATOM     26  C   UNL     1       7.660   6.207  18.681  0.00  0.00    +0.000 A 
ATOM     27  C   UNL     1       8.282   7.464  18.473  0.00  0.00    +0.000 A 
ATOM     28  C   UNL     1       7.498   8.136  17.567  0.00  0.00    +0.000 A 
ATOM     29  O   UNL     1       6.451   7.361  17.182  0.00  0.00    +0.000 OA
ENDBRANCH  24  25
BRANCH  24  30
ATOM     30  C   UNL     1       6.428   4.263  16.220  0.00  0.00    +0.000 C 
BRANCH  30  31
ATOM     31  C   UNL     1       5.933   4.602  14.832  0.00  0.00    +0.000 C 
ATOM     32  F   UNL     1       6.840   4.404  13.850  0.00  0.00    +0.000 F 
ATOM     33  F   UNL     1       4.860   3.837  14.518  0.00  0.00    +0.000 F 
ATOM     34  F   UNL     1       5.534   5.893  14.763  0.00  0.00    +0.000 F 
ENDBRANCH  30  31
ENDBRANCH  24  30
ENDBRANCH  22  24
ENDBRANCH   2  22
TORSDOF 9
ENDMDL
MODEL 6
REMARK VINA RESULT:      -8.5      2.032      2.805
REMARK  Name = 
REMARK  11 active torsions:
REMARK  status: ('A' for Active; 'I' for Inactive)
REMARK    1  A    between atoms: C_1  and  N_2
REMARK    2  A    between atoms: N_2  and  C_3
REMARK    3  A    between atoms: C_4  and  C_6
REMARK    4  A    between atoms: C_10  and  N_11
REMARK    5  A    between atoms: N_11  and  C_12
REMARK    6  A    between atoms: C_13  and  N_14
REMARK    7  A    between atoms: N_14  and  C_15
REMARK    8  A    between atoms: C_15  and  C_16
REMARK    9  A    between atoms: C_15  and  C_21
REMARK   10  A    between atoms: C_16  and  C_17
REMARK   11  A    between atoms: C_30  and  O_31
REMARK                            x       y       z     vdW  Elec       q    Type
REMARK                         _______ _______ _______ _____ _____    ______ ____
ROOT
ATOM      1  C   UNL     1       2.899   4.447  19.580  0.00  0.00    +0.000 C 
ATOM      2  C   UNL     1       3.809   3.539  19.080  0.00  0.00    +0.000 C 
ATOM      3  C   UNL     1       2.737   2.808  18.346  0.00  0.00    +0.000 C 
ATOM      4  O   UNL     1       2.626   1.856  17.591  0.00  0.00    +0.000 OA
ATOM      5  C   UNL     1       1.746   3.665  19.046  0.00  0.00    +0.000 C 
ATOM      6  O   UNL     1       0.545   3.683  19.110  0.00  0.00    +0.000 OA
ENDROOT
BRANCH   1   7
ATOM      7  N   UNL     1       2.870   5.602  20.253  0.00  0.00    +0.000 N 
ATOM      8  H   UNL     1       2.285   5.622  21.093  0.00  0.00    +0.000 HD
BRANCH   7  13
ATOM      9  C   UNL     1       1.427   9.034  19.485  0.00  0.00    +0.000 A 
ATOM     10  C   UNL     1       1.772   9.100  18.116  0.00  0.00    +0.000 A 
ATOM     11  C   UNL     1       2.527   8.105  17.494  0.00  0.00    +0.000 A 
ATOM     12  C   UNL     1       2.902   6.972  18.207  0.00  0.00    +0.000 A 
ATOM     13  C   UNL     1       2.568   6.842  19.564  0.00  0.00    +0.000 A 
ATOM     14  C   UNL     1       1.897   7.922  20.214  0.00  0.00    +0.000 A 
BRANCH   9  18
ATOM     15  C   UNL     1      -1.585  11.469  19.658  0.00  0.00    +0.000 C 
ATOM     16  N   UNL     1      -0.756  10.391  19.124  0.00  0.00    +0.000 N 
ATOM     17  C   UNL     1      -1.069   9.949  17.783  0.00  0.00    +0.000 C 
ATOM     18  C   UNL     1       0.361  10.027  19.882  0.00  0.00    +0.000 C 
ATOM     19  O   UNL     1       0.522  10.548  20.995  0.00  0.00    +0.000 OA
ENDBRANCH   9  18
BRANCH  14  20
ATOM     20  O   UNL     1       1.738   7.837  21.571  0.00  0.00    +0.000 OA
ATOM     21  H   UNL     1       2.564   8.113  21.997  0.00  0.00    +0.000 HD
ENDBRANCH  14  20
ENDBRANCH   7  13
ENDBRANCH   1   7
BRANCH   2  22
ATOM     22  N   UNL     1       5.102   3.322  19.044  0.00  0.00    +0.000 N 
ATOM     23  H   UNL     1       5.521   2.548  19.559  0.00  0.00    +0.000 HD
BRANCH  22  24
ATOM     24  C   UNL     1       6.097   4.156  18.340  0.00  0.00    +0.000 C 
BRANCH  24  25
ATOM     25  C   UNL     1       5.731   4.521  16.917  0.00  0.00    +0.000 A 
ATOM     26  C   UNL     1       5.472   5.713  16.266  0.00  0.00    +0.000 A 
ATOM     27  C   UNL     1       5.538   5.433  14.878  0.00  0.00    +0.000 A 
ATOM     28  C   UNL     1       5.735   4.078  14.768  0.00  0.00    +0.000 A 
ATOM     29  O   UNL     1       5.825   3.512  15.999  0.00  0.00    +0.000 OA
ENDBRANCH  24  25
BRANCH  24  30
ATOM     30  C   UNL     1       6.335   5.431  19.141  0.00  0.00    +0.000 C 
BRANCH  30  31
ATOM     31  C   UNL     1       7.806   5.731  19.323  0.00  0.00    +0.000 C 
ATOM     32  F   UNL     1       8.635   4.874  18.687  0.00  0.00    +0.000 F 
ATOM     33  F   UNL     1       8.095   6.965  18.844  0.00  0.00    +0.000 F 
ATOM     34  F   UNL     1       8.143   5.725  20.633  0.00  0.00    +0.000 F 
ENDBRANCH  30  31
ENDBRANCH  24  30
ENDBRANCH  22  24
ENDBRANCH   2  22
TORSDOF 9
ENDMDL
MODEL 7
REMARK VINA RESULT:      -8.5      1.974      2.850
REMARK  Name = 
REMARK  11 active torsions:
REMARK  status: ('A' for Active; 'I' for Inactive)
REMARK    1  A    between atoms: C_1  and  N_2
REMARK    2  A    between atoms: N_2  and  C_3
REMARK    3  A    between atoms: C_4  and  C_6
REMARK    4  A    between atoms: C_10  and  N_11
REMARK    5  A    between atoms: N_11  and  C_12
REMARK    6  A    between atoms: C_13  and  N_14
REMARK    7  A    between atoms: N_14  and  C_15
REMARK    8  A    between atoms: C_15  and  C_16
REMARK    9  A    between atoms: C_15  and  C_21
REMARK   10  A    between atoms: C_16  and  C_17
REMARK   11  A    between atoms: C_30  and  O_31
REMARK                            x       y       z     vdW  Elec       q    Type
REMARK                         _______ _______ _______ _____ _____    ______ ____
ROOT
ATOM      1  C   UNL     1       2.737   5.380  19.005  0.00  0.00    +0.000 C 
ATOM      2  C   UNL     1       3.369   5.053  17.823  0.00  0.00    +0.000 C 
ATOM      3  C   UNL     1       2.454   3.897  17.606  0.00  0.00    +0.000 C 
ATOM      4  O   UNL     1       2.253   3.028  16.773  0.00  0.00    +0.000 OA
ATOM      5  C   UNL     1       1.914   4.137  18.969  0.00  0.00    +0.000 C 
ATOM      6  O   UNL     1       1.140   3.553  19.682  0.00  0.00    +0.000 OA
ENDROOT
BRANCH   1   7
ATOM      7  N   UNL     1       2.715   6.357  19.917  0.00  0.00    +0.000 N 
ATOM      8  H   UNL     1       2.271   6.131  20.811  0.00  0.00    +0.000 HD
BRANCH   7  13
ATOM      9  C   UNL     1       1.004   9.740  20.194  0.00  0.00    +0.000 A 
ATOM     10  C   UNL     1       0.977  10.070  18.821  0.00  0.00    +0.000 A 
ATOM     11  C   UNL     1       1.577   9.262  17.853  0.00  0.00    +0.000 A 
ATOM     12  C   UNL     1       2.164   8.058  18.224  0.00  0.00    +0.000 A 
ATOM     13  C   UNL     1       2.201   7.669  19.571  0.00  0.00    +0.000 A 
ATOM     14  C   UNL     1       1.687   8.562  20.560  0.00  0.00    +0.000 A 
BRANCH   9  18
ATOM     15  C   UNL     1      -0.842  12.487  22.214  0.00  0.00    +0.000 C 
ATOM     16  N   UNL     1       0.130  11.932  21.273  0.00  0.00    +0.000 N 
ATOM     17  C   UNL     1       1.188  12.822  20.850  0.00  0.00    +0.000 C 
ATOM     18  C   UNL     1       0.046  10.560  21.025  0.00  0.00    +0.000 C 
ATOM     19  O   UNL     1      -0.896   9.921  21.517  0.00  0.00    +0.000 OA
ENDBRANCH   9  18
BRANCH  14  20
ATOM     20  O   UNL     1       1.891   8.231  21.873  0.00  0.00    +0.000 OA
ATOM     21  H   UNL     1       2.802   8.462  22.111  0.00  0.00    +0.000 HD
ENDBRANCH  14  20
ENDBRANCH   7  13
ENDBRANCH   1   7
BRANCH   2  22
ATOM     22  N   UNL     1       4.297   5.510  17.016  0.00  0.00    +0.000 N 
ATOM     23  H   UNL     1       4.072   6.173  16.275  0.00  0.00    +0.000 HD
BRANCH  22  24
ATOM     24  C   UNL     1       5.718   5.108  17.021  0.00  0.00    +0.000 C 
BRANCH  24  25
ATOM     25  C   UNL     1       6.256   4.646  15.684  0.00  0.00    +0.000 A 
ATOM     26  C   UNL     1       5.862   3.690  14.766  0.00  0.00    +0.000 A 
ATOM     27  C   UNL     1       6.558   3.978  13.565  0.00  0.00    +0.000 A 
ATOM     28  C   UNL     1       7.402   5.024  13.851  0.00  0.00    +0.000 A 
ATOM     29  O   UNL     1       7.247   5.417  15.141  0.00  0.00    +0.000 OA
ENDBRANCH  24  25
BRANCH  24  30
ATOM     30  C   UNL     1       6.562   6.273  17.528  0.00  0.00    +0.000 C 
BRANCH  30  31
ATOM     31  C   UNL     1       7.517   5.859  18.625  0.00  0.00    +0.000 C 
ATOM     32  F   UNL     1       8.225   4.738  18.357  0.00  0.00    +0.000 F 
ATOM     33  F   UNL     1       8.426   6.837  18.850  0.00  0.00    +0.000 F 
ATOM     34  F   UNL     1       6.858   5.654  19.788  0.00  0.00    +0.000 F 
ENDBRANCH  30  31
ENDBRANCH  24  30
ENDBRANCH  22  24
ENDBRANCH   2  22
TORSDOF 9
ENDMDL
MODEL 8
REMARK VINA RESULT:      -8.5      2.038      2.932
REMARK  Name = 
REMARK  11 active torsions:
REMARK  status: ('A' for Active; 'I' for Inactive)
REMARK    1  A    between atoms: C_1  and  N_2
REMARK    2  A    between atoms: N_2  and  C_3
REMARK    3  A    between atoms: C_4  and  C_6
REMARK    4  A    between atoms: C_10  and  N_11
REMARK    5  A    between atoms: N_11  and  C_12
REMARK    6  A    between atoms: C_13  and  N_14
REMARK    7  A    between atoms: N_14  and  C_15
REMARK    8  A    between atoms: C_15  and  C_16
REMARK    9  A    between atoms: C_15  and  C_21
REMARK   10  A    between atoms: C_16  and  C_17
REMARK   11  A    between atoms: C_30  and  O_31
REMARK                            x       y       z     vdW  Elec       q    Type
REMARK                         _______ _______ _______ _____ _____    ______ ____
ROOT
ATOM      1  C   UNL     1       2.609   5.509  19.107  0.00  0.00    +0.000 C 
ATOM      2  C   UNL     1       3.280   5.177  17.948  0.00  0.00    +0.000 C 
ATOM      3  C   UNL     1       2.385   4.007  17.718  0.00  0.00    +0.000 C 
ATOM      4  O   UNL     1       2.219   3.126  16.890  0.00  0.00    +0.000 OA
ATOM      5  C   UNL     1       1.802   4.256  19.061  0.00  0.00    +0.000 C 
ATOM      6  O   UNL     1       1.015   3.671  19.759  0.00  0.00    +0.000 OA
ENDROOT
BRANCH   1   7
ATOM      7  N   UNL     1       2.549   6.496  20.006  0.00  0.00    +0.000 N 
ATOM      8  H   UNL     1       2.045   6.289  20.873  0.00  0.00    +0.000 HD
BRANCH   7  13
ATOM      9  C   UNL     1       0.924   9.930  20.154  0.00  0.00    +0.000 A 
ATOM     10  C   UNL     1       0.954  10.231  18.774  0.00  0.00    +0.000 A 
ATOM     11  C   UNL     1       1.564   9.386  17.845  0.00  0.00    +0.000 A 
ATOM     12  C   UNL     1       2.104   8.175  18.260  0.00  0.00    +0.000 A 
ATOM     13  C   UNL     1       2.084   7.814  19.616  0.00  0.00    +0.000 A 
ATOM     14  C   UNL     1       1.561   8.741  20.568  0.00  0.00    +0.000 A 
BRANCH   9  18
ATOM     15  C   UNL     1      -1.934  12.257  21.355  0.00  0.00    +0.000 C 
ATOM     16  N   UNL     1      -1.227  11.350  20.453  0.00  0.00    +0.000 N 
ATOM     17  C   UNL     1      -1.728  11.277  19.099  0.00  0.00    +0.000 C 
ATOM     18  C   UNL     1      -0.039  10.792  20.934  0.00  0.00    +0.000 C 
ATOM     19  O   UNL     1       0.285  11.003  22.112  0.00  0.00    +0.000 OA
ENDBRANCH   9  18
BRANCH  14  20
ATOM     20  O   UNL     1       1.711   8.433  21.893  0.00  0.00    +0.000 OA
ATOM     21  H   UNL     1       2.624   8.144  22.042  0.00  0.00    +0.000 HD
ENDBRANCH  14  20
ENDBRANCH   7  13
ENDBRANCH   1   7
BRANCH   2  22
ATOM     22  N   UNL     1       4.226   5.634  17.163  0.00  0.00    +0.000 N 
ATOM     23  H   UNL     1       4.021   6.317  16.434  0.00  0.00    +0.000 HD
BRANCH  22  24
ATOM     24  C   UNL     1       5.640   5.209  17.177  0.00  0.00    +0.000 C 
BRANCH  24  25
ATOM     25  C   UNL     1       6.169   4.705  15.852  0.00  0.00    +0.000 A 
ATOM     26  C   UNL     1       5.760   3.730  14.960  0.00  0.00    +0.000 A 
ATOM     27  C   UNL     1       6.457   3.977  13.751  0.00  0.00    +0.000 A 
ATOM     28  C   UNL     1       7.315   5.019  14.007  0.00  0.00    +0.000 A 
ATOM     29  O   UNL     1       7.168   5.449  15.286  0.00  0.00    +0.000 OA
ENDBRANCH  24  25
BRANCH  24  30
ATOM     30  C   UNL     1       6.504   6.372  17.655  0.00  0.00    +0.000 C 
BRANCH  30  31
ATOM     31  C   UNL     1       7.525   5.945  18.686  0.00  0.00    +0.000 C 
ATOM     32  F   UNL     1       8.483   6.864  18.939  0.00  0.00    +0.000 F 
ATOM     33  F   UNL     1       6.919   5.692  19.870  0.00  0.00    +0.000 F 
ATOM     34  F   UNL     1       8.148   4.805  18.307  0.00  0.00    +0.000 F 
ENDBRANCH  30  31
ENDBRANCH  24  30
ENDBRANCH  22  24
ENDBRANCH   2  22
TORSDOF 9
ENDMDL
MODEL 9
REMARK VINA RESULT:      -8.3      1.447      1.756
REMARK  Name = 
REMARK  11 active torsions:
REMARK  status: ('A' for Active; 'I' for Inactive)
REMARK    1  A    between atoms: C_1  and  N_2
REMARK    2  A    between atoms: N_2  and  C_3
REMARK    3  A    between atoms: C_4  and  C_6
REMARK    4  A    between atoms: C_10  and  N_11
REMARK    5  A    between atoms: N_11  and  C_12
REMARK    6  A    between atoms: C_13  and  N_14
REMARK    7  A    between atoms: N_14  and  C_15
REMARK    8  A    between atoms: C_15  and  C_16
REMARK    9  A    between atoms: C_15  and  C_21
REMARK   10  A    between atoms: C_16  and  C_17
REMARK   11  A    between atoms: C_30  and  O_31
REMARK                            x       y       z     vdW  Elec       q    Type
REMARK                         _______ _______ _______ _____ _____    ______ ____
ROOT
ATOM      1  C   UNL     1       3.139   3.857  19.224  0.00  0.00    +0.000 C 
ATOM      2  C   UNL     1       4.331   3.264  18.863  0.00  0.00    +0.000 C 
ATOM      3  C   UNL     1       4.370   2.478  20.130  0.00  0.00    +0.000 C 
ATOM      4  O   UNL     1       5.073   1.639  20.669  0.00  0.00    +0.000 OA
ATOM      5  C   UNL     1       3.199   3.266  20.592  0.00  0.00    +0.000 C 
ATOM      6  O   UNL     1       2.595   3.346  21.630  0.00  0.00    +0.000 OA
ENDROOT
BRANCH   1   7
ATOM      7  N   UNL     1       2.185   4.635  18.704  0.00  0.00    +0.000 N 
ATOM      8  H   UNL     1       1.847   4.375  17.773  0.00  0.00    +0.000 HD
BRANCH   7  13
ATOM      9  C   UNL     1       1.764   8.349  19.393  0.00  0.00    +0.000 A 
ATOM     10  C   UNL     1       2.530   8.847  18.315  0.00  0.00    +0.000 A 
ATOM     11  C   UNL     1       3.231   8.002  17.453  0.00  0.00    +0.000 A 
ATOM     12  C   UNL     1       3.130   6.623  17.601  0.00  0.00    +0.000 A 
ATOM     13  C   UNL     1       2.367   6.073  18.641  0.00  0.00    +0.000 A 
ATOM     14  C   UNL     1       1.752   6.952  19.584  0.00  0.00    +0.000 A 
BRANCH   9  18
ATOM     15  C   UNL     1      -0.263  10.690  21.726  0.00  0.00    +0.000 C 
ATOM     16  N   UNL     1       0.798   9.759  21.346  0.00  0.00    +0.000 N 
ATOM     17  C   UNL     1       1.561   9.183  22.431  0.00  0.00    +0.000 C 
ATOM     18  C   UNL     1       0.845   9.382  20.001  0.00  0.00    +0.000 C 
ATOM     19  O   UNL     1       0.074   9.931  19.200  0.00  0.00    +0.000 OA
ENDBRANCH   9  18
BRANCH  14  20
ATOM     20  O   UNL     1       1.159   6.384  20.679  0.00  0.00    +0.000 OA
ATOM     21  H   UNL     1       0.797   5.522  20.422  0.00  0.00    +0.000 HD
ENDBRANCH  14  20
ENDBRANCH   7  13
ENDBRANCH   1   7
BRANCH   2  22
ATOM     22  N   UNL     1       5.155   3.193  17.845  0.00  0.00    +0.000 N 
ATOM     23  H   UNL     1       5.594   2.311  17.583  0.00  0.00    +0.000 HD
BRANCH  22  24
ATOM     24  C   UNL     1       5.593   4.329  17.009  0.00  0.00    +0.000 C 
BRANCH  24  25
ATOM     25  C   UNL     1       6.672   5.195  17.623  0.00  0.00    +0.000 A 
ATOM     26  C   UNL     1       7.127   6.479  17.386  0.00  0.00    +0.000 A 
ATOM     27  C   UNL     1       7.909   6.840  18.511  0.00  0.00    +0.000 A 
ATOM     28  C   UNL     1       7.964   5.727  19.314  0.00  0.00    +0.000 A 
ATOM     29  O   UNL     1       7.241   4.716  18.770  0.00  0.00    +0.000 OA
ENDBRANCH  24  25
BRANCH  24  30
ATOM     30  C   UNL     1       6.077   3.799  15.663  0.00  0.00    +0.000 C 
BRANCH  30  31
ATOM     31  C   UNL     1       5.757   4.741  14.524  0.00  0.00    +0.000 C 
ATOM     32  F   UNL     1       5.033   5.825  14.881  0.00  0.00    +0.000 F 
ATOM     33  F   UNL     1       6.900   5.212  13.971  0.00  0.00    +0.000 F 
ATOM     34  F   UNL     1       5.076   4.102  13.545  0.00  0.00    +0.000 F 
ENDBRANCH  30  31
ENDBRANCH  24  30
ENDBRANCH  22  24
ENDBRANCH   2  22
TORSDOF 9
ENDMDL
