MODEL 1
REMARK VINA RESULT:      -6.7      0.000      0.000
REMARK  Name = 
REMARK  4 active torsions:
REMARK  status: ('A' for Active; 'I' for Inactive)
REMARK    1  A    between atoms: C_1  and  C_2
REMARK    2  A    between atoms: C_10  and  S_11
REMARK    3  A    between atoms: S_11  and  C_12
REMARK    4  A    between atoms: C_23  and  C_24
REMARK                            x       y       z     vdW  Elec       q    Type
REMARK                         _______ _______ _______ _____ _____    ______ ____
ROOT
ATOM      1  C   UNL     1       5.910  13.004  23.006  0.00  0.00    +0.000 C 
ATOM      2  C   UNL     1       6.182  13.931  24.206  0.00  0.00    +0.000 C 
ATOM      3  C   UNL     1       5.465  15.273  24.078  0.00  0.00    +0.000 C 
ATOM      4  C   UNL     1       5.880  16.001  22.771  0.00  0.00    +0.000 C 
ATOM      5  C   UNL     1       7.420  16.069  22.511  0.00  0.00    +0.000 C 
ATOM      6  C   UNL     1       8.229  14.929  23.221  0.00  0.00    +0.000 C 
ATOM      7  C   UNL     1       9.612  15.507  23.453  0.00  0.00    +0.000 C 
ATOM      8  C   UNL     1      10.308  15.377  22.120  0.00  0.00    +0.000 C 
ATOM      9  C   UNL     1       9.450  15.704  20.891  0.00  0.00    +0.000 C 
ATOM     10  C   UNL     1      10.095  15.726  19.712  0.00  0.00    +0.000 C 
ATOM     11  C   UNL     1       9.681  16.724  18.677  0.00  0.00    +0.000 C 
ATOM     12  O   UNL     1      10.409  17.010  17.716  0.00  0.00    +0.000 OA
ATOM     13  C   UNL     1       8.352  17.433  18.841  0.00  0.00    +0.000 C 
ATOM     14  C   UNL     1       7.885  17.517  20.312  0.00  0.00    +0.000 C 
ATOM     15  C   UNL     1       7.947  16.127  20.993  0.00  0.00    +0.000 C 
ATOM     16  C   UNL     1       7.050  15.211  20.094  0.00  0.00    +0.000 C 
ATOM     17  C   UNL     1       7.653  14.270  24.456  0.00  0.00    +0.000 C 
ATOM     18  C   UNL     1       8.290  12.921  24.847  0.00  0.00    +0.000 C 
ATOM     19  C   UNL     1       7.205  12.192  25.656  0.00  0.00    +0.000 C 
ATOM     20  C   UNL     1       5.982  13.055  25.414  0.00  0.00    +0.000 C 
ATOM     21  O   UNL     1       4.932  12.973  26.060  0.00  0.00    +0.000 OA
ENDROOT
BRANCH  10  22
ATOM     22  S   UNL     1      11.367  14.602  19.331  0.00  0.00    +0.000 S 
BRANCH  22  23
ATOM     23  C   UNL     1      10.301  13.185  19.072  0.00  0.00    +0.000 A 
ATOM     24  C   UNL     1      10.558  12.059  19.858  0.00  0.00    +0.000 A 
ATOM     25  C   UNL     1       9.953  10.841  19.565  0.00  0.00    +0.000 A 
ATOM     26  C   UNL     1       9.055  10.753  18.511  0.00  0.00    +0.000 A 
ATOM     27 BR   UNL     1       8.308   9.073  18.068  0.00  0.00    +0.000 Br
ATOM     28  C   UNL     1       8.729  11.884  17.758  0.00  0.00    +0.000 A 
ATOM     29  C   UNL     1       9.357  13.102  18.033  0.00  0.00    +0.000 A 
ENDBRANCH  22  23
ENDBRANCH  10  22
TORSDOF 2
ENDMDL
MODEL 2
REMARK VINA RESULT:      -6.5      0.790      1.073
REMARK  Name = 
REMARK  4 active torsions:
REMARK  status: ('A' for Active; 'I' for Inactive)
REMARK    1  A    between atoms: C_1  and  C_2
REMARK    2  A    between atoms: C_10  and  S_11
REMARK    3  A    between atoms: S_11  and  C_12
REMARK    4  A    between atoms: C_23  and  C_24
REMARK                            x       y       z     vdW  Elec       q    Type
REMARK                         _______ _______ _______ _____ _____    ______ ____
ROOT
ATOM      1  C   UNL     1       6.205  12.954  23.561  0.00  0.00    +0.000 C 
ATOM      2  C   UNL     1       6.197  14.201  24.466  0.00  0.00    +0.000 C 
ATOM      3  C   UNL     1       5.316  15.317  23.909  0.00  0.00    +0.000 C 
ATOM      4  C   UNL     1       5.776  15.728  22.484  0.00  0.00    +0.000 C 
ATOM      5  C   UNL     1       7.311  15.985  22.334  0.00  0.00    +0.000 C 
ATOM      6  C   UNL     1       8.184  15.232  23.396  0.00  0.00    +0.000 C 
ATOM      7  C   UNL     1       9.432  16.078  23.559  0.00  0.00    +0.000 C 
ATOM      8  C   UNL     1      10.294  15.717  22.373  0.00  0.00    +0.000 C 
ATOM      9  C   UNL     1       9.552  15.552  21.041  0.00  0.00    +0.000 C 
ATOM     10  C   UNL     1      10.323  15.367  19.956  0.00  0.00    +0.000 C 
ATOM     11  C   UNL     1       9.899  15.966  18.653  0.00  0.00    +0.000 C 
ATOM     12  O   UNL     1      10.689  16.104  17.708  0.00  0.00    +0.000 OA
ATOM     13  C   UNL     1       8.472  16.456  18.508  0.00  0.00    +0.000 C 
ATOM     14  C   UNL     1       7.825  16.850  19.856  0.00  0.00    +0.000 C 
ATOM     15  C   UNL     1       8.002  15.725  20.905  0.00  0.00    +0.000 C 
ATOM     16  C   UNL     1       7.360  14.462  20.238  0.00  0.00    +0.000 C 
ATOM     17  C   UNL     1       7.563  14.839  24.720  0.00  0.00    +0.000 C 
ATOM     18  C   UNL     1       8.335  13.774  25.524  0.00  0.00    +0.000 C 
ATOM     19  C   UNL     1       7.276  13.114  26.423  0.00  0.00    +0.000 C 
ATOM     20  C   UNL     1       5.981  13.659  25.854  0.00  0.00    +0.000 C 
ATOM     21  O   UNL     1       4.883  13.575  26.416  0.00  0.00    +0.000 OA
ENDROOT
BRANCH  10  22
ATOM     22  S   UNL     1      11.779  14.416  20.007  0.00  0.00    +0.000 S 
BRANCH  22  23
ATOM     23  C   UNL     1      11.003  12.853  19.603  0.00  0.00    +0.000 A 
ATOM     24  C   UNL     1      10.966  12.505  18.251  0.00  0.00    +0.000 A 
ATOM     25  C   UNL     1      10.179  11.444  17.816  0.00  0.00    +0.000 A 
ATOM     26  C   UNL     1       9.457  10.698  18.737  0.00  0.00    +0.000 A 
ATOM     27 BR   UNL     1       8.321   9.315  18.124  0.00  0.00    +0.000 Br
ATOM     28  C   UNL     1       9.536  10.984  20.102  0.00  0.00    +0.000 A 
ATOM     29  C   UNL     1      10.305  12.067  20.538  0.00  0.00    +0.000 A 
ENDBRANCH  22  23
ENDBRANCH  10  22
TORSDOF 2
ENDMDL
MODEL 3
REMARK VINA RESULT:      -6.3      8.765     10.524
REMARK  Name = 
REMARK  4 active torsions:
REMARK  status: ('A' for Active; 'I' for Inactive)
REMARK    1  A    between atoms: C_1  and  C_2
REMARK    2  A    between atoms: C_10  and  S_11
REMARK    3  A    between atoms: S_11  and  C_12
REMARK    4  A    between atoms: C_23  and  C_24
REMARK                            x       y       z     vdW  Elec       q    Type
REMARK                         _______ _______ _______ _____ _____    ______ ____
ROOT
ATOM      1  C   UNL     1      -3.164  14.758  21.763  0.00  0.00    +0.000 C 
ATOM      2  C   UNL     1      -2.535  14.499  23.146  0.00  0.00    +0.000 C 
ATOM      3  C   UNL     1      -1.272  15.327  23.373  0.00  0.00    +0.000 C 
ATOM      4  C   UNL     1      -0.214  15.039  22.273  0.00  0.00    +0.000 C 
ATOM      5  C   UNL     1       0.052  13.524  21.992  0.00  0.00    +0.000 C 
ATOM      6  C   UNL     1      -1.149  12.591  22.375  0.00  0.00    +0.000 C 
ATOM      7  C   UNL     1      -0.522  11.249  22.700  0.00  0.00    +0.000 C 
ATOM      8  C   UNL     1      -0.261  10.614  21.356  0.00  0.00    +0.000 C 
ATOM      9  C   UNL     1       0.275  11.557  20.272  0.00  0.00    +0.000 C 
ATOM     10  C   UNL     1       0.640  10.977  19.115  0.00  0.00    +0.000 C 
ATOM     11  C   UNL     1       1.817  11.521  18.371  0.00  0.00    +0.000 C 
ATOM     12  O   UNL     1       2.392  10.869  17.488  0.00  0.00    +0.000 OA
ATOM     13  C   UNL     1       2.343  12.892  18.743  0.00  0.00    +0.000 C 
ATOM     14  C   UNL     1       2.026  13.289  20.204  0.00  0.00    +0.000 C 
ATOM     15  C   UNL     1       0.524  13.082  20.519  0.00  0.00    +0.000 C 
ATOM     16  C   UNL     1      -0.224  13.948  19.450  0.00  0.00    +0.000 C 
ATOM     17  C   UNL     1      -2.136  13.050  23.426  0.00  0.00    +0.000 C 
ATOM     18  C   UNL     1      -3.477  12.287  23.455  0.00  0.00    +0.000 C 
ATOM     19  C   UNL     1      -4.475  13.268  24.092  0.00  0.00    +0.000 C 
ATOM     20  C   UNL     1      -3.692  14.567  24.106  0.00  0.00    +0.000 C 
ATOM     21  O   UNL     1      -4.022  15.572  24.744  0.00  0.00    +0.000 OA
ENDROOT
BRANCH  10  22
ATOM     22  S   UNL     1      -0.240   9.641  18.431  0.00  0.00    +0.000 S 
BRANCH  22  23
ATOM     23  C   UNL     1      -1.685  10.585  17.954  0.00  0.00    +0.000 A 
ATOM     24  C   UNL     1      -2.377  11.231  18.982  0.00  0.00    +0.000 A 
ATOM     25  C   UNL     1      -3.634  11.779  18.751  0.00  0.00    +0.000 A 
ATOM     26  C   UNL     1      -4.188  11.723  17.480  0.00  0.00    +0.000 A 
ATOM     27 BR   UNL     1      -5.934  12.393  17.199  0.00  0.00    +0.000 Br
ATOM     28  C   UNL     1      -3.482  11.146  16.421  0.00  0.00    +0.000 A 
ATOM     29  C   UNL     1      -2.231  10.570  16.658  0.00  0.00    +0.000 A 
ENDBRANCH  22  23
ENDBRANCH  10  22
TORSDOF 2
ENDMDL
MODEL 4
REMARK VINA RESULT:      -6.3      7.772      9.518
REMARK  Name = 
REMARK  4 active torsions:
REMARK  status: ('A' for Active; 'I' for Inactive)
REMARK    1  A    between atoms: C_1  and  C_2
REMARK    2  A    between atoms: C_10  and  S_11
REMARK    3  A    between atoms: S_11  and  C_12
REMARK    4  A    between atoms: C_23  and  C_24
REMARK                            x       y       z     vdW  Elec       q    Type
REMARK                         _______ _______ _______ _____ _____    ______ ____
ROOT
ATOM      1  C   UNL     1      -3.485  16.013  22.032  0.00  0.00    +0.000 C 
ATOM      2  C   UNL     1      -3.152  15.543  23.461  0.00  0.00    +0.000 C 
ATOM      3  C   UNL     1      -1.915  16.236  24.027  0.00  0.00    +0.000 C 
ATOM      4  C   UNL     1      -0.680  15.999  23.115  0.00  0.00    +0.000 C 
ATOM      5  C   UNL     1      -0.446  14.512  22.691  0.00  0.00    +0.000 C 
ATOM      6  C   UNL     1      -1.747  13.637  22.717  0.00  0.00    +0.000 C 
ATOM      7  C   UNL     1      -1.269  12.221  22.974  0.00  0.00    +0.000 C 
ATOM      8  C   UNL     1      -0.787  11.732  21.629  0.00  0.00    +0.000 C 
ATOM      9  C   UNL     1       0.001  12.753  20.798  0.00  0.00    +0.000 C 
ATOM     10  C   UNL     1       0.552  12.289  19.663  0.00  0.00    +0.000 C 
ATOM     11  C   UNL     1       1.879  12.824  19.230  0.00  0.00    +0.000 C 
ATOM     12  O   UNL     1       2.579  12.238  18.391  0.00  0.00    +0.000 OA
ATOM     13  C   UNL     1       2.396  14.095  19.872  0.00  0.00    +0.000 C 
ATOM     14  C   UNL     1       1.823  14.338  21.287  0.00  0.00    +0.000 C 
ATOM     15  C   UNL     1       0.279  14.213  21.287  0.00  0.00    +0.000 C 
ATOM     16  C   UNL     1      -0.199  15.256  20.221  0.00  0.00    +0.000 C 
ATOM     17  C   UNL     1      -2.894  14.043  23.618  0.00  0.00    +0.000 C 
ATOM     18  C   UNL     1      -4.254  13.390  23.295  0.00  0.00    +0.000 C 
ATOM     19  C   UNL     1      -5.302  14.363  23.859  0.00  0.00    +0.000 C 
ATOM     20  C   UNL     1      -4.469  15.585  24.190  0.00  0.00    +0.000 C 
ATOM     21  O   UNL     1      -4.861  16.531  24.882  0.00  0.00    +0.000 OA
ENDROOT
BRANCH  10  22
ATOM     22  S   UNL     1      -0.249  11.116  18.658  0.00  0.00    +0.000 S 
BRANCH  22  23
ATOM     23  C   UNL     1       0.866   9.761  19.017  0.00  0.00    +0.000 A 
ATOM     24  C   UNL     1       1.529   9.192  17.927  0.00  0.00    +0.000 A 
ATOM     25  C   UNL     1       2.218   7.993  18.068  0.00  0.00    +0.000 A 
ATOM     26  C   UNL     1       2.285   7.377  19.310  0.00  0.00    +0.000 A 
ATOM     27 BR   UNL     1       3.150   5.702  19.469  0.00  0.00    +0.000 Br
ATOM     28  C   UNL     1       1.690   7.965  20.428  0.00  0.00    +0.000 A 
ATOM     29  C   UNL     1       0.974   9.157  20.283  0.00  0.00    +0.000 A 
ENDBRANCH  22  23
ENDBRANCH  10  22
TORSDOF 2
ENDMDL
MODEL 5
REMARK VINA RESULT:      -6.2      2.443      6.593
REMARK  Name = 
REMARK  4 active torsions:
REMARK  status: ('A' for Active; 'I' for Inactive)
REMARK    1  A    between atoms: C_1  and  C_2
REMARK    2  A    between atoms: C_10  and  S_11
REMARK    3  A    between atoms: S_11  and  C_12
REMARK    4  A    between atoms: C_23  and  C_24
REMARK                            x       y       z     vdW  Elec       q    Type
REMARK                         _______ _______ _______ _____ _____    ______ ____
ROOT
ATOM      1  C   UNL     1       8.767  13.170  18.524  0.00  0.00    +0.000 C 
ATOM      2  C   UNL     1      10.272  13.276  18.839  0.00  0.00    +0.000 C 
ATOM      3  C   UNL     1      10.808  12.029  19.539  0.00  0.00    +0.000 C 
ATOM      4  C   UNL     1      10.033  11.756  20.856  0.00  0.00    +0.000 C 
ATOM      5  C   UNL     1       9.863  12.996  21.793  0.00  0.00    +0.000 C 
ATOM      6  C   UNL     1       9.934  14.369  21.040  0.00  0.00    +0.000 C 
ATOM      7  C   UNL     1      10.441  15.362  22.069  0.00  0.00    +0.000 C 
ATOM      8  C   UNL     1       9.226  15.707  22.896  0.00  0.00    +0.000 C 
ATOM      9  C   UNL     1       8.304  14.531  23.239  0.00  0.00    +0.000 C 
ATOM     10  C   UNL     1       7.296  14.800  24.087  0.00  0.00    +0.000 C 
ATOM     11  C   UNL     1       6.878  13.755  25.073  0.00  0.00    +0.000 C 
ATOM     12  O   UNL     1       6.192  14.031  26.067  0.00  0.00    +0.000 OA
ATOM     13  C   UNL     1       7.349  12.330  24.865  0.00  0.00    +0.000 C 
ATOM     14  C   UNL     1       8.665  12.236  24.060  0.00  0.00    +0.000 C 
ATOM     15  C   UNL     1       8.577  13.067  22.756  0.00  0.00    +0.000 C 
ATOM     16  C   UNL     1       7.331  12.488  22.006  0.00  0.00    +0.000 C 
ATOM     17  C   UNL     1      10.678  14.455  19.725  0.00  0.00    +0.000 C 
ATOM     18  C   UNL     1      10.367  15.698  18.866  0.00  0.00    +0.000 C 
ATOM     19  C   UNL     1      10.697  15.275  17.426  0.00  0.00    +0.000 C 
ATOM     20  C   UNL     1      10.891  13.777  17.561  0.00  0.00    +0.000 C 
ATOM     21  O   UNL     1      11.398  13.059  16.694  0.00  0.00    +0.000 OA
ENDROOT
BRANCH  10  22
ATOM     22  S   UNL     1       6.432  16.310  24.049  0.00  0.00    +0.000 S 
BRANCH  22  23
ATOM     23  C   UNL     1       5.578  16.003  22.504  0.00  0.00    +0.000 A 
ATOM     24  C   UNL     1       4.575  15.031  22.528  0.00  0.00    +0.000 A 
ATOM     25  C   UNL     1       4.028  14.552  21.342  0.00  0.00    +0.000 A 
ATOM     26  C   UNL     1       4.452  15.073  20.128  0.00  0.00    +0.000 A 
ATOM     27 BR   UNL     1       3.766  14.352  18.520  0.00  0.00    +0.000 Br
ATOM     28  C   UNL     1       5.401  16.097  20.085  0.00  0.00    +0.000 A 
ATOM     29  C   UNL     1       5.971  16.560  21.274  0.00  0.00    +0.000 A 
ENDBRANCH  22  23
ENDBRANCH  10  22
TORSDOF 2
ENDMDL
MODEL 6
REMARK VINA RESULT:      -6.1      3.842      6.199
REMARK  Name = 
REMARK  4 active torsions:
REMARK  status: ('A' for Active; 'I' for Inactive)
REMARK    1  A    between atoms: C_1  and  C_2
REMARK    2  A    between atoms: C_10  and  S_11
REMARK    3  A    between atoms: S_11  and  C_12
REMARK    4  A    between atoms: C_23  and  C_24
REMARK                            x       y       z     vdW  Elec       q    Type
REMARK                         _______ _______ _______ _____ _____    ______ ____
ROOT
ATOM      1  C   UNL     1       8.919  12.138  20.698  0.00  0.00    +0.000 C 
ATOM      2  C   UNL     1      10.091  13.002  20.192  0.00  0.00    +0.000 C 
ATOM      3  C   UNL     1      10.490  14.082  21.194  0.00  0.00    +0.000 C 
ATOM      4  C   UNL     1       9.286  15.006  21.524  0.00  0.00    +0.000 C 
ATOM      5  C   UNL     1       8.502  15.540  20.281  0.00  0.00    +0.000 C 
ATOM      6  C   UNL     1       8.638  14.630  19.011  0.00  0.00    +0.000 C 
ATOM      7  C   UNL     1       8.457  15.565  17.831  0.00  0.00    +0.000 C 
ATOM      8  C   UNL     1       6.963  15.754  17.720  0.00  0.00    +0.000 C 
ATOM      9  C   UNL     1       6.218  15.918  19.050  0.00  0.00    +0.000 C 
ATOM     10  C   UNL     1       4.912  16.224  18.959  0.00  0.00    +0.000 C 
ATOM     11  C   UNL     1       4.309  17.141  19.976  0.00  0.00    +0.000 C 
ATOM     12  O   UNL     1       3.222  17.705  19.786  0.00  0.00    +0.000 OA
ATOM     13  C   UNL     1       5.077  17.416  21.253  0.00  0.00    +0.000 C 
ATOM     14  C   UNL     1       6.604  17.239  21.094  0.00  0.00    +0.000 C 
ATOM     15  C   UNL     1       6.937  15.876  20.439  0.00  0.00    +0.000 C 
ATOM     16  C   UNL     1       6.270  14.816  21.379  0.00  0.00    +0.000 C 
ATOM     17  C   UNL     1       9.848  13.732  18.870  0.00  0.00    +0.000 C 
ATOM     18  C   UNL     1       9.716  12.600  17.831  0.00  0.00    +0.000 C 
ATOM     19  C   UNL     1      10.709  11.521  18.295  0.00  0.00    +0.000 C 
ATOM     20  C   UNL     1      11.098  12.008  19.677  0.00  0.00    +0.000 C 
ATOM     21  O   UNL     1      12.053  11.571  20.327  0.00  0.00    +0.000 OA
ENDROOT
BRANCH  10  22
ATOM     22  S   UNL     1       3.888  15.555  17.722  0.00  0.00    +0.000 S 
BRANCH  22  23
ATOM     23  C   UNL     1       3.188  14.254  18.735  0.00  0.00    +0.000 A 
ATOM     24  C   UNL     1       2.678  13.142  18.059  0.00  0.00    +0.000 A 
ATOM     25  C   UNL     1       1.903  12.203  18.730  0.00  0.00    +0.000 A 
ATOM     26  C   UNL     1       1.669  12.347  20.091  0.00  0.00    +0.000 A 
ATOM     27 BR   UNL     1       0.540  11.111  20.973  0.00  0.00    +0.000 Br
ATOM     28  C   UNL     1       2.229  13.411  20.800  0.00  0.00    +0.000 A 
ATOM     29  C   UNL     1       2.985  14.371  20.122  0.00  0.00    +0.000 A 
ENDBRANCH  22  23
ENDBRANCH  10  22
TORSDOF 2
ENDMDL
MODEL 7
REMARK VINA RESULT:      -6.1      2.798      6.282
REMARK  Name = 
REMARK  4 active torsions:
REMARK  status: ('A' for Active; 'I' for Inactive)
REMARK    1  A    between atoms: C_1  and  C_2
REMARK    2  A    between atoms: C_10  and  S_11
REMARK    3  A    between atoms: S_11  and  C_12
REMARK    4  A    between atoms: C_23  and  C_24
REMARK                            x       y       z     vdW  Elec       q    Type
REMARK                         _______ _______ _______ _____ _____    ______ ____
ROOT
ATOM      1  C   UNL     1       8.960  12.976  18.694  0.00  0.00    +0.000 C 
ATOM      2  C   UNL     1      10.402  12.838  19.220  0.00  0.00    +0.000 C 
ATOM      3  C   UNL     1      10.496  11.895  20.417  0.00  0.00    +0.000 C 
ATOM      4  C   UNL     1       9.578  12.374  21.575  0.00  0.00    +0.000 C 
ATOM      5  C   UNL     1       9.708  13.888  21.939  0.00  0.00    +0.000 C 
ATOM      6  C   UNL     1      10.234  14.777  20.759  0.00  0.00    +0.000 C 
ATOM      7  C   UNL     1      10.930  15.949  21.423  0.00  0.00    +0.000 C 
ATOM      8  C   UNL     1       9.811  16.880  21.824  0.00  0.00    +0.000 C 
ATOM      9  C   UNL     1       8.562  16.202  22.400  0.00  0.00    +0.000 C 
ATOM     10  C   UNL     1       7.617  17.024  22.887  0.00  0.00    +0.000 C 
ATOM     11  C   UNL     1       6.839  16.603  24.093  0.00  0.00    +0.000 C 
ATOM     12  O   UNL     1       6.191  17.413  24.770  0.00  0.00    +0.000 OA
ATOM     13  C   UNL     1       6.886  15.149  24.517  0.00  0.00    +0.000 C 
ATOM     14  C   UNL     1       8.174  14.424  24.062  0.00  0.00    +0.000 C 
ATOM     15  C   UNL     1       8.431  14.650  22.552  0.00  0.00    +0.000 C 
ATOM     16  C   UNL     1       7.130  14.131  21.851  0.00  0.00    +0.000 C 
ATOM     17  C   UNL     1      11.067  14.141  19.667  0.00  0.00    +0.000 C 
ATOM     18  C   UNL     1      11.199  14.962  18.369  0.00  0.00    +0.000 C 
ATOM     19  C   UNL     1      11.498  13.926  17.274  0.00  0.00    +0.000 C 
ATOM     20  C   UNL     1      11.235  12.613  17.986  0.00  0.00    +0.000 C 
ATOM     21  O   UNL     1      11.573  11.506  17.555  0.00  0.00    +0.000 OA
ENDROOT
BRANCH  10  22
ATOM     22  S   UNL     1       7.237  18.547  22.134  0.00  0.00    +0.000 S 
BRANCH  22  23
ATOM     23  C   UNL     1       6.279  17.861  20.785  0.00  0.00    +0.000 A 
ATOM     24  C   UNL     1       4.930  17.606  21.044  0.00  0.00    +0.000 A 
ATOM     25  C   UNL     1       4.170  16.856  20.153  0.00  0.00    +0.000 A 
ATOM     26  C   UNL     1       4.743  16.393  18.977  0.00  0.00    +0.000 A 
ATOM     27 BR   UNL     1       3.725  15.301  17.816  0.00  0.00    +0.000 Br
ATOM     28  C   UNL     1       6.070  16.698  18.664  0.00  0.00    +0.000 A 
ATOM     29  C   UNL     1       6.843  17.428  19.572  0.00  0.00    +0.000 A 
ENDBRANCH  22  23
ENDBRANCH  10  22
TORSDOF 2
ENDMDL
MODEL 8
REMARK VINA RESULT:      -6.0      2.677      6.707
REMARK  Name = 
REMARK  4 active torsions:
REMARK  status: ('A' for Active; 'I' for Inactive)
REMARK    1  A    between atoms: C_1  and  C_2
REMARK    2  A    between atoms: C_10  and  S_11
REMARK    3  A    between atoms: S_11  and  C_12
REMARK    4  A    between atoms: C_23  and  C_24
REMARK                            x       y       z     vdW  Elec       q    Type
REMARK                         _______ _______ _______ _____ _____    ______ ____
ROOT
ATOM      1  C   UNL     1       9.466  13.200  18.109  0.00  0.00    +0.000 C 
ATOM      2  C   UNL     1      10.925  13.400  18.564  0.00  0.00    +0.000 C 
ATOM      3  C   UNL     1      11.443  12.222  19.386  0.00  0.00    +0.000 C 
ATOM      4  C   UNL     1      10.551  11.981  20.634  0.00  0.00    +0.000 C 
ATOM      5  C   UNL     1      10.231  13.259  21.475  0.00  0.00    +0.000 C 
ATOM      6  C   UNL     1      10.315  14.592  20.653  0.00  0.00    +0.000 C 
ATOM      7  C   UNL     1      10.668  15.663  21.667  0.00  0.00    +0.000 C 
ATOM      8  C   UNL     1       9.361  15.989  22.348  0.00  0.00    +0.000 C 
ATOM      9  C   UNL     1       8.463  14.787  22.667  0.00  0.00    +0.000 C 
ATOM     10  C   UNL     1       7.364  15.050  23.394  0.00  0.00    +0.000 C 
ATOM     11  C   UNL     1       6.896  14.040  24.393  0.00  0.00    +0.000 C 
ATOM     12  O   UNL     1       6.101  14.333  25.297  0.00  0.00    +0.000 OA
ATOM     13  C   UNL     1       7.451  12.631  24.317  0.00  0.00    +0.000 C 
ATOM     14  C   UNL     1       8.845  12.561  23.653  0.00  0.00    +0.000 C 
ATOM     15  C   UNL     1       8.851  13.316  22.300  0.00  0.00    +0.000 C 
ATOM     16  C   UNL     1       7.716  12.633  21.465  0.00  0.00    +0.000 C 
ATOM     17  C   UNL     1      11.183  14.644  19.415  0.00  0.00    +0.000 C 
ATOM     18  C   UNL     1      10.905  15.821  18.458  0.00  0.00    +0.000 C 
ATOM     19  C   UNL     1      11.399  15.339  17.084  0.00  0.00    +0.000 C 
ATOM     20  C   UNL     1      11.646  13.863  17.327  0.00  0.00    +0.000 C 
ATOM     21  O   UNL     1      12.272  13.125  16.557  0.00  0.00    +0.000 OA
ENDROOT
BRANCH  10  22
ATOM     22  S   UNL     1       6.439  16.508  23.181  0.00  0.00    +0.000 S 
BRANCH  22  23
ATOM     23  C   UNL     1       5.760  16.075  21.581  0.00  0.00    +0.000 A 
ATOM     24  C   UNL     1       6.070  16.928  20.520  0.00  0.00    +0.000 A 
ATOM     25  C   UNL     1       5.400  16.817  19.306  0.00  0.00    +0.000 A 
ATOM     26  C   UNL     1       4.446  15.823  19.133  0.00  0.00    +0.000 A 
ATOM     27 BR   UNL     1       3.480  15.737  17.510  0.00  0.00    +0.000 Br
ATOM     28  C   UNL     1       4.173  14.913  20.158  0.00  0.00    +0.000 A 
ATOM     29  C   UNL     1       4.826  15.041  21.387  0.00  0.00    +0.000 A 
ENDBRANCH  22  23
ENDBRANCH  10  22
TORSDOF 2
ENDMDL
MODEL 9
REMARK VINA RESULT:      -6.0      2.921      6.211
REMARK  Name = 
REMARK  4 active torsions:
REMARK  status: ('A' for Active; 'I' for Inactive)
REMARK    1  A    between atoms: C_1  and  C_2
REMARK    2  A    between atoms: C_10  and  S_11
REMARK    3  A    between atoms: S_11  and  C_12
REMARK    4  A    between atoms: C_23  and  C_24
REMARK                            x       y       z     vdW  Elec       q    Type
REMARK                         _______ _______ _______ _____ _____    ______ ____
ROOT
ATOM      1  C   UNL     1       9.047  12.434  18.710  0.00  0.00    +0.000 C 
ATOM      2  C   UNL     1      10.503  12.750  19.105  0.00  0.00    +0.000 C 
ATOM      3  C   UNL     1      10.854  12.223  20.495  0.00  0.00    +0.000 C 
ATOM      4  C   UNL     1       9.899  12.811  21.569  0.00  0.00    +0.000 C 
ATOM      5  C   UNL     1       9.699  14.360  21.501  0.00  0.00    +0.000 C 
ATOM      6  C   UNL     1       9.963  14.967  20.079  0.00  0.00    +0.000 C 
ATOM      7  C   UNL     1      10.404  16.396  20.333  0.00  0.00    +0.000 C 
ATOM      8  C   UNL     1       9.120  17.151  20.583  0.00  0.00    +0.000 C 
ATOM      9  C   UNL     1       8.080  16.422  21.441  0.00  0.00    +0.000 C 
ATOM     10  C   UNL     1       6.994  17.137  21.784  0.00  0.00    +0.000 C 
ATOM     11  C   UNL     1       6.380  16.922  23.131  0.00  0.00    +0.000 C 
ATOM     12  O   UNL     1       5.593  17.740  23.629  0.00  0.00    +0.000 OA
ATOM     13  C   UNL     1       6.770  15.690  23.920  0.00  0.00    +0.000 C 
ATOM     14  C   UNL     1       8.169  15.147  23.548  0.00  0.00    +0.000 C 
ATOM     15  C   UNL     1       8.308  14.984  22.014  0.00  0.00    +0.000 C 
ATOM     16  C   UNL     1       7.131  14.033  21.612  0.00  0.00    +0.000 C 
ATOM     17  C   UNL     1      10.874  14.233  19.118  0.00  0.00    +0.000 C 
ATOM     18  C   UNL     1      10.765  14.664  17.642  0.00  0.00    +0.000 C 
ATOM     19  C   UNL     1      11.247  13.445  16.839  0.00  0.00    +0.000 C 
ATOM     20  C   UNL     1      11.315  12.362  17.898  0.00  0.00    +0.000 C 
ATOM     21  O   UNL     1      11.876  11.272  17.747  0.00  0.00    +0.000 OA
ENDROOT
BRANCH  10  22
ATOM     22  S   UNL     1       6.251  18.272  20.695  0.00  0.00    +0.000 S 
BRANCH  22  23
ATOM     23  C   UNL     1       5.267  17.070  19.804  0.00  0.00    +0.000 A 
ATOM     24  C   UNL     1       3.975  16.842  20.284  0.00  0.00    +0.000 A 
ATOM     25  C   UNL     1       3.228  15.765  19.819  0.00  0.00    +0.000 A 
ATOM     26  C   UNL     1       3.753  14.934  18.839  0.00  0.00    +0.000 A 
ATOM     27 BR   UNL     1       2.765  13.422  18.279  0.00  0.00    +0.000 Br
ATOM     28  C   UNL     1       5.014  15.186  18.293  0.00  0.00    +0.000 A 
ATOM     29  C   UNL     1       5.777  16.252  18.780  0.00  0.00    +0.000 A 
ENDBRANCH  22  23
ENDBRANCH  10  22
TORSDOF 2
ENDMDL
