MODEL 1
REMARK VINA RESULT:      -8.7      0.000      0.000
REMARK  Name = 
REMARK  5 active torsions:
REMARK  status: ('A' for Active; 'I' for Inactive)
REMARK    1  A    between atoms: C_1  and  O_2
REMARK    2  A    between atoms: O_2  and  C_3
REMARK    3  A    between atoms: C_11  and  C_12
REMARK    4  A    between atoms: N_14  and  C_15
REMARK    5  A    between atoms: C_18  and  C_19
REMARK                            x       y       z     vdW  Elec       q    Type
REMARK                         _______ _______ _______ _____ _____    ______ ____
ROOT
ATOM      1  C   UNL     1       2.574   5.009  18.464  0.00  0.00    +0.000 C 
ATOM      2  O   UNL     1       1.624   4.932  17.684  0.00  0.00    +0.000 OA
ATOM      3  N   UNL     1       2.952   6.154  19.145  0.00  0.00    +0.000 N 
ATOM      4  H   UNL     1       3.880   6.161  19.561  0.00  0.00    +0.000 HD
ENDROOT
BRANCH   1  13
ATOM      5  C   UNL     1       6.915   5.644  17.355  0.00  0.00    +0.000 A 
ATOM      6  C   UNL     1       7.238   5.633  15.995  0.00  0.00    +0.000 A 
ATOM      7  C   UNL     1       6.565   4.798  15.105  0.00  0.00    +0.000 A 
ATOM      8  C   UNL     1       5.525   3.997  15.562  0.00  0.00    +0.000 A 
ATOM      9  C   UNL     1       5.155   4.027  16.915  0.00  0.00    +0.000 A 
ATOM     10  C   UNL     1       5.880   4.820  17.825  0.00  0.00    +0.000 A 
ATOM     11  O   UNL     1       5.542   4.886  19.154  0.00  0.00    +0.000 OA
ATOM     12  C   UNL     1       4.611   3.907  19.622  0.00  0.00    +0.000 C 
ATOM     13  C   UNL     1       3.429   3.756  18.686  0.00  0.00    +0.000 C 
ATOM     14  C   UNL     1       3.955   3.233  17.356  0.00  0.00    +0.000 C 
BRANCH   5  16
ATOM     15  C   UNL     1       7.677   7.891  17.574  0.00  0.00    +0.000 C 
ATOM     16  O   UNL     1       7.631   6.564  18.078  0.00  0.00    +0.000 OA
ENDBRANCH   5  16
ENDBRANCH   1  13
BRANCH   3  17
ATOM     17  C   UNL     1       2.270   7.390  19.160  0.00  0.00    +0.000 A 
ATOM     18  C   UNL     1       1.680   7.917  20.306  0.00  0.00    +0.000 A 
ATOM     19  C   UNL     1       0.994   9.134  20.261  0.00  0.00    +0.000 A 
ATOM     20  C   UNL     1       0.890   9.859  19.072  0.00  0.00    +0.000 A 
ATOM     21  C   UNL     1       1.513   9.352  17.927  0.00  0.00    +0.000 A 
ATOM     22  C   UNL     1       2.199   8.126  17.972  0.00  0.00    +0.000 A 
BRANCH  20  23
ATOM     23  C   UNL     1       0.152  11.109  19.041  0.00  0.00    +0.000 A 
ATOM     24  C   UNL     1       0.370  12.339  19.702  0.00  0.00    +0.000 A 
ATOM     25  N   UNL     1      -0.558  13.256  19.410  0.00  0.00    +0.000 NA
ATOM     26  N   UNL     1      -1.373  12.615  18.557  0.00  0.00    +0.000 N 
ATOM     27  C   UNL     1      -0.988  11.332  18.299  0.00  0.00    +0.000 A 
ATOM     28  H   UNL     1      -2.177  13.114  18.188  0.00  0.00    +0.000 HD
ENDBRANCH  20  23
ENDBRANCH   3  17
TORSDOF 4
ENDMDL
MODEL 2
REMARK VINA RESULT:      -8.5      0.347      1.001
REMARK  Name = 
REMARK  5 active torsions:
REMARK  status: ('A' for Active; 'I' for Inactive)
REMARK    1  A    between atoms: C_1  and  O_2
REMARK    2  A    between atoms: O_2  and  C_3
REMARK    3  A    between atoms: C_11  and  C_12
REMARK    4  A    between atoms: N_14  and  C_15
REMARK    5  A    between atoms: C_18  and  C_19
REMARK                            x       y       z     vdW  Elec       q    Type
REMARK                         _______ _______ _______ _____ _____    ______ ____
ROOT
ATOM      1  C   UNL     1       2.600   4.952  18.376  0.00  0.00    +0.000 C 
ATOM      2  O   UNL     1       1.608   4.869  17.651  0.00  0.00    +0.000 OA
ATOM      3  N   UNL     1       3.045   6.115  18.982  0.00  0.00    +0.000 N 
ATOM      4  H   UNL     1       3.994   6.112  19.349  0.00  0.00    +0.000 HD
ENDROOT
BRANCH   1  13
ATOM      5  C   UNL     1       6.959   5.496  17.290  0.00  0.00    +0.000 A 
ATOM      6  C   UNL     1       7.290   5.469  15.932  0.00  0.00    +0.000 A 
ATOM      7  C   UNL     1       6.606   4.640  15.044  0.00  0.00    +0.000 A 
ATOM      8  C   UNL     1       5.549   3.862  15.501  0.00  0.00    +0.000 A 
ATOM      9  C   UNL     1       5.171   3.910  16.851  0.00  0.00    +0.000 A 
ATOM     10  C   UNL     1       5.906   4.696  17.760  0.00  0.00    +0.000 A 
ATOM     11  O   UNL     1       5.561   4.778  19.086  0.00  0.00    +0.000 OA
ATOM     12  C   UNL     1       4.608   3.820  19.556  0.00  0.00    +0.000 C 
ATOM     13  C   UNL     1       3.430   3.685  18.613  0.00  0.00    +0.000 C 
ATOM     14  C   UNL     1       3.954   3.141  17.290  0.00  0.00    +0.000 C 
BRANCH   5  16
ATOM     15  C   UNL     1       7.643   7.760  17.580  0.00  0.00    +0.000 C 
ATOM     16  O   UNL     1       7.688   6.408  18.011  0.00  0.00    +0.000 OA
ENDBRANCH   5  16
ENDBRANCH   1  13
BRANCH   3  17
ATOM     17  C   UNL     1       2.401   7.370  18.974  0.00  0.00    +0.000 A 
ATOM     18  C   UNL     1       2.383   8.207  17.862  0.00  0.00    +0.000 A 
ATOM     19  C   UNL     1       1.751   9.453  17.913  0.00  0.00    +0.000 A 
ATOM     20  C   UNL     1       1.113   9.889  19.076  0.00  0.00    +0.000 A 
ATOM     21  C   UNL     1       1.096   9.036  20.185  0.00  0.00    +0.000 A 
ATOM     22  C   UNL     1       1.735   7.785  20.133  0.00  0.00    +0.000 A 
BRANCH  20  23
ATOM     23  C   UNL     1       0.484  11.196  19.118  0.00  0.00    +0.000 A 
ATOM     24  C   UNL     1       1.034  12.496  19.187  0.00  0.00    +0.000 A 
ATOM     25  N   UNL     1       0.102  13.453  19.218  0.00  0.00    +0.000 NA
ATOM     26  N   UNL     1      -1.051  12.768  19.167  0.00  0.00    +0.000 N 
ATOM     27  C   UNL     1      -0.877  11.416  19.100  0.00  0.00    +0.000 A 
ATOM     28  H   UNL     1      -1.924  13.287  19.183  0.00  0.00    +0.000 HD
ENDBRANCH  20  23
ENDBRANCH   3  17
TORSDOF 4
ENDMDL
MODEL 3
REMARK VINA RESULT:      -7.8      1.272      1.492
REMARK  Name = 
REMARK  5 active torsions:
REMARK  status: ('A' for Active; 'I' for Inactive)
REMARK    1  A    between atoms: C_1  and  O_2
REMARK    2  A    between atoms: O_2  and  C_3
REMARK    3  A    between atoms: C_11  and  C_12
REMARK    4  A    between atoms: N_14  and  C_15
REMARK    5  A    between atoms: C_18  and  C_19
REMARK                            x       y       z     vdW  Elec       q    Type
REMARK                         _______ _______ _______ _____ _____    ______ ____
ROOT
ATOM      1  C   UNL     1       2.023   4.114  19.240  0.00  0.00    +0.000 C 
ATOM      2  O   UNL     1       0.910   4.023  19.757  0.00  0.00    +0.000 OA
ATOM      3  N   UNL     1       2.664   5.304  18.936  0.00  0.00    +0.000 N 
ATOM      4  H   UNL     1       3.455   5.255  18.300  0.00  0.00    +0.000 HD
ENDROOT
BRANCH   1  13
ATOM      5  C   UNL     1       6.388   4.805  18.265  0.00  0.00    +0.000 A 
ATOM      6  C   UNL     1       6.688   5.339  17.008  0.00  0.00    +0.000 A 
ATOM      7  C   UNL     1       5.924   5.011  15.889  0.00  0.00    +0.000 A 
ATOM      8  C   UNL     1       4.820   4.179  16.026  0.00  0.00    +0.000 A 
ATOM      9  C   UNL     1       4.475   3.669  17.287  0.00  0.00    +0.000 A 
ATOM     10  C   UNL     1       5.287   3.946  18.404  0.00  0.00    +0.000 A 
ATOM     11  O   UNL     1       4.977   3.475  19.656  0.00  0.00    +0.000 OA
ATOM     12  C   UNL     1       3.963   2.468  19.723  0.00  0.00    +0.000 C 
ATOM     13  C   UNL     1       2.758   2.819  18.875  0.00  0.00    +0.000 C 
ATOM     14  C   UNL     1       3.211   2.861  17.421  0.00  0.00    +0.000 C 
BRANCH   5  16
ATOM     15  C   UNL     1       8.065   6.355  18.943  0.00  0.00    +0.000 C 
ATOM     16  O   UNL     1       7.200   5.276  19.265  0.00  0.00    +0.000 OA
ENDBRANCH   5  16
ENDBRANCH   1  13
BRANCH   3  17
ATOM     17  C   UNL     1       2.220   6.605  19.255  0.00  0.00    +0.000 A 
ATOM     18  C   UNL     1       1.815   6.977  20.534  0.00  0.00    +0.000 A 
ATOM     19  C   UNL     1       1.360   8.274  20.792  0.00  0.00    +0.000 A 
ATOM     20  C   UNL     1       1.308   9.233  19.778  0.00  0.00    +0.000 A 
ATOM     21  C   UNL     1       1.749   8.876  18.500  0.00  0.00    +0.000 A 
ATOM     22  C   UNL     1       2.203   7.570  18.241  0.00  0.00    +0.000 A 
BRANCH  20  23
ATOM     23  C   UNL     1       0.808  10.567  20.060  0.00  0.00    +0.000 A 
ATOM     24  C   UNL     1       0.666  11.705  19.234  0.00  0.00    +0.000 A 
ATOM     25  N   UNL     1       0.169  12.760  19.886  0.00  0.00    +0.000 NA
ATOM     26  N   UNL     1      -0.011  12.299  21.135  0.00  0.00    +0.000 N 
ATOM     27  C   UNL     1       0.349  10.993  21.288  0.00  0.00    +0.000 A 
ATOM     28  H   UNL     1      -0.385  12.932  21.835  0.00  0.00    +0.000 HD
ENDBRANCH  20  23
ENDBRANCH   3  17
TORSDOF 4
ENDMDL
MODEL 4
REMARK VINA RESULT:      -7.6      1.256      1.355
REMARK  Name = 
REMARK  5 active torsions:
REMARK  status: ('A' for Active; 'I' for Inactive)
REMARK    1  A    between atoms: C_1  and  O_2
REMARK    2  A    between atoms: O_2  and  C_3
REMARK    3  A    between atoms: C_11  and  C_12
REMARK    4  A    between atoms: N_14  and  C_15
REMARK    5  A    between atoms: C_18  and  C_19
REMARK                            x       y       z     vdW  Elec       q    Type
REMARK                         _______ _______ _______ _____ _____    ______ ____
ROOT
ATOM      1  C   UNL     1       2.587   4.719  19.515  0.00  0.00    +0.000 C 
ATOM      2  O   UNL     1       2.430   4.859  20.728  0.00  0.00    +0.000 OA
ATOM      3  N   UNL     1       2.388   5.709  18.567  0.00  0.00    +0.000 N 
ATOM      4  H   UNL     1       2.312   5.415  17.598  0.00  0.00    +0.000 HD
ENDROOT
BRANCH   1  13
ATOM      5  C   UNL     1       6.785   4.711  17.823  0.00  0.00    +0.000 A 
ATOM      6  C   UNL     1       6.963   5.256  16.548  0.00  0.00    +0.000 A 
ATOM      7  C   UNL     1       5.980   5.124  15.568  0.00  0.00    +0.000 A 
ATOM      8  C   UNL     1       4.784   4.484  15.872  0.00  0.00    +0.000 A 
ATOM      9  C   UNL     1       4.566   3.972  17.159  0.00  0.00    +0.000 A 
ATOM     10  C   UNL     1       5.587   4.045  18.128  0.00  0.00    +0.000 A 
ATOM     11  O   UNL     1       5.409   3.566  19.402  0.00  0.00    +0.000 OA
ATOM     12  C   UNL     1       4.259   2.743  19.616  0.00  0.00    +0.000 C 
ATOM     13  C   UNL     1       3.012   3.340  18.996  0.00  0.00    +0.000 C 
ATOM     14  C   UNL     1       3.220   3.385  17.488  0.00  0.00    +0.000 C 
BRANCH   5  16
ATOM     15  C   UNL     1       8.043   6.344  19.018  0.00  0.00    +0.000 C 
ATOM     16  O   UNL     1       7.820   4.982  18.682  0.00  0.00    +0.000 OA
ENDBRANCH   5  16
ENDBRANCH   1  13
BRANCH   3  17
ATOM     17  C   UNL     1       2.081   7.064  18.817  0.00  0.00    +0.000 A 
ATOM     18  C   UNL     1       1.691   7.537  20.067  0.00  0.00    +0.000 A 
ATOM     19  C   UNL     1       1.373   8.885  20.255  0.00  0.00    +0.000 A 
ATOM     20  C   UNL     1       1.446   9.796  19.199  0.00  0.00    +0.000 A 
ATOM     21  C   UNL     1       1.873   9.334  17.949  0.00  0.00    +0.000 A 
ATOM     22  C   UNL     1       2.189   7.977  17.761  0.00  0.00    +0.000 A 
BRANCH  20  23
ATOM     23  C   UNL     1       1.088  11.187  19.408  0.00  0.00    +0.000 A 
ATOM     24  C   UNL     1       0.055  11.782  20.167  0.00  0.00    +0.000 A 
ATOM     25  N   UNL     1       0.057  13.116  20.091  0.00  0.00    +0.000 NA
ATOM     26  N   UNL     1       1.096  13.381  19.282  0.00  0.00    +0.000 N 
ATOM     27  C   UNL     1       1.749  12.263  18.853  0.00  0.00    +0.000 A 
ATOM     28  H   UNL     1       1.304  14.350  19.064  0.00  0.00    +0.000 HD
ENDBRANCH  20  23
ENDBRANCH   3  17
TORSDOF 4
ENDMDL
MODEL 5
REMARK VINA RESULT:      -7.6      1.624      2.267
REMARK  Name = 
REMARK  5 active torsions:
REMARK  status: ('A' for Active; 'I' for Inactive)
REMARK    1  A    between atoms: C_1  and  O_2
REMARK    2  A    between atoms: O_2  and  C_3
REMARK    3  A    between atoms: C_11  and  C_12
REMARK    4  A    between atoms: N_14  and  C_15
REMARK    5  A    between atoms: C_18  and  C_19
REMARK                            x       y       z     vdW  Elec       q    Type
REMARK                         _______ _______ _______ _____ _____    ______ ____
ROOT
ATOM      1  C   UNL     1       2.436   4.562  18.063  0.00  0.00    +0.000 C 
ATOM      2  O   UNL     1       1.226   4.332  18.077  0.00  0.00    +0.000 OA
ATOM      3  N   UNL     1       3.028   5.731  18.510  0.00  0.00    +0.000 N 
ATOM      4  H   UNL     1       3.989   5.902  18.226  0.00  0.00    +0.000 HD
ENDROOT
BRANCH   1  13
ATOM      5  C   UNL     1       6.801   5.423  18.890  0.00  0.00    +0.000 A 
ATOM      6  C   UNL     1       7.422   6.400  18.105  0.00  0.00    +0.000 A 
ATOM      7  C   UNL     1       7.077   6.569  16.765  0.00  0.00    +0.000 A 
ATOM      8  C   UNL     1       6.069   5.791  16.208  0.00  0.00    +0.000 A 
ATOM      9  C   UNL     1       5.402   4.837  16.990  0.00  0.00    +0.000 A 
ATOM     10  C   UNL     1       5.798   4.619  18.325  0.00  0.00    +0.000 A 
ATOM     11  O   UNL     1       5.163   3.704  19.126  0.00  0.00    +0.000 OA
ATOM     12  C   UNL     1       4.280   2.789  18.470  0.00  0.00    +0.000 C 
ATOM     13  C   UNL     1       3.368   3.491  17.484  0.00  0.00    +0.000 C 
ATOM     14  C   UNL     1       4.243   4.088  16.389  0.00  0.00    +0.000 C 
BRANCH   5  16
ATOM     15  C   UNL     1       8.601   5.242  20.440  0.00  0.00    +0.000 C 
ATOM     16  O   UNL     1       7.214   5.430  20.197  0.00  0.00    +0.000 OA
ENDBRANCH   5  16
ENDBRANCH   1  13
BRANCH   3  17
ATOM     17  C   UNL     1       2.383   6.810  19.153  0.00  0.00    +0.000 A 
ATOM     18  C   UNL     1       2.141   8.030  18.528  0.00  0.00    +0.000 A 
ATOM     19  C   UNL     1       1.520   9.076  19.218  0.00  0.00    +0.000 A 
ATOM     20  C   UNL     1       1.118   8.924  20.547  0.00  0.00    +0.000 A 
ATOM     21  C   UNL     1       1.325   7.687  21.167  0.00  0.00    +0.000 A 
ATOM     22  C   UNL     1       1.953   6.638  20.473  0.00  0.00    +0.000 A 
BRANCH  20  23
ATOM     23  C   UNL     1       0.497  10.030  21.254  0.00  0.00    +0.000 A 
ATOM     24  C   UNL     1      -0.050  10.118  22.553  0.00  0.00    +0.000 A 
ATOM     25  N   UNL     1      -0.541  11.330  22.828  0.00  0.00    +0.000 NA
ATOM     26  N   UNL     1      -0.308  12.024  21.702  0.00  0.00    +0.000 N 
ATOM     27  C   UNL     1       0.316  11.294  20.734  0.00  0.00    +0.000 A 
ATOM     28  H   UNL     1      -0.603  12.995  21.662  0.00  0.00    +0.000 HD
ENDBRANCH  20  23
ENDBRANCH   3  17
TORSDOF 4
ENDMDL
MODEL 6
REMARK VINA RESULT:      -7.5      1.310      1.652
REMARK  Name = 
REMARK  5 active torsions:
REMARK  status: ('A' for Active; 'I' for Inactive)
REMARK    1  A    between atoms: C_1  and  O_2
REMARK    2  A    between atoms: O_2  and  C_3
REMARK    3  A    between atoms: C_11  and  C_12
REMARK    4  A    between atoms: N_14  and  C_15
REMARK    5  A    between atoms: C_18  and  C_19
REMARK                            x       y       z     vdW  Elec       q    Type
REMARK                         _______ _______ _______ _____ _____    ______ ____
ROOT
ATOM      1  C   UNL     1       2.437   4.656  18.305  0.00  0.00    +0.000 C 
ATOM      2  O   UNL     1       1.336   4.375  18.781  0.00  0.00    +0.000 OA
ATOM      3  N   UNL     1       2.946   5.938  18.183  0.00  0.00    +0.000 N 
ATOM      4  H   UNL     1       3.742   6.063  17.563  0.00  0.00    +0.000 HD
ENDROOT
BRANCH   1  13
ATOM      5  C   UNL     1       6.852   5.384  18.979  0.00  0.00    +0.000 A 
ATOM      6  C   UNL     1       7.493   6.279  18.117  0.00  0.00    +0.000 A 
ATOM      7  C   UNL     1       7.123   6.374  16.777  0.00  0.00    +0.000 A 
ATOM      8  C   UNL     1       6.071   5.604  16.295  0.00  0.00    +0.000 A 
ATOM      9  C   UNL     1       5.385   4.733  17.154  0.00  0.00    +0.000 A 
ATOM     10  C   UNL     1       5.804   4.588  18.491  0.00  0.00    +0.000 A 
ATOM     11  O   UNL     1       5.151   3.755  19.366  0.00  0.00    +0.000 OA
ATOM     12  C   UNL     1       4.215   2.838  18.792  0.00  0.00    +0.000 C 
ATOM     13  C   UNL     1       3.310   3.510  17.780  0.00  0.00    +0.000 C 
ATOM     14  C   UNL     1       4.182   3.996  16.629  0.00  0.00    +0.000 C 
BRANCH   5  16
ATOM     15  C   UNL     1       8.680   5.228  20.499  0.00  0.00    +0.000 C 
ATOM     16  O   UNL     1       7.297   5.460  20.274  0.00  0.00    +0.000 OA
ENDBRANCH   5  16
ENDBRANCH   1  13
BRANCH   3  17
ATOM     17  C   UNL     1       2.361   7.127  18.669  0.00  0.00    +0.000 A 
ATOM     18  C   UNL     1       2.055   7.329  20.012  0.00  0.00    +0.000 A 
ATOM     19  C   UNL     1       1.453   8.516  20.438  0.00  0.00    +0.000 A 
ATOM     20  C   UNL     1       1.151   9.536  19.532  0.00  0.00    +0.000 A 
ATOM     21  C   UNL     1       1.491   9.354  18.187  0.00  0.00    +0.000 A 
ATOM     22  C   UNL     1       2.093   8.157  17.760  0.00  0.00    +0.000 A 
BRANCH  20  23
ATOM     23  C   UNL     1       0.503  10.752  19.990  0.00  0.00    +0.000 A 
ATOM     24  C   UNL     1      -0.638  10.954  20.799  0.00  0.00    +0.000 A 
ATOM     25  N   UNL     1      -0.919  12.247  20.984  0.00  0.00    +0.000 NA
ATOM     26  N   UNL     1       0.044  12.879  20.294  0.00  0.00    +0.000 N 
ATOM     27  C   UNL     1       0.923  12.029  19.688  0.00  0.00    +0.000 A 
ATOM     28  H   UNL     1       0.042  13.894  20.278  0.00  0.00    +0.000 HD
ENDBRANCH  20  23
ENDBRANCH   3  17
TORSDOF 4
ENDMDL
MODEL 7
REMARK VINA RESULT:      -7.3      4.498      7.115
REMARK  Name = 
REMARK  5 active torsions:
REMARK  status: ('A' for Active; 'I' for Inactive)
REMARK    1  A    between atoms: C_1  and  O_2
REMARK    2  A    between atoms: O_2  and  C_3
REMARK    3  A    between atoms: C_11  and  C_12
REMARK    4  A    between atoms: N_14  and  C_15
REMARK    5  A    between atoms: C_18  and  C_19
REMARK                            x       y       z     vdW  Elec       q    Type
REMARK                         _______ _______ _______ _____ _____    ______ ____
ROOT
ATOM      1  C   UNL     1       7.648   6.868  17.977  0.00  0.00    +0.000 C 
ATOM      2  O   UNL     1       8.201   6.558  19.032  0.00  0.00    +0.000 OA
ATOM      3  N   UNL     1       7.575   8.154  17.466  0.00  0.00    +0.000 N 
ATOM      4  H   UNL     1       6.896   8.321  16.729  0.00  0.00    +0.000 HD
ENDROOT
BRANCH   1  13
ATOM      5  C   UNL     1       3.145   7.309  17.897  0.00  0.00    +0.000 A 
ATOM      6  C   UNL     1       2.442   6.921  19.042  0.00  0.00    +0.000 A 
ATOM      7  C   UNL     1       2.871   5.843  19.816  0.00  0.00    +0.000 A 
ATOM      8  C   UNL     1       4.039   5.171  19.476  0.00  0.00    +0.000 A 
ATOM      9  C   UNL     1       4.784   5.574  18.357  0.00  0.00    +0.000 A 
ATOM     10  C   UNL     1       4.313   6.619  17.538  0.00  0.00    +0.000 A 
ATOM     11  O   UNL     1       5.018   7.051  16.442  0.00  0.00    +0.000 OA
ATOM     12  C   UNL     1       6.095   6.214  16.010  0.00  0.00    +0.000 C 
ATOM     13  C   UNL     1       6.961   5.762  17.168  0.00  0.00    +0.000 C 
ATOM     14  C   UNL     1       6.100   4.898  18.081  0.00  0.00    +0.000 C 
BRANCH   5  16
ATOM     15  C   UNL     1       1.803   9.270  18.080  0.00  0.00    +0.000 C 
ATOM     16  O   UNL     1       2.622   8.421  17.288  0.00  0.00    +0.000 OA
ENDBRANCH   5  16
ENDBRANCH   1  13
BRANCH   3  17
ATOM     17  C   UNL     1       8.200   9.305  17.990  0.00  0.00    +0.000 A 
ATOM     18  C   UNL     1       9.007   9.282  19.124  0.00  0.00    +0.000 A 
ATOM     19  C   UNL     1       9.583  10.456  19.617  0.00  0.00    +0.000 A 
ATOM     20  C   UNL     1       9.374  11.682  18.982  0.00  0.00    +0.000 A 
ATOM     21  C   UNL     1       8.594  11.706  17.821  0.00  0.00    +0.000 A 
ATOM     22  C   UNL     1       8.012  10.524  17.329  0.00  0.00    +0.000 A 
BRANCH  20  23
ATOM     23  C   UNL     1       9.961  12.895  19.524  0.00  0.00    +0.000 A 
ATOM     24  C   UNL     1      10.244  13.283  20.853  0.00  0.00    +0.000 A 
ATOM     25  N   UNL     1      10.783  14.503  20.933  0.00  0.00    +0.000 NA
ATOM     26  N   UNL     1      10.849  14.901  19.652  0.00  0.00    +0.000 N 
ATOM     27  C   UNL     1      10.376  13.973  18.771  0.00  0.00    +0.000 A 
ATOM     28  H   UNL     1      11.229  15.820  19.450  0.00  0.00    +0.000 HD
ENDBRANCH  20  23
ENDBRANCH   3  17
TORSDOF 4
ENDMDL
MODEL 8
REMARK VINA RESULT:      -7.1      4.525      7.238
REMARK  Name = 
REMARK  5 active torsions:
REMARK  status: ('A' for Active; 'I' for Inactive)
REMARK    1  A    between atoms: C_1  and  O_2
REMARK    2  A    between atoms: O_2  and  C_3
REMARK    3  A    between atoms: C_11  and  C_12
REMARK    4  A    between atoms: N_14  and  C_15
REMARK    5  A    between atoms: C_18  and  C_19
REMARK                            x       y       z     vdW  Elec       q    Type
REMARK                         _______ _______ _______ _____ _____    ______ ____
ROOT
ATOM      1  C   UNL     1       7.632   6.921  17.938  0.00  0.00    +0.000 C 
ATOM      2  O   UNL     1       8.198   6.638  18.994  0.00  0.00    +0.000 OA
ATOM      3  N   UNL     1       7.538   8.195  17.404  0.00  0.00    +0.000 N 
ATOM      4  H   UNL     1       6.849   8.340  16.670  0.00  0.00    +0.000 HD
ENDROOT
BRANCH   1  13
ATOM      5  C   UNL     1       3.124   7.309  17.878  0.00  0.00    +0.000 A 
ATOM      6  C   UNL     1       2.433   6.937  19.035  0.00  0.00    +0.000 A 
ATOM      7  C   UNL     1       2.878   5.881  19.828  0.00  0.00    +0.000 A 
ATOM      8  C   UNL     1       4.052   5.215  19.495  0.00  0.00    +0.000 A 
ATOM      9  C   UNL     1       4.785   5.603  18.364  0.00  0.00    +0.000 A 
ATOM     10  C   UNL     1       4.298   6.625  17.526  0.00  0.00    +0.000 A 
ATOM     11  O   UNL     1       4.991   7.041  16.417  0.00  0.00    +0.000 OA
ATOM     12  C   UNL     1       6.075   6.209  15.995  0.00  0.00    +0.000 C 
ATOM     13  C   UNL     1       6.953   5.790  17.157  0.00  0.00    +0.000 C 
ATOM     14  C   UNL     1       6.107   4.936  18.093  0.00  0.00    +0.000 C 
BRANCH   5  16
ATOM     15  C   UNL     1       1.845   9.312  18.051  0.00  0.00    +0.000 C 
ATOM     16  O   UNL     1       2.585   8.402  17.249  0.00  0.00    +0.000 OA
ENDBRANCH   5  16
ENDBRANCH   1  13
BRANCH   3  17
ATOM     17  C   UNL     1       8.152   9.365  17.900  0.00  0.00    +0.000 A 
ATOM     18  C   UNL     1       7.962  10.621  17.331  0.00  0.00    +0.000 A 
ATOM     19  C   UNL     1       8.614  11.745  17.846  0.00  0.00    +0.000 A 
ATOM     20  C   UNL     1       9.465  11.642  18.950  0.00  0.00    +0.000 A 
ATOM     21  C   UNL     1       9.629  10.389  19.549  0.00  0.00    +0.000 A 
ATOM     22  C   UNL     1       8.975   9.258  19.026  0.00  0.00    +0.000 A 
BRANCH  20  23
ATOM     23  C   UNL     1      10.152  12.817  19.455  0.00  0.00    +0.000 A 
ATOM     24  C   UNL     1      11.512  13.199  19.402  0.00  0.00    +0.000 A 
ATOM     25  N   UNL     1      11.746  14.369  20.004  0.00  0.00    +0.000 NA
ATOM     26  N   UNL     1      10.533  14.742  20.444  0.00  0.00    +0.000 N 
ATOM     27  C   UNL     1       9.546  13.852  20.135  0.00  0.00    +0.000 A 
ATOM     28  H   UNL     1      10.451  15.619  20.949  0.00  0.00    +0.000 HD
ENDBRANCH  20  23
ENDBRANCH   3  17
TORSDOF 4
ENDMDL
MODEL 9
REMARK VINA RESULT:      -7.1      1.813      2.341
REMARK  Name = 
REMARK  5 active torsions:
REMARK  status: ('A' for Active; 'I' for Inactive)
REMARK    1  A    between atoms: C_1  and  O_2
REMARK    2  A    between atoms: O_2  and  C_3
REMARK    3  A    between atoms: C_11  and  C_12
REMARK    4  A    between atoms: N_14  and  C_15
REMARK    5  A    between atoms: C_18  and  C_19
REMARK                            x       y       z     vdW  Elec       q    Type
REMARK                         _______ _______ _______ _____ _____    ______ ____
ROOT
ATOM      1  C   UNL     1       2.716   5.205  18.753  0.00  0.00    +0.000 C 
ATOM      2  O   UNL     1       2.186   4.680  19.733  0.00  0.00    +0.000 OA
ATOM      3  N   UNL     1       2.646   6.552  18.438  0.00  0.00    +0.000 N 
ATOM      4  H   UNL     1       2.910   6.821  17.494  0.00  0.00    +0.000 HD
ENDROOT
BRANCH   1  13
ATOM      5  C   UNL     1       7.198   5.610  19.230  0.00  0.00    +0.000 A 
ATOM      6  C   UNL     1       7.802   6.744  18.678  0.00  0.00    +0.000 A 
ATOM      7  C   UNL     1       7.327   7.305  17.493  0.00  0.00    +0.000 A 
ATOM      8  C   UNL     1       6.208   6.761  16.872  0.00  0.00    +0.000 A 
ATOM      9  C   UNL     1       5.560   5.651  17.435  0.00  0.00    +0.000 A 
ATOM     10  C   UNL     1       6.082   5.045  18.594  0.00  0.00    +0.000 A 
ATOM     11  O   UNL     1       5.470   3.966  19.182  0.00  0.00    +0.000 OA
ATOM     12  C   UNL     1       4.454   3.315  18.414  0.00  0.00    +0.000 C 
ATOM     13  C   UNL     1       3.496   4.307  17.786  0.00  0.00    +0.000 C 
ATOM     14  C   UNL     1       4.288   5.156  16.800  0.00  0.00    +0.000 C 
BRANCH   5  16
ATOM     15  C   UNL     1       9.136   4.907  20.425  0.00  0.00    +0.000 C 
ATOM     16  O   UNL     1       7.751   5.226  20.425  0.00  0.00    +0.000 OA
ENDBRANCH   5  16
ENDBRANCH   1  13
BRANCH   3  17
ATOM     17  C   UNL     1       2.060   7.571  19.219  0.00  0.00    +0.000 A 
ATOM     18  C   UNL     1       1.819   7.438  20.583  0.00  0.00    +0.000 A 
ATOM     19  C   UNL     1       1.212   8.469  21.307  0.00  0.00    +0.000 A 
ATOM     20  C   UNL     1       0.841   9.663  20.685  0.00  0.00    +0.000 A 
ATOM     21  C   UNL     1       1.115   9.817  19.321  0.00  0.00    +0.000 A 
ATOM     22  C   UNL     1       1.721   8.777  18.595  0.00  0.00    +0.000 A 
BRANCH  20  23
ATOM     23  C   UNL     1       0.190  10.712  21.448  0.00  0.00    +0.000 A 
ATOM     24  C   UNL     1      -0.550  10.671  22.651  0.00  0.00    +0.000 A 
ATOM     25  N   UNL     1      -0.999  11.872  23.025  0.00  0.00    +0.000 NA
ATOM     26  N   UNL     1      -0.545  12.690  22.062  0.00  0.00    +0.000 N 
ATOM     27  C   UNL     1       0.176  12.046  21.100  0.00  0.00    +0.000 A 
ATOM     28  H   UNL     1      -0.766  13.679  22.123  0.00  0.00    +0.000 HD
ENDBRANCH  20  23
ENDBRANCH   3  17
TORSDOF 4
ENDMDL
