MODEL 1
REMARK VINA RESULT:      -7.7      0.000      0.000
REMARK  Name = 
REMARK  6 active torsions:
REMARK  status: ('A' for Active; 'I' for Inactive)
REMARK    1  A    between atoms: N_2  and  C_4
REMARK    2  A    between atoms: C_9  and  N_10
REMARK    3  A    between atoms: N_10  and  N_11
REMARK    4  A    between atoms: C_12  and  C_13
REMARK    5  A    between atoms: C_17  and  O_18
REMARK    6  A    between atoms: C_19  and  O_20
REMARK                            x       y       z     vdW  Elec       q    Type
REMARK                         _______ _______ _______ _____ _____    ______ ____
ROOT
ATOM      1  N   UNL     1       4.857   5.410  16.733  0.00  0.00    +0.000 NA
ATOM      2  C   UNL     1       5.292   4.300  16.227  0.00  0.00    +0.000 C 
ENDROOT
BRANCH   2   3
ATOM      3  C   UNL     1       5.926   4.310  14.888  0.00  0.00    +0.000 A 
ATOM      4  C   UNL     1       5.371   3.536  13.855  0.00  0.00    +0.000 A 
ATOM      5  C   UNL     1       5.941   3.541  12.579  0.00  0.00    +0.000 A 
ATOM      6  C   UNL     1       7.071   4.315  12.321  0.00  0.00    +0.000 A 
ATOM      7  C   UNL     1       7.618   5.083  13.346  0.00  0.00    +0.000 A 
ATOM      8  C   UNL     1       7.052   5.085  14.626  0.00  0.00    +0.000 A 
BRANCH   7   9
ATOM      9  O   UNL     1       8.724   5.861  13.137  0.00  0.00    +0.000 OA
ATOM     10  H   UNL     1       9.068   5.671  12.245  0.00  0.00    +0.000 HD
ENDBRANCH   7   9
BRANCH   8  11
ATOM     11  O   UNL     1       7.626   5.866  15.592  0.00  0.00    +0.000 OA
ATOM     12  H   UNL     1       6.893   6.419  15.930  0.00  0.00    +0.000 HD
ENDBRANCH   8  11
ENDBRANCH   2   3
BRANCH   1  13
ATOM     13  N   UNL     1       4.307   5.368  17.969  0.00  0.00    +0.000 N 
ATOM     14  H   UNL     1       4.827   5.683  18.793  0.00  0.00    +0.000 HD
BRANCH  13  20
ATOM     15  C   UNL     1       3.503   3.266  19.050  0.00  0.00    +0.000 A 
ATOM     16  C   UNL     1       2.448   2.361  19.305  0.00  0.00    +0.000 A 
ATOM     17  C   UNL     1       1.195   2.553  18.724  0.00  0.00    +0.000 A 
ATOM     18  C   UNL     1       0.986   3.649  17.898  0.00  0.00    +0.000 A 
ATOM     19  C   UNL     1       2.027   4.548  17.656  0.00  0.00    +0.000 A 
ATOM     20  C   UNL     1       3.319   4.377  18.202  0.00  0.00    +0.000 A 
BRANCH  15  22
ATOM     21  O   UNL     1       4.922   1.926  20.312  0.00  0.00    +0.000 OA
ATOM     22  N   UNL     1       4.799   2.992  19.688  0.00  0.00    +0.000 N 
ATOM     23  O   UNL     1       5.709   3.826  19.557  0.00  0.00    +0.000 OA
ENDBRANCH  15  22
ENDBRANCH  13  20
ENDBRANCH   1  13
TORSDOF 6
ENDMDL
MODEL 2
REMARK VINA RESULT:      -7.7      2.659      6.893
REMARK  Name = 
REMARK  6 active torsions:
REMARK  status: ('A' for Active; 'I' for Inactive)
REMARK    1  A    between atoms: N_2  and  C_4
REMARK    2  A    between atoms: C_9  and  N_10
REMARK    3  A    between atoms: N_10  and  N_11
REMARK    4  A    between atoms: C_12  and  C_13
REMARK    5  A    between atoms: C_17  and  O_18
REMARK    6  A    between atoms: C_19  and  O_20
REMARK                            x       y       z     vdW  Elec       q    Type
REMARK                         _______ _______ _______ _____ _____    ______ ____
ROOT
ATOM      1  N   UNL     1       5.604   3.914  18.958  0.00  0.00    +0.000 NA
ATOM      2  C   UNL     1       4.615   3.426  18.280  0.00  0.00    +0.000 C 
ENDROOT
BRANCH   2   3
ATOM      3  C   UNL     1       3.288   3.292  18.924  0.00  0.00    +0.000 A 
ATOM      4  C   UNL     1       2.132   3.640  18.205  0.00  0.00    +0.000 A 
ATOM      5  C   UNL     1       0.867   3.509  18.786  0.00  0.00    +0.000 A 
ATOM      6  C   UNL     1       0.742   3.031  20.089  0.00  0.00    +0.000 A 
ATOM      7  C   UNL     1       1.890   2.685  20.799  0.00  0.00    +0.000 A 
ATOM      8  C   UNL     1       3.159   2.812  20.224  0.00  0.00    +0.000 A 
BRANCH   7   9
ATOM      9  O   UNL     1       1.815   2.209  22.080  0.00  0.00    +0.000 OA
ATOM     10  H   UNL     1       2.574   1.617  22.232  0.00  0.00    +0.000 HD
ENDBRANCH   7   9
BRANCH   8  11
ATOM     11  O   UNL     1       4.250   2.448  20.965  0.00  0.00    +0.000 OA
ATOM     12  H   UNL     1       4.619   3.293  21.293  0.00  0.00    +0.000 HD
ENDBRANCH   8  11
ENDBRANCH   2   3
BRANCH   1  13
ATOM     13  N   UNL     1       6.796   4.046  18.330  0.00  0.00    +0.000 N 
ATOM     14  H   UNL     1       7.525   3.332  18.420  0.00  0.00    +0.000 HD
BRANCH  13  20
ATOM     15  C   UNL     1       6.970   6.081  16.894  0.00  0.00    +0.000 A 
ATOM     16  C   UNL     1       7.380   7.424  16.739  0.00  0.00    +0.000 A 
ATOM     17  C   UNL     1       8.068   8.075  17.763  0.00  0.00    +0.000 A 
ATOM     18  C   UNL     1       8.340   7.396  18.942  0.00  0.00    +0.000 A 
ATOM     19  C   UNL     1       7.925   6.072  19.097  0.00  0.00    +0.000 A 
ATOM     20  C   UNL     1       7.249   5.366  18.076  0.00  0.00    +0.000 A 
BRANCH  15  22
ATOM     21  O   UNL     1       5.396   6.131  15.184  0.00  0.00    +0.000 OA
ATOM     22  N   UNL     1       6.258   5.457  15.768  0.00  0.00    +0.000 N 
ATOM     23  O   UNL     1       6.567   4.299  15.444  0.00  0.00    +0.000 OA
ENDBRANCH  15  22
ENDBRANCH  13  20
ENDBRANCH   1  13
TORSDOF 6
ENDMDL
MODEL 3
REMARK VINA RESULT:      -7.6      2.905      6.858
REMARK  Name = 
REMARK  6 active torsions:
REMARK  status: ('A' for Active; 'I' for Inactive)
REMARK    1  A    between atoms: N_2  and  C_4
REMARK    2  A    between atoms: C_9  and  N_10
REMARK    3  A    between atoms: N_10  and  N_11
REMARK    4  A    between atoms: C_12  and  C_13
REMARK    5  A    between atoms: C_17  and  O_18
REMARK    6  A    between atoms: C_19  and  O_20
REMARK                            x       y       z     vdW  Elec       q    Type
REMARK                         _______ _______ _______ _____ _____    ______ ____
ROOT
ATOM      1  N   UNL     1       5.626   3.831  18.823  0.00  0.00    +0.000 NA
ATOM      2  C   UNL     1       4.536   4.235  18.250  0.00  0.00    +0.000 C 
ENDROOT
BRANCH   2   3
ATOM      3  C   UNL     1       3.245   4.090  18.960  0.00  0.00    +0.000 A 
ATOM      4  C   UNL     1       2.952   4.938  20.042  0.00  0.00    +0.000 A 
ATOM      5  C   UNL     1       1.734   4.831  20.719  0.00  0.00    +0.000 A 
ATOM      6  C   UNL     1       0.798   3.877  20.327  0.00  0.00    +0.000 A 
ATOM      7  C   UNL     1       1.090   3.038  19.254  0.00  0.00    +0.000 A 
ATOM      8  C   UNL     1       2.306   3.140  18.569  0.00  0.00    +0.000 A 
BRANCH   7   9
ATOM      9  O   UNL     1       0.199   2.089  18.832  0.00  0.00    +0.000 OA
ATOM     10  H   UNL     1       0.047   1.464  19.564  0.00  0.00    +0.000 HD
ENDBRANCH   7   9
BRANCH   8  11
ATOM     11  O   UNL     1       2.535   2.297  17.516  0.00  0.00    +0.000 OA
ATOM     12  H   UNL     1       3.116   2.805  16.915  0.00  0.00    +0.000 HD
ENDBRANCH   8  11
ENDBRANCH   2   3
BRANCH   1  13
ATOM     13  N   UNL     1       6.791   4.002  18.155  0.00  0.00    +0.000 N 
ATOM     14  H   UNL     1       7.508   3.271  18.142  0.00  0.00    +0.000 HD
BRANCH  13  20
ATOM     15  C   UNL     1       7.039   6.123  16.861  0.00  0.00    +0.000 A 
ATOM     16  C   UNL     1       7.461   7.471  16.811  0.00  0.00    +0.000 A 
ATOM     17  C   UNL     1       8.103   8.050  17.905  0.00  0.00    +0.000 A 
ATOM     18  C   UNL     1       8.317   7.297  19.050  0.00  0.00    +0.000 A 
ATOM     19  C   UNL     1       7.890   5.968  19.101  0.00  0.00    +0.000 A 
ATOM     20  C   UNL     1       7.260   5.333  18.007  0.00  0.00    +0.000 A 
BRANCH  15  22
ATOM     21  O   UNL     1       5.459   6.238  15.160  0.00  0.00    +0.000 OA
ATOM     22  N   UNL     1       6.379   5.577  15.665  0.00  0.00    +0.000 N 
ATOM     23  O   UNL     1       6.785   4.495  15.210  0.00  0.00    +0.000 OA
ENDBRANCH  15  22
ENDBRANCH  13  20
ENDBRANCH   1  13
TORSDOF 6
ENDMDL
MODEL 4
REMARK VINA RESULT:      -7.5      1.419      1.648
REMARK  Name = 
REMARK  6 active torsions:
REMARK  status: ('A' for Active; 'I' for Inactive)
REMARK    1  A    between atoms: N_2  and  C_4
REMARK    2  A    between atoms: C_9  and  N_10
REMARK    3  A    between atoms: N_10  and  N_11
REMARK    4  A    between atoms: C_12  and  C_13
REMARK    5  A    between atoms: C_17  and  O_18
REMARK    6  A    between atoms: C_19  and  O_20
REMARK                            x       y       z     vdW  Elec       q    Type
REMARK                         _______ _______ _______ _____ _____    ______ ____
ROOT
ATOM      1  N   UNL     1       5.547   4.509  18.314  0.00  0.00    +0.000 NA
ATOM      2  C   UNL     1       5.119   5.187  17.297  0.00  0.00    +0.000 C 
ENDROOT
BRANCH   2   3
ATOM      3  C   UNL     1       5.643   4.878  15.946  0.00  0.00    +0.000 A 
ATOM      4  C   UNL     1       4.922   4.013  15.105  0.00  0.00    +0.000 A 
ATOM      5  C   UNL     1       5.388   3.718  13.821  0.00  0.00    +0.000 A 
ATOM      6  C   UNL     1       6.578   4.280  13.363  0.00  0.00    +0.000 A 
ATOM      7  C   UNL     1       7.290   5.138  14.198  0.00  0.00    +0.000 A 
ATOM      8  C   UNL     1       6.830   5.440  15.484  0.00  0.00    +0.000 A 
BRANCH   7   9
ATOM      9  O   UNL     1       8.462   5.716  13.788  0.00  0.00    +0.000 OA
ATOM     10  H   UNL     1       8.254   6.577  13.382  0.00  0.00    +0.000 HD
ENDBRANCH   7   9
BRANCH   8  11
ATOM     11  O   UNL     1       7.565   6.297  16.256  0.00  0.00    +0.000 OA
ATOM     12  H   UNL     1       7.937   5.734  16.965  0.00  0.00    +0.000 HD
ENDBRANCH   8  11
ENDBRANCH   2   3
BRANCH   1  13
ATOM     13  N   UNL     1       5.027   4.800  19.530  0.00  0.00    +0.000 N 
ATOM     14  H   UNL     1       5.621   4.851  20.363  0.00  0.00    +0.000 HD
BRANCH  13  20
ATOM     15  C   UNL     1       3.213   3.113  19.840  0.00  0.00    +0.000 A 
ATOM     16  C   UNL     1       1.865   2.826  20.152  0.00  0.00    +0.000 A 
ATOM     17  C   UNL     1       0.960   3.859  20.390  0.00  0.00    +0.000 A 
ATOM     18  C   UNL     1       1.393   5.176  20.329  0.00  0.00    +0.000 A 
ATOM     19  C   UNL     1       2.728   5.457  20.031  0.00  0.00    +0.000 A 
ATOM     20  C   UNL     1       3.673   4.443  19.756  0.00  0.00    +0.000 A 
BRANCH  15  22
ATOM     21  O   UNL     1       3.871   1.259  18.603  0.00  0.00    +0.000 OA
ATOM     22  N   UNL     1       4.107   1.973  19.590  0.00  0.00    +0.000 N 
ATOM     23  O   UNL     1       5.062   1.791  20.363  0.00  0.00    +0.000 OA
ENDBRANCH  15  22
ENDBRANCH  13  20
ENDBRANCH   1  13
TORSDOF 6
ENDMDL
MODEL 5
REMARK VINA RESULT:      -7.4      2.803      6.673
REMARK  Name = 
REMARK  6 active torsions:
REMARK  status: ('A' for Active; 'I' for Inactive)
REMARK    1  A    between atoms: N_2  and  C_4
REMARK    2  A    between atoms: C_9  and  N_10
REMARK    3  A    between atoms: N_10  and  N_11
REMARK    4  A    between atoms: C_12  and  C_13
REMARK    5  A    between atoms: C_17  and  O_18
REMARK    6  A    between atoms: C_19  and  O_20
REMARK                            x       y       z     vdW  Elec       q    Type
REMARK                         _______ _______ _______ _____ _____    ______ ____
ROOT
ATOM      1  N   UNL     1       5.675   3.809  18.761  0.00  0.00    +0.000 NA
ATOM      2  C   UNL     1       4.623   3.771  18.006  0.00  0.00    +0.000 C 
ENDROOT
BRANCH   2   3
ATOM      3  C   UNL     1       3.289   3.600  18.628  0.00  0.00    +0.000 A 
ATOM      4  C   UNL     1       2.526   2.461  18.324  0.00  0.00    +0.000 A 
ATOM      5  C   UNL     1       1.271   2.269  18.909  0.00  0.00    +0.000 A 
ATOM      6  C   UNL     1       0.764   3.211  19.801  0.00  0.00    +0.000 A 
ATOM      7  C   UNL     1       1.523   4.340  20.102  0.00  0.00    +0.000 A 
ATOM      8  C   UNL     1       2.781   4.538  19.522  0.00  0.00    +0.000 A 
BRANCH   7   9
ATOM      9  O   UNL     1       1.067   5.290  20.975  0.00  0.00    +0.000 OA
ATOM     10  H   UNL     1       1.834   5.783  21.320  0.00  0.00    +0.000 HD
ENDBRANCH   7   9
BRANCH   8  11
ATOM     11  O   UNL     1       3.487   5.660  19.862  0.00  0.00    +0.000 OA
ATOM     12  H   UNL     1       3.425   6.239  19.076  0.00  0.00    +0.000 HD
ENDBRANCH   8  11
ENDBRANCH   2   3
BRANCH   1  13
ATOM     13  N   UNL     1       6.875   3.991  18.161  0.00  0.00    +0.000 N 
ATOM     14  H   UNL     1       7.610   3.279  18.215  0.00  0.00    +0.000 HD
BRANCH  13  20
ATOM     15  C   UNL     1       7.091   6.102  16.845  0.00  0.00    +0.000 A 
ATOM     16  C   UNL     1       7.487   7.457  16.783  0.00  0.00    +0.000 A 
ATOM     17  C   UNL     1       8.110   8.061  17.875  0.00  0.00    +0.000 A 
ATOM     18  C   UNL     1       8.330   7.325  19.030  0.00  0.00    +0.000 A 
ATOM     19  C   UNL     1       7.928   5.989  19.093  0.00  0.00    +0.000 A 
ATOM     20  C   UNL     1       7.320   5.329  18.002  0.00  0.00    +0.000 A 
BRANCH  15  22
ATOM     21  O   UNL     1       5.491   6.144  15.160  0.00  0.00    +0.000 OA
ATOM     22  N   UNL     1       6.451   5.529  15.652  0.00  0.00    +0.000 N 
ATOM     23  O   UNL     1       6.910   4.475  15.184  0.00  0.00    +0.000 OA
ENDBRANCH  15  22
ENDBRANCH  13  20
ENDBRANCH   1  13
TORSDOF 6
ENDMDL
MODEL 6
REMARK VINA RESULT:      -7.4      1.572      2.224
REMARK  Name = 
REMARK  6 active torsions:
REMARK  status: ('A' for Active; 'I' for Inactive)
REMARK    1  A    between atoms: N_2  and  C_4
REMARK    2  A    between atoms: C_9  and  N_10
REMARK    3  A    between atoms: N_10  and  N_11
REMARK    4  A    between atoms: C_12  and  C_13
REMARK    5  A    between atoms: C_17  and  O_18
REMARK    6  A    between atoms: C_19  and  O_20
REMARK                            x       y       z     vdW  Elec       q    Type
REMARK                         _______ _______ _______ _____ _____    ______ ____
ROOT
ATOM      1  N   UNL     1       5.766   3.397  16.467  0.00  0.00    +0.000 NA
ATOM      2  C   UNL     1       5.209   3.866  15.396  0.00  0.00    +0.000 C 
ENDROOT
BRANCH   2   3
ATOM      3  C   UNL     1       6.040   4.116  14.195  0.00  0.00    +0.000 A 
ATOM      4  C   UNL     1       5.718   3.477  12.986  0.00  0.00    +0.000 A 
ATOM      5  C   UNL     1       6.477   3.709  11.836  0.00  0.00    +0.000 A 
ATOM      6  C   UNL     1       7.566   4.577  11.880  0.00  0.00    +0.000 A 
ATOM      7  C   UNL     1       7.882   5.210  13.079  0.00  0.00    +0.000 A 
ATOM      8  C   UNL     1       7.126   4.986  14.234  0.00  0.00    +0.000 A 
BRANCH   7   9
ATOM      9  O   UNL     1       8.941   6.074  13.168  0.00  0.00    +0.000 OA
ATOM     10  H   UNL     1       9.735   5.620  12.834  0.00  0.00    +0.000 HD
ENDBRANCH   7   9
BRANCH   8  11
ATOM     11  O   UNL     1       7.477   5.643  15.383  0.00  0.00    +0.000 OA
ATOM     12  H   UNL     1       7.870   4.951  15.952  0.00  0.00    +0.000 HD
ENDBRANCH   8  11
ENDBRANCH   2   3
BRANCH   1  13
ATOM     13  N   UNL     1       4.972   3.157  17.537  0.00  0.00    +0.000 N 
ATOM     14  H   UNL     1       4.675   2.205  17.775  0.00  0.00    +0.000 HD
BRANCH  13  20
ATOM     15  C   UNL     1       4.526   5.432  18.463  0.00  0.00    +0.000 A 
ATOM     16  C   UNL     1       3.604   6.459  18.763  0.00  0.00    +0.000 A 
ATOM     17  C   UNL     1       2.241   6.272  18.537  0.00  0.00    +0.000 A 
ATOM     18  C   UNL     1       1.794   5.071  18.005  0.00  0.00    +0.000 A 
ATOM     19  C   UNL     1       2.709   4.061  17.699  0.00  0.00    +0.000 A 
ATOM     20  C   UNL     1       4.095   4.197  17.937  0.00  0.00    +0.000 A 
BRANCH  15  22
ATOM     21  O   UNL     1       6.544   6.484  17.987  0.00  0.00    +0.000 OA
ATOM     22  N   UNL     1       5.947   5.697  18.738  0.00  0.00    +0.000 N 
ATOM     23  O   UNL     1       6.473   5.138  19.714  0.00  0.00    +0.000 OA
ENDBRANCH  15  22
ENDBRANCH  13  20
ENDBRANCH   1  13
TORSDOF 6
ENDMDL
MODEL 7
REMARK VINA RESULT:      -7.4      3.611      6.619
REMARK  Name = 
REMARK  6 active torsions:
REMARK  status: ('A' for Active; 'I' for Inactive)
REMARK    1  A    between atoms: N_2  and  C_4
REMARK    2  A    between atoms: C_9  and  N_10
REMARK    3  A    between atoms: N_10  and  N_11
REMARK    4  A    between atoms: C_12  and  C_13
REMARK    5  A    between atoms: C_17  and  O_18
REMARK    6  A    between atoms: C_19  and  O_20
REMARK                            x       y       z     vdW  Elec       q    Type
REMARK                         _______ _______ _______ _____ _____    ______ ____
ROOT
ATOM      1  N   UNL     1       4.005   5.801  19.460  0.00  0.00    +0.000 NA
ATOM      2  C   UNL     1       3.143   6.214  18.586  0.00  0.00    +0.000 C 
ENDROOT
BRANCH   2   3
ATOM      3  C   UNL     1       2.413   7.480  18.828  0.00  0.00    +0.000 A 
ATOM      4  C   UNL     1       2.288   8.416  17.787  0.00  0.00    +0.000 A 
ATOM      5  C   UNL     1       1.591   9.611  17.986  0.00  0.00    +0.000 A 
ATOM      6  C   UNL     1       1.015   9.887  19.224  0.00  0.00    +0.000 A 
ATOM      7  C   UNL     1       1.140   8.957  20.254  0.00  0.00    +0.000 A 
ATOM      8  C   UNL     1       1.833   7.757  20.062  0.00  0.00    +0.000 A 
BRANCH   7   9
ATOM      9  O   UNL     1       0.587   9.184  21.486  0.00  0.00    +0.000 OA
ATOM     10  H   UNL     1       0.056  10.000  21.438  0.00  0.00    +0.000 HD
ENDBRANCH   7   9
BRANCH   8  11
ATOM     11  O   UNL     1       1.915   6.877  21.107  0.00  0.00    +0.000 OA
ATOM     12  H   UNL     1       1.554   7.367  21.872  0.00  0.00    +0.000 HD
ENDBRANCH   8  11
ENDBRANCH   2   3
BRANCH   1  13
ATOM     13  N   UNL     1       4.672   4.653  19.194  0.00  0.00    +0.000 N 
ATOM     14  H   UNL     1       5.009   4.048  19.949  0.00  0.00    +0.000 HD
BRANCH  13  20
ATOM     15  C   UNL     1       6.728   5.071  17.841  0.00  0.00    +0.000 A 
ATOM     16  C   UNL     1       7.434   4.911  16.628  0.00  0.00    +0.000 A 
ATOM     17  C   UNL     1       6.837   4.272  15.542  0.00  0.00    +0.000 A 
ATOM     18  C   UNL     1       5.543   3.785  15.663  0.00  0.00    +0.000 A 
ATOM     19  C   UNL     1       4.851   3.936  16.866  0.00  0.00    +0.000 A 
ATOM     20  C   UNL     1       5.407   4.600  17.982  0.00  0.00    +0.000 A 
BRANCH  15  22
ATOM     21  O   UNL     1       7.350   5.263  20.072  0.00  0.00    +0.000 OA
ATOM     22  N   UNL     1       7.419   5.765  18.939  0.00  0.00    +0.000 N 
ATOM     23  O   UNL     1       8.049   6.802  18.678  0.00  0.00    +0.000 OA
ENDBRANCH  15  22
ENDBRANCH  13  20
ENDBRANCH   1  13
TORSDOF 6
ENDMDL
MODEL 8
REMARK VINA RESULT:      -7.3      1.720      2.070
REMARK  Name = 
REMARK  6 active torsions:
REMARK  status: ('A' for Active; 'I' for Inactive)
REMARK    1  A    between atoms: N_2  and  C_4
REMARK    2  A    between atoms: C_9  and  N_10
REMARK    3  A    between atoms: N_10  and  N_11
REMARK    4  A    between atoms: C_12  and  C_13
REMARK    5  A    between atoms: C_17  and  O_18
REMARK    6  A    between atoms: C_19  and  O_20
REMARK                            x       y       z     vdW  Elec       q    Type
REMARK                         _______ _______ _______ _____ _____    ______ ____
ROOT
ATOM      1  N   UNL     1       5.999   4.355  17.192  0.00  0.00    +0.000 NA
ATOM      2  C   UNL     1       5.283   4.415  16.114  0.00  0.00    +0.000 C 
ENDROOT
BRANCH   2   3
ATOM      3  C   UNL     1       5.954   4.383  14.794  0.00  0.00    +0.000 A 
ATOM      4  C   UNL     1       5.425   3.581  13.769  0.00  0.00    +0.000 A 
ATOM      5  C   UNL     1       6.031   3.545  12.510  0.00  0.00    +0.000 A 
ATOM      6  C   UNL     1       7.171   4.307  12.261  0.00  0.00    +0.000 A 
ATOM      7  C   UNL     1       7.692   5.102  13.278  0.00  0.00    +0.000 A 
ATOM      8  C   UNL     1       7.091   5.145  14.540  0.00  0.00    +0.000 A 
BRANCH   7   9
ATOM      9  O   UNL     1       8.809   5.869  13.078  0.00  0.00    +0.000 OA
ATOM     10  H   UNL     1       8.531   6.719  12.691  0.00  0.00    +0.000 HD
ENDBRANCH   7   9
BRANCH   8  11
ATOM     11  O   UNL     1       7.641   5.952  15.499  0.00  0.00    +0.000 OA
ATOM     12  H   UNL     1       8.422   5.458  15.819  0.00  0.00    +0.000 HD
ENDBRANCH   8  11
ENDBRANCH   2   3
BRANCH   1  13
ATOM     13  N   UNL     1       5.351   4.361  18.380  0.00  0.00    +0.000 N 
ATOM     14  H   UNL     1       5.858   4.242  19.263  0.00  0.00    +0.000 HD
BRANCH  13  20
ATOM     15  C   UNL     1       2.896   4.804  18.488  0.00  0.00    +0.000 A 
ATOM     16  C   UNL     1       1.572   4.320  18.397  0.00  0.00    +0.000 A 
ATOM     17  C   UNL     1       1.329   2.962  18.190  0.00  0.00    +0.000 A 
ATOM     18  C   UNL     1       2.399   2.087  18.065  0.00  0.00    +0.000 A 
ATOM     19  C   UNL     1       3.707   2.570  18.146  0.00  0.00    +0.000 A 
ATOM     20  C   UNL     1       3.999   3.932  18.381  0.00  0.00    +0.000 A 
BRANCH  15  22
ATOM     21  O   UNL     1       2.586   6.731  19.750  0.00  0.00    +0.000 OA
ATOM     22  N   UNL     1       3.075   6.245  18.718  0.00  0.00    +0.000 N 
ATOM     23  O   UNL     1       3.719   6.900  17.883  0.00  0.00    +0.000 OA
ENDBRANCH  15  22
ENDBRANCH  13  20
ENDBRANCH   1  13
TORSDOF 6
ENDMDL
MODEL 9
REMARK VINA RESULT:      -7.3      2.331      6.452
REMARK  Name = 
REMARK  6 active torsions:
REMARK  status: ('A' for Active; 'I' for Inactive)
REMARK    1  A    between atoms: N_2  and  C_4
REMARK    2  A    between atoms: C_9  and  N_10
REMARK    3  A    between atoms: N_10  and  N_11
REMARK    4  A    between atoms: C_12  and  C_13
REMARK    5  A    between atoms: C_17  and  O_18
REMARK    6  A    between atoms: C_19  and  O_20
REMARK                            x       y       z     vdW  Elec       q    Type
REMARK                         _______ _______ _______ _____ _____    ______ ____
ROOT
ATOM      1  N   UNL     1       3.760   6.123  18.029  0.00  0.00    +0.000 NA
ATOM      2  C   UNL     1       4.046   5.111  18.785  0.00  0.00    +0.000 C 
ENDROOT
BRANCH   2   3
ATOM      3  C   UNL     1       2.947   4.332  19.401  0.00  0.00    +0.000 A 
ATOM      4  C   UNL     1       2.777   4.360  20.795  0.00  0.00    +0.000 A 
ATOM      5  C   UNL     1       1.739   3.646  21.400  0.00  0.00    +0.000 A 
ATOM      6  C   UNL     1       0.861   2.894  20.621  0.00  0.00    +0.000 A 
ATOM      7  C   UNL     1       1.031   2.869  19.239  0.00  0.00    +0.000 A 
ATOM      8  C   UNL     1       2.067   3.583  18.626  0.00  0.00    +0.000 A 
BRANCH   7   9
ATOM      9  O   UNL     1       0.191   2.147  18.434  0.00  0.00    +0.000 OA
ATOM     10  H   UNL     1      -0.661   2.615  18.383  0.00  0.00    +0.000 HD
ENDBRANCH   7   9
BRANCH   8  11
ATOM     11  O   UNL     1       2.180   3.528  17.263  0.00  0.00    +0.000 OA
ATOM     12  H   UNL     1       2.962   2.963  17.103  0.00  0.00    +0.000 HD
ENDBRANCH   8  11
ENDBRANCH   2   3
BRANCH   1  13
ATOM     13  N   UNL     1       4.788   6.797  17.462  0.00  0.00    +0.000 N 
ATOM     14  H   UNL     1       4.754   7.813  17.338  0.00  0.00    +0.000 HD
BRANCH  13  20
ATOM     15  C   UNL     1       6.888   5.614  16.808  0.00  0.00    +0.000 A 
ATOM     16  C   UNL     1       7.600   4.840  15.864  0.00  0.00    +0.000 A 
ATOM     17  C   UNL     1       7.025   4.522  14.635  0.00  0.00    +0.000 A 
ATOM     18  C   UNL     1       5.741   4.962  14.345  0.00  0.00    +0.000 A 
ATOM     19  C   UNL     1       5.036   5.718  15.284  0.00  0.00    +0.000 A 
ATOM     20  C   UNL     1       5.589   6.087  16.530  0.00  0.00    +0.000 A 
BRANCH  15  22
ATOM     21  O   UNL     1       7.872   7.102  18.298  0.00  0.00    +0.000 OA
ATOM     22  N   UNL     1       7.562   5.920  18.079  0.00  0.00    +0.000 N 
ATOM     23  O   UNL     1       7.771   4.991  18.875  0.00  0.00    +0.000 OA
ENDBRANCH  15  22
ENDBRANCH  13  20
ENDBRANCH   1  13
TORSDOF 6
ENDMDL
