MODEL 1
REMARK VINA RESULT:      -5.6      0.000      0.000
REMARK  Name = 
REMARK  4 active torsions:
REMARK  status: ('A' for Active; 'I' for Inactive)
REMARK    1  A    between atoms: O_1  and  C_2
REMARK    2  A    between atoms: C_6  and  O_7
REMARK    3  A    between atoms: O_7  and  C_8
REMARK    4  A    between atoms: C_8  and  C_9
REMARK                            x       y       z     vdW  Elec       q    Type
REMARK                         _______ _______ _______ _____ _____    ______ ____
ROOT
ATOM      1  C   UNL     1       7.078   5.712  19.180  0.00  0.00    +0.000 A 
ATOM      2  C   UNL     1       7.569   6.404  18.084  0.00  0.00    +0.000 A 
ATOM      3  N   UNL     1       6.835   6.668  16.982  0.00  0.00    +0.000 NA
ATOM      4  C   UNL     1       5.557   6.215  16.993  0.00  0.00    +0.000 A 
ATOM      5  C   UNL     1       4.969   5.528  18.052  0.00  0.00    +0.000 A 
ATOM      6  C   UNL     1       5.762   5.267  19.166  0.00  0.00    +0.000 A 
ENDROOT
BRANCH   1   7
ATOM      7  O   UNL     1       7.839   5.439  20.281  0.00  0.00    +0.000 OA
ATOM      8  H   UNL     1       8.455   4.718  20.069  0.00  0.00    +0.000 HD
ENDBRANCH   1   7
BRANCH   5   9
ATOM      9  O   UNL     1       3.678   5.129  17.871  0.00  0.00    +0.000 OA
BRANCH   9  10
ATOM     10  C   UNL     1       3.477   3.756  17.520  0.00  0.00    +0.000 C 
BRANCH  10  11
ATOM     11  C   UNL     1       2.976   2.960  18.739  0.00  0.00    +0.000 C 
ATOM     12  C   UNL     1       1.747   3.461  19.523  0.00  0.00    +0.000 C 
ATOM     13  C   UNL     1       0.943   2.452  18.694  0.00  0.00    +0.000 C 
ATOM     14  N   UNL     1       2.202   1.732  18.404  0.00  0.00    +0.000 NA
ATOM     15  H   UNL     1       2.282   1.435  17.432  0.00  0.00    +0.000 HD
ENDBRANCH  10  11
ENDBRANCH   9  10
ENDBRANCH   5   9
TORSDOF 4
ENDMDL
MODEL 2
REMARK VINA RESULT:      -5.6      2.083      5.364
REMARK  Name = 
REMARK  4 active torsions:
REMARK  status: ('A' for Active; 'I' for Inactive)
REMARK    1  A    between atoms: O_1  and  C_2
REMARK    2  A    between atoms: C_6  and  O_7
REMARK    3  A    between atoms: O_7  and  C_8
REMARK    4  A    between atoms: C_8  and  C_9
REMARK                            x       y       z     vdW  Elec       q    Type
REMARK                         _______ _______ _______ _____ _____    ______ ____
ROOT
ATOM      1  C   UNL     1       1.893   2.815  18.508  0.00  0.00    +0.000 A 
ATOM      2  C   UNL     1       2.618   2.479  19.641  0.00  0.00    +0.000 A 
ATOM      3  N   UNL     1       3.906   2.835  19.831  0.00  0.00    +0.000 NA
ATOM      4  C   UNL     1       4.478   3.561  18.839  0.00  0.00    +0.000 A 
ATOM      5  C   UNL     1       3.828   3.962  17.675  0.00  0.00    +0.000 A 
ATOM      6  C   UNL     1       2.503   3.565  17.511  0.00  0.00    +0.000 A 
ENDROOT
BRANCH   1   7
ATOM      7  O   UNL     1       0.595   2.431  18.323  0.00  0.00    +0.000 OA
ATOM      8  H   UNL     1       0.012   3.039  18.805  0.00  0.00    +0.000 HD
ENDBRANCH   1   7
BRANCH   5   9
ATOM      9  O   UNL     1       4.575   4.666  16.778  0.00  0.00    +0.000 OA
BRANCH   9  10
ATOM     10  C   UNL     1       5.626   3.950  16.121  0.00  0.00    +0.000 C 
BRANCH  10  11
ATOM     11  C   UNL     1       6.944   4.742  16.199  0.00  0.00    +0.000 C 
ATOM     12  C   UNL     1       6.991   6.067  16.985  0.00  0.00    +0.000 C 
ATOM     13  C   UNL     1       7.569   5.238  18.138  0.00  0.00    +0.000 C 
ATOM     14  N   UNL     1       7.942   4.194  17.158  0.00  0.00    +0.000 NA
ATOM     15  H   UNL     1       7.741   3.248  17.481  0.00  0.00    +0.000 HD
ENDBRANCH  10  11
ENDBRANCH   9  10
ENDBRANCH   5   9
TORSDOF 4
ENDMDL
MODEL 3
REMARK VINA RESULT:      -5.6      2.024      2.428
REMARK  Name = 
REMARK  4 active torsions:
REMARK  status: ('A' for Active; 'I' for Inactive)
REMARK    1  A    between atoms: O_1  and  C_2
REMARK    2  A    between atoms: C_6  and  O_7
REMARK    3  A    between atoms: O_7  and  C_8
REMARK    4  A    between atoms: C_8  and  C_9
REMARK                            x       y       z     vdW  Elec       q    Type
REMARK                         _______ _______ _______ _____ _____    ______ ____
ROOT
ATOM      1  C   UNL     1       7.096   6.761  17.605  0.00  0.00    +0.000 A 
ATOM      2  C   UNL     1       7.649   6.108  18.695  0.00  0.00    +0.000 A 
ATOM      3  N   UNL     1       6.939   5.310  19.522  0.00  0.00    +0.000 NA
ATOM      4  C   UNL     1       5.623   5.169  19.231  0.00  0.00    +0.000 A 
ATOM      5  C   UNL     1       4.981   5.768  18.149  0.00  0.00    +0.000 A 
ATOM      6  C   UNL     1       5.745   6.592  17.327  0.00  0.00    +0.000 A 
ENDROOT
BRANCH   1   7
ATOM      7  O   UNL     1       7.824   7.579  16.789  0.00  0.00    +0.000 OA
ATOM      8  H   UNL     1       7.580   8.503  16.965  0.00  0.00    +0.000 HD
ENDBRANCH   1   7
BRANCH   5   9
ATOM      9  O   UNL     1       3.644   5.530  18.032  0.00  0.00    +0.000 OA
BRANCH   9  10
ATOM     10  C   UNL     1       3.144   4.360  18.689  0.00  0.00    +0.000 C 
BRANCH  10  11
ATOM     11  C   UNL     1       1.958   4.725  19.602  0.00  0.00    +0.000 C 
ATOM     12  C   UNL     1       1.080   3.605  20.193  0.00  0.00    +0.000 C 
ATOM     13  C   UNL     1       1.934   3.751  21.458  0.00  0.00    +0.000 C 
ATOM     14  N   UNL     1       2.337   5.096  20.993  0.00  0.00    +0.000 NA
ATOM     15  H   UNL     1       3.330   5.287  21.124  0.00  0.00    +0.000 HD
ENDBRANCH  10  11
ENDBRANCH   9  10
ENDBRANCH   5   9
TORSDOF 4
ENDMDL
MODEL 4
REMARK VINA RESULT:      -5.6      1.705      5.111
REMARK  Name = 
REMARK  4 active torsions:
REMARK  status: ('A' for Active; 'I' for Inactive)
REMARK    1  A    between atoms: O_1  and  C_2
REMARK    2  A    between atoms: C_6  and  O_7
REMARK    3  A    between atoms: O_7  and  C_8
REMARK    4  A    between atoms: C_8  and  C_9
REMARK                            x       y       z     vdW  Elec       q    Type
REMARK                         _______ _______ _______ _____ _____    ______ ____
ROOT
ATOM      1  C   UNL     1       3.463   2.253  18.257  0.00  0.00    +0.000 A 
ATOM      2  C   UNL     1       2.135   2.407  17.891  0.00  0.00    +0.000 A 
ATOM      3  N   UNL     1       1.561   3.609  17.666  0.00  0.00    +0.000 NA
ATOM      4  C   UNL     1       2.363   4.691  17.816  0.00  0.00    +0.000 A 
ATOM      5  C   UNL     1       3.711   4.637  18.162  0.00  0.00    +0.000 A 
ATOM      6  C   UNL     1       4.263   3.380  18.396  0.00  0.00    +0.000 A 
ENDROOT
BRANCH   1   7
ATOM      7  O   UNL     1       4.023   1.030  18.498  0.00  0.00    +0.000 OA
ATOM      8  H   UNL     1       3.644   0.662  19.312  0.00  0.00    +0.000 HD
ENDBRANCH   1   7
BRANCH   5   9
ATOM      9  O   UNL     1       4.351   5.834  18.292  0.00  0.00    +0.000 OA
BRANCH   9  10
ATOM     10  C   UNL     1       4.917   6.387  17.099  0.00  0.00    +0.000 C 
BRANCH  10  11
ATOM     11  C   UNL     1       6.439   6.563  17.260  0.00  0.00    +0.000 C 
ATOM     12  C   UNL     1       7.178   5.804  18.379  0.00  0.00    +0.000 C 
ATOM     13  C   UNL     1       7.540   4.780  17.296  0.00  0.00    +0.000 C 
ATOM     14  N   UNL     1       7.260   5.810  16.272  0.00  0.00    +0.000 NA
ATOM     15  H   UNL     1       6.736   5.453  15.474  0.00  0.00    +0.000 HD
ENDBRANCH  10  11
ENDBRANCH   9  10
ENDBRANCH   5   9
TORSDOF 4
ENDMDL
MODEL 5
REMARK VINA RESULT:      -5.5      2.168      2.568
REMARK  Name = 
REMARK  4 active torsions:
REMARK  status: ('A' for Active; 'I' for Inactive)
REMARK    1  A    between atoms: O_1  and  C_2
REMARK    2  A    between atoms: C_6  and  O_7
REMARK    3  A    between atoms: O_7  and  C_8
REMARK    4  A    between atoms: C_8  and  C_9
REMARK                            x       y       z     vdW  Elec       q    Type
REMARK                         _______ _______ _______ _____ _____    ______ ____
ROOT
ATOM      1  C   UNL     1       6.929   5.342  16.695  0.00  0.00    +0.000 A 
ATOM      2  C   UNL     1       7.545   5.140  17.920  0.00  0.00    +0.000 A 
ATOM      3  N   UNL     1       6.866   4.994  19.078  0.00  0.00    +0.000 NA
ATOM      4  C   UNL     1       5.515   5.055  18.990  0.00  0.00    +0.000 A 
ATOM      5  C   UNL     1       4.805   5.236  17.805  0.00  0.00    +0.000 A 
ATOM      6  C   UNL     1       5.542   5.393  16.634  0.00  0.00    +0.000 A 
ENDROOT
BRANCH   1   7
ATOM      7  O   UNL     1       7.631   5.505  15.535  0.00  0.00    +0.000 OA
ATOM      8  H   UNL     1       7.135   5.101  14.804  0.00  0.00    +0.000 HD
ENDBRANCH   1   7
BRANCH   5   9
ATOM      9  O   UNL     1       3.447   5.295  17.917  0.00  0.00    +0.000 OA
BRANCH   9  10
ATOM     10  C   UNL     1       2.811   4.189  18.564  0.00  0.00    +0.000 C 
BRANCH  10  11
ATOM     11  C   UNL     1       1.877   4.688  19.683  0.00  0.00    +0.000 C 
ATOM     12  C   UNL     1       0.961   3.687  20.413  0.00  0.00    +0.000 C 
ATOM     13  C   UNL     1       2.041   3.659  21.501  0.00  0.00    +0.000 C 
ATOM     14  N   UNL     1       2.552   4.947  20.985  0.00  0.00    +0.000 NA
ATOM     15  H   UNL     1       3.569   4.986  20.933  0.00  0.00    +0.000 HD
ENDBRANCH  10  11
ENDBRANCH   9  10
ENDBRANCH   5   9
TORSDOF 4
ENDMDL
MODEL 6
REMARK VINA RESULT:      -5.5      1.299      1.299
REMARK  Name = 
REMARK  4 active torsions:
REMARK  status: ('A' for Active; 'I' for Inactive)
REMARK    1  A    between atoms: O_1  and  C_2
REMARK    2  A    between atoms: C_6  and  O_7
REMARK    3  A    between atoms: O_7  and  C_8
REMARK    4  A    between atoms: C_8  and  C_9
REMARK                            x       y       z     vdW  Elec       q    Type
REMARK                         _______ _______ _______ _____ _____    ______ ____
ROOT
ATOM      1  C   UNL     1       7.080   4.937  17.283  0.00  0.00    +0.000 A 
ATOM      2  C   UNL     1       7.229   6.265  16.918  0.00  0.00    +0.000 A 
ATOM      3  N   UNL     1       6.190   7.110  16.747  0.00  0.00    +0.000 NA
ATOM      4  C   UNL     1       4.956   6.588  16.956  0.00  0.00    +0.000 A 
ATOM      5  C   UNL     1       4.706   5.274  17.342  0.00  0.00    +0.000 A 
ATOM      6  C   UNL     1       5.804   4.432  17.497  0.00  0.00    +0.000 A 
ENDROOT
BRANCH   1   7
ATOM      7  O   UNL     1       8.142   4.090  17.434  0.00  0.00    +0.000 OA
ATOM      8  H   UNL     1       7.931   3.239  17.018  0.00  0.00    +0.000 HD
ENDBRANCH   1   7
BRANCH   5   9
ATOM      9  O   UNL     1       3.396   4.923  17.480  0.00  0.00    +0.000 OA
BRANCH   9  10
ATOM     10  C   UNL     1       3.091   3.530  17.350  0.00  0.00    +0.000 C 
BRANCH  10  11
ATOM     11  C   UNL     1       2.662   2.947  18.710  0.00  0.00    +0.000 C 
ATOM     12  C   UNL     1       1.435   3.531  19.436  0.00  0.00    +0.000 C 
ATOM     13  C   UNL     1       0.655   2.358  18.831  0.00  0.00    +0.000 C 
ATOM     14  N   UNL     1       1.937   1.649  18.628  0.00  0.00    +0.000 NA
ATOM     15  H   UNL     1       2.003   1.186  17.723  0.00  0.00    +0.000 HD
ENDBRANCH  10  11
ENDBRANCH   9  10
ENDBRANCH   5   9
TORSDOF 4
ENDMDL
MODEL 7
REMARK VINA RESULT:      -5.5      1.685      1.861
REMARK  Name = 
REMARK  4 active torsions:
REMARK  status: ('A' for Active; 'I' for Inactive)
REMARK    1  A    between atoms: O_1  and  C_2
REMARK    2  A    between atoms: C_6  and  O_7
REMARK    3  A    between atoms: O_7  and  C_8
REMARK    4  A    between atoms: C_8  and  C_9
REMARK                            x       y       z     vdW  Elec       q    Type
REMARK                         _______ _______ _______ _____ _____    ______ ____
ROOT
ATOM      1  C   UNL     1       7.241   4.679  17.153  0.00  0.00    +0.000 A 
ATOM      2  C   UNL     1       7.233   5.069  15.823  0.00  0.00    +0.000 A 
ATOM      3  N   UNL     1       6.197   5.713  15.244  0.00  0.00    +0.000 NA
ATOM      4  C   UNL     1       5.133   5.971  16.043  0.00  0.00    +0.000 A 
ATOM      5  C   UNL     1       5.055   5.636  17.393  0.00  0.00    +0.000 A 
ATOM      6  C   UNL     1       6.140   4.964  17.950  0.00  0.00    +0.000 A 
ENDROOT
BRANCH   1   7
ATOM      7  O   UNL     1       8.291   4.012  17.719  0.00  0.00    +0.000 OA
ATOM      8  H   UNL     1       8.361   3.131  17.317  0.00  0.00    +0.000 HD
ENDBRANCH   1   7
BRANCH   5   9
ATOM      9  O   UNL     1       3.892   5.955  18.029  0.00  0.00    +0.000 OA
BRANCH   9  10
ATOM     10  C   UNL     1       3.210   4.883  18.689  0.00  0.00    +0.000 C 
BRANCH  10  11
ATOM     11  C   UNL     1       2.621   3.907  17.654  0.00  0.00    +0.000 C 
ATOM     12  C   UNL     1       2.796   2.389  17.854  0.00  0.00    +0.000 C 
ATOM     13  C   UNL     1       1.382   2.414  18.447  0.00  0.00    +0.000 C 
ATOM     14  N   UNL     1       1.150   3.703  17.760  0.00  0.00    +0.000 NA
ATOM     15  H   UNL     1       0.669   4.389  18.341  0.00  0.00    +0.000 HD
ENDBRANCH  10  11
ENDBRANCH   9  10
ENDBRANCH   5   9
TORSDOF 4
ENDMDL
MODEL 8
REMARK VINA RESULT:      -5.5      2.173      5.129
REMARK  Name = 
REMARK  4 active torsions:
REMARK  status: ('A' for Active; 'I' for Inactive)
REMARK    1  A    between atoms: O_1  and  C_2
REMARK    2  A    between atoms: C_6  and  O_7
REMARK    3  A    between atoms: O_7  and  C_8
REMARK    4  A    between atoms: C_8  and  C_9
REMARK                            x       y       z     vdW  Elec       q    Type
REMARK                         _______ _______ _______ _____ _____    ______ ____
ROOT
ATOM      1  C   UNL     1       2.702   2.718  18.348  0.00  0.00    +0.000 A 
ATOM      2  C   UNL     1       1.924   3.627  19.048  0.00  0.00    +0.000 A 
ATOM      3  N   UNL     1       2.037   4.966  18.906  0.00  0.00    +0.000 NA
ATOM      4  C   UNL     1       2.969   5.396  18.022  0.00  0.00    +0.000 A 
ATOM      5  C   UNL     1       3.783   4.562  17.259  0.00  0.00    +0.000 A 
ATOM      6  C   UNL     1       3.645   3.189  17.443  0.00  0.00    +0.000 A 
ENDROOT
BRANCH   1   7
ATOM      7  O   UNL     1       2.588   1.367  18.516  0.00  0.00    +0.000 OA
ATOM      8  H   UNL     1       3.087   0.917  17.815  0.00  0.00    +0.000 HD
ENDBRANCH   1   7
BRANCH   5   9
ATOM      9  O   UNL     1       4.682   5.179  16.440  0.00  0.00    +0.000 OA
BRANCH   9  10
ATOM     10  C   UNL     1       5.727   4.359  15.906  0.00  0.00    +0.000 C 
BRANCH  10  11
ATOM     11  C   UNL     1       7.104   4.974  16.219  0.00  0.00    +0.000 C 
ATOM     12  C   UNL     1       7.198   6.186  17.167  0.00  0.00    +0.000 C 
ATOM     13  C   UNL     1       7.548   5.167  18.258  0.00  0.00    +0.000 C 
ATOM     14  N   UNL     1       7.920   4.205  17.198  0.00  0.00    +0.000 NA
ATOM     15  H   UNL     1       7.584   3.259  17.376  0.00  0.00    +0.000 HD
ENDBRANCH  10  11
ENDBRANCH   9  10
ENDBRANCH   5   9
TORSDOF 4
ENDMDL
MODEL 9
REMARK VINA RESULT:      -5.5      1.519      1.612
REMARK  Name = 
REMARK  4 active torsions:
REMARK  status: ('A' for Active; 'I' for Inactive)
REMARK    1  A    between atoms: O_1  and  C_2
REMARK    2  A    between atoms: C_6  and  O_7
REMARK    3  A    between atoms: O_7  and  C_8
REMARK    4  A    between atoms: C_8  and  C_9
REMARK                            x       y       z     vdW  Elec       q    Type
REMARK                         _______ _______ _______ _____ _____    ______ ____
ROOT
ATOM      1  C   UNL     1       6.715   5.007  18.723  0.00  0.00    +0.000 A 
ATOM      2  C   UNL     1       7.561   5.081  17.628  0.00  0.00    +0.000 A 
ATOM      3  N   UNL     1       7.224   4.640  16.397  0.00  0.00    +0.000 NA
ATOM      4  C   UNL     1       5.983   4.109  16.272  0.00  0.00    +0.000 A 
ATOM      5  C   UNL     1       5.056   4.009  17.307  0.00  0.00    +0.000 A 
ATOM      6  C   UNL     1       5.447   4.464  18.564  0.00  0.00    +0.000 A 
ENDROOT
BRANCH   1   7
ATOM      7  O   UNL     1       7.079   5.441  19.967  0.00  0.00    +0.000 OA
ATOM      8  H   UNL     1       6.812   6.369  20.069  0.00  0.00    +0.000 HD
ENDBRANCH   1   7
BRANCH   5   9
ATOM      9  O   UNL     1       3.866   3.420  16.997  0.00  0.00    +0.000 OA
BRANCH   9  10
ATOM     10  C   UNL     1       3.465   2.319  17.819  0.00  0.00    +0.000 C 
BRANCH  10  11
ATOM     11  C   UNL     1       1.956   2.395  18.117  0.00  0.00    +0.000 C 
ATOM     12  C   UNL     1       1.473   2.528  19.574  0.00  0.00    +0.000 C 
ATOM     13  C   UNL     1       1.362   4.030  19.285  0.00  0.00    +0.000 C 
ATOM     14  N   UNL     1       1.333   3.719  17.840  0.00  0.00    +0.000 NA
ATOM     15  H   UNL     1       1.910   4.347  17.280  0.00  0.00    +0.000 HD
ENDBRANCH  10  11
ENDBRANCH   9  10
ENDBRANCH   5   9
TORSDOF 4
ENDMDL
