MODEL 1
REMARK VINA RESULT:      -6.8      0.000      0.000
REMARK  Name = 
REMARK  6 active torsions:
REMARK  status: ('A' for Active; 'I' for Inactive)
REMARK    1  A    between atoms: C_1  and  C_2
REMARK    2  A    between atoms: C_2  and  C_3
REMARK    3  A    between atoms: N_10  and  C_11
REMARK    4  A    between atoms: C_11  and  C_12
REMARK    5  A    between atoms: N_19  and  C_20
REMARK    6  A    between atoms: C_20  and  C_21
REMARK                            x       y       z     vdW  Elec       q    Type
REMARK                         _______ _______ _______ _____ _____    ______ ____
ROOT
ATOM      1  C   UNL     1       5.934   4.291  18.441  0.00  0.00    +0.000 C 
ATOM      2  N   UNL     1       5.524   4.144  19.687  0.00  0.00    +0.000 NA
ATOM      3  C   UNL     1       4.044   3.877  19.455  0.00  0.00    +0.000 C 
ATOM      4  C   UNL     1       3.153   2.988  20.339  0.00  0.00    +0.000 C 
ATOM      5  C   UNL     1       1.746   3.657  20.229  0.00  0.00    +0.000 C 
ATOM      6  C   UNL     1       1.932   5.015  19.567  0.00  0.00    +0.000 C 
ATOM      7  C   UNL     1       1.783   5.182  18.053  0.00  0.00    +0.000 C 
ATOM      8  N   UNL     1       2.699   6.304  17.697  0.00  0.00    +0.000 NA
ATOM      9  C   UNL     1       3.640   6.450  18.824  0.00  0.00    +0.000 C 
ATOM     10  C   UNL     1       3.407   5.260  19.725  0.00  0.00    +0.000 C 
ATOM     11  C   UNL     1       4.178   3.130  18.146  0.00  0.00    +0.000 C 
ATOM     12  O   UNL     1       3.785   1.995  17.902  0.00  0.00    +0.000 OA
ATOM     13  N   UNL     1       5.127   3.800  17.465  0.00  0.00    +0.000 N 
ENDROOT
BRANCH   1  15
ATOM     14  C   UNL     1       7.203   6.466  17.787  0.00  0.00    +0.000 C 
ATOM     15  C   UNL     1       7.205   4.963  17.986  0.00  0.00    +0.000 C 
ENDBRANCH   1  15
BRANCH   8  16
ATOM     16  C   UNL     1       1.925   7.538  17.466  0.00  0.00    +0.000 C 
BRANCH  16  17
ATOM     17  C   UNL     1       2.291   8.670  18.389  0.00  0.00    +0.000 C 
ATOM     18  C   UNL     1       1.899  10.100  18.120  0.00  0.00    +0.000 C 
ATOM     19  C   UNL     1       1.213   9.332  19.214  0.00  0.00    +0.000 C 
ENDBRANCH  16  17
ENDBRANCH   8  16
BRANCH  13  20
ATOM     20  C   UNL     1       5.568   3.392  16.136  0.00  0.00    +0.000 C 
BRANCH  20  21
ATOM     21  C   UNL     1       5.485   4.457  15.074  0.00  0.00    +0.000 C 
ATOM     22  C   UNL     1       6.677   4.972  14.295  0.00  0.00    +0.000 C 
ATOM     23  C   UNL     1       5.656   4.106  13.626  0.00  0.00    +0.000 C 
ENDBRANCH  20  21
ENDBRANCH  13  20
TORSDOF 5
ENDMDL
MODEL 2
REMARK VINA RESULT:      -6.8      1.044      1.275
REMARK  Name = 
REMARK  6 active torsions:
REMARK  status: ('A' for Active; 'I' for Inactive)
REMARK    1  A    between atoms: C_1  and  C_2
REMARK    2  A    between atoms: C_2  and  C_3
REMARK    3  A    between atoms: N_10  and  C_11
REMARK    4  A    between atoms: C_11  and  C_12
REMARK    5  A    between atoms: N_19  and  C_20
REMARK    6  A    between atoms: C_20  and  C_21
REMARK                            x       y       z     vdW  Elec       q    Type
REMARK                         _______ _______ _______ _____ _____    ______ ____
ROOT
ATOM      1  C   UNL     1       6.274   4.978  17.539  0.00  0.00    +0.000 C 
ATOM      2  N   UNL     1       6.210   4.299  18.667  0.00  0.00    +0.000 NA
ATOM      3  C   UNL     1       4.727   3.960  18.696  0.00  0.00    +0.000 C 
ATOM      4  C   UNL     1       4.117   2.690  19.310  0.00  0.00    +0.000 C 
ATOM      5  C   UNL     1       2.718   3.164  19.818  0.00  0.00    +0.000 C 
ATOM      6  C   UNL     1       2.697   4.685  19.757  0.00  0.00    +0.000 C 
ATOM      7  C   UNL     1       2.152   5.419  18.530  0.00  0.00    +0.000 C 
ATOM      8  N   UNL     1       2.920   6.695  18.472  0.00  0.00    +0.000 NA
ATOM      9  C   UNL     1       4.122   6.499  19.305  0.00  0.00    +0.000 C 
ATOM     10  C   UNL     1       4.157   5.030  19.656  0.00  0.00    +0.000 C 
ATOM     11  C   UNL     1       4.525   3.818  17.203  0.00  0.00    +0.000 C 
ATOM     12  O   UNL     1       4.103   2.833  16.608  0.00  0.00    +0.000 OA
ATOM     13  N   UNL     1       5.249   4.817  16.663  0.00  0.00    +0.000 N 
ENDROOT
BRANCH   1  15
ATOM     14  C   UNL     1       7.241   7.393  17.498  0.00  0.00    +0.000 C 
ATOM     15  C   UNL     1       7.368   5.930  17.123  0.00  0.00    +0.000 C 
ENDBRANCH   1  15
BRANCH   8  16
ATOM     16  C   UNL     1       2.090   7.811  18.961  0.00  0.00    +0.000 C 
BRANCH  16  17
ATOM     17  C   UNL     1       1.658   8.769  17.883  0.00  0.00    +0.000 C 
ATOM     18  C   UNL     1       0.513   9.734  18.061  0.00  0.00    +0.000 C 
ATOM     19  C   UNL     1       1.927  10.246  18.050  0.00  0.00    +0.000 C 
ENDBRANCH  16  17
ENDBRANCH   8  16
BRANCH  13  20
ATOM     20  C   UNL     1       5.331   5.029  15.222  0.00  0.00    +0.000 C 
BRANCH  20  21
ATOM     21  C   UNL     1       6.250   4.093  14.483  0.00  0.00    +0.000 C 
ATOM     22  C   UNL     1       6.002   3.597  13.074  0.00  0.00    +0.000 C 
ATOM     23  C   UNL     1       7.089   4.590  13.343  0.00  0.00    +0.000 C 
ENDBRANCH  20  21
ENDBRANCH  13  20
TORSDOF 5
ENDMDL
MODEL 3
REMARK VINA RESULT:      -6.7      2.295      5.835
REMARK  Name = 
REMARK  6 active torsions:
REMARK  status: ('A' for Active; 'I' for Inactive)
REMARK    1  A    between atoms: C_1  and  C_2
REMARK    2  A    between atoms: C_2  and  C_3
REMARK    3  A    between atoms: N_10  and  C_11
REMARK    4  A    between atoms: C_11  and  C_12
REMARK    5  A    between atoms: N_19  and  C_20
REMARK    6  A    between atoms: C_20  and  C_21
REMARK                            x       y       z     vdW  Elec       q    Type
REMARK                         _______ _______ _______ _____ _____    ______ ____
ROOT
ATOM      1  C   UNL     1       4.305   3.318  18.781  0.00  0.00    +0.000 C 
ATOM      2  N   UNL     1       5.564   3.385  19.171  0.00  0.00    +0.000 NA
ATOM      3  C   UNL     1       5.927   4.777  18.676  0.00  0.00    +0.000 C 
ATOM      4  C   UNL     1       6.938   5.722  19.346  0.00  0.00    +0.000 C 
ATOM      5  C   UNL     1       7.537   6.526  18.148  0.00  0.00    +0.000 C 
ATOM      6  C   UNL     1       7.097   5.836  16.865  0.00  0.00    +0.000 C 
ATOM      7  C   UNL     1       5.834   6.280  16.124  0.00  0.00    +0.000 C 
ATOM      8  N   UNL     1       5.324   5.047  15.458  0.00  0.00    +0.000 NA
ATOM      9  C   UNL     1       5.964   3.907  16.141  0.00  0.00    +0.000 C 
ATOM     10  C   UNL     1       6.666   4.480  17.350  0.00  0.00    +0.000 C 
ATOM     11  C   UNL     1       4.576   5.424  18.888  0.00  0.00    +0.000 C 
ATOM     12  O   UNL     1       4.330   6.408  19.575  0.00  0.00    +0.000 OA
ATOM     13  N   UNL     1       3.685   4.493  18.496  0.00  0.00    +0.000 N 
ENDROOT
BRANCH   1  15
ATOM     14  C   UNL     1       2.590   1.946  17.387  0.00  0.00    +0.000 C 
ATOM     15  C   UNL     1       3.483   2.066  18.606  0.00  0.00    +0.000 C 
ENDBRANCH   1  15
BRANCH   8  16
ATOM     16  C   UNL     1       5.646   5.075  14.019  0.00  0.00    +0.000 C 
BRANCH  16  17
ATOM     17  C   UNL     1       6.004   3.730  13.447  0.00  0.00    +0.000 C 
ATOM     18  C   UNL     1       5.406   3.202  12.169  0.00  0.00    +0.000 C 
ATOM     19  C   UNL     1       6.838   3.655  12.190  0.00  0.00    +0.000 C 
ENDBRANCH  16  17
ENDBRANCH   8  16
BRANCH  13  20
ATOM     20  C   UNL     1       2.245   4.719  18.551  0.00  0.00    +0.000 C 
BRANCH  20  21
ATOM     21  C   UNL     1       1.665   4.851  19.934  0.00  0.00    +0.000 C 
ATOM     22  C   UNL     1       0.851   3.774  20.619  0.00  0.00    +0.000 C 
ATOM     23  C   UNL     1       2.242   4.076  21.081  0.00  0.00    +0.000 C 
ENDBRANCH  20  21
ENDBRANCH  13  20
TORSDOF 5
ENDMDL
MODEL 4
REMARK VINA RESULT:      -6.5      1.319      1.607
REMARK  Name = 
REMARK  6 active torsions:
REMARK  status: ('A' for Active; 'I' for Inactive)
REMARK    1  A    between atoms: C_1  and  C_2
REMARK    2  A    between atoms: C_2  and  C_3
REMARK    3  A    between atoms: N_10  and  C_11
REMARK    4  A    between atoms: C_11  and  C_12
REMARK    5  A    between atoms: N_19  and  C_20
REMARK    6  A    between atoms: C_20  and  C_21
REMARK                            x       y       z     vdW  Elec       q    Type
REMARK                         _______ _______ _______ _____ _____    ______ ____
ROOT
ATOM      1  C   UNL     1       5.904   4.692  18.142  0.00  0.00    +0.000 C 
ATOM      2  N   UNL     1       5.502   3.838  19.063  0.00  0.00    +0.000 NA
ATOM      3  C   UNL     1       4.019   3.760  18.732  0.00  0.00    +0.000 C 
ATOM      4  C   UNL     1       3.128   2.522  18.928  0.00  0.00    +0.000 C 
ATOM      5  C   UNL     1       1.724   3.128  19.247  0.00  0.00    +0.000 C 
ATOM      6  C   UNL     1       1.914   4.615  19.512  0.00  0.00    +0.000 C 
ATOM      7  C   UNL     1       1.756   5.644  18.391  0.00  0.00    +0.000 C 
ATOM      8  N   UNL     1       2.676   6.758  18.757  0.00  0.00    +0.000 NA
ATOM      9  C   UNL     1       3.625   6.210  19.744  0.00  0.00    +0.000 C 
ATOM     10  C   UNL     1       3.391   4.718  19.772  0.00  0.00    +0.000 C 
ATOM     11  C   UNL     1       4.140   3.930  17.233  0.00  0.00    +0.000 C 
ATOM     12  O   UNL     1       3.738   3.158  16.370  0.00  0.00    +0.000 OA
ATOM     13  N   UNL     1       5.088   4.872  17.070  0.00  0.00    +0.000 N 
ENDROOT
BRANCH   1  15
ATOM     14  C   UNL     1       7.853   5.765  19.490  0.00  0.00    +0.000 C 
ATOM     15  C   UNL     1       7.176   5.502  18.159  0.00  0.00    +0.000 C 
ENDBRANCH   1  15
BRANCH   8  16
ATOM     16  C   UNL     1       1.908   7.892  19.306  0.00  0.00    +0.000 C 
BRANCH  16  17
ATOM     17  C   UNL     1       1.570   7.750  20.766  0.00  0.00    +0.000 C 
ATOM     18  C   UNL     1       1.436   8.933  21.690  0.00  0.00    +0.000 C 
ATOM     19  C   UNL     1       0.209   8.181  21.258  0.00  0.00    +0.000 C 
ENDBRANCH  16  17
ENDBRANCH   8  16
BRANCH  13  20
ATOM     20  C   UNL     1       5.517   5.327  15.753  0.00  0.00    +0.000 C 
BRANCH  20  21
ATOM     21  C   UNL     1       6.387   4.364  14.989  0.00  0.00    +0.000 C 
ATOM     22  C   UNL     1       6.031   3.792  13.633  0.00  0.00    +0.000 C 
ATOM     23  C   UNL     1       7.121   4.810  13.759  0.00  0.00    +0.000 C 
ENDBRANCH  20  21
ENDBRANCH  13  20
TORSDOF 5
ENDMDL
MODEL 5
REMARK VINA RESULT:      -6.1      1.149      1.408
REMARK  Name = 
REMARK  6 active torsions:
REMARK  status: ('A' for Active; 'I' for Inactive)
REMARK    1  A    between atoms: C_1  and  C_2
REMARK    2  A    between atoms: C_2  and  C_3
REMARK    3  A    between atoms: N_10  and  C_11
REMARK    4  A    between atoms: C_11  and  C_12
REMARK    5  A    between atoms: N_19  and  C_20
REMARK    6  A    between atoms: C_20  and  C_21
REMARK                            x       y       z     vdW  Elec       q    Type
REMARK                         _______ _______ _______ _____ _____    ______ ____
ROOT
ATOM      1  C   UNL     1       5.506   3.872  18.596  0.00  0.00    +0.000 C 
ATOM      2  N   UNL     1       4.976   3.245  19.627  0.00  0.00    +0.000 NA
ATOM      3  C   UNL     1       3.499   3.351  19.278  0.00  0.00    +0.000 C 
ATOM      4  C   UNL     1       2.423   2.313  19.641  0.00  0.00    +0.000 C 
ATOM      5  C   UNL     1       1.134   3.175  19.832  0.00  0.00    +0.000 C 
ATOM      6  C   UNL     1       1.558   4.636  19.872  0.00  0.00    +0.000 C 
ATOM      7  C   UNL     1       1.563   5.491  18.604  0.00  0.00    +0.000 C 
ATOM      8  N   UNL     1       2.649   6.491  18.817  0.00  0.00    +0.000 NA
ATOM      9  C   UNL     1       3.501   5.958  19.897  0.00  0.00    +0.000 C 
ATOM     10  C   UNL     1       3.033   4.544  20.146  0.00  0.00    +0.000 C 
ATOM     11  C   UNL     1       3.642   3.267  17.774  0.00  0.00    +0.000 C 
ATOM     12  O   UNL     1       3.121   2.444  17.030  0.00  0.00    +0.000 OA
ATOM     13  N   UNL     1       4.728   4.011  17.491  0.00  0.00    +0.000 N 
ENDROOT
BRANCH   1  15
ATOM     14  C   UNL     1       7.197   5.709  19.329  0.00  0.00    +0.000 C 
ATOM     15  C   UNL     1       6.891   4.465  18.518  0.00  0.00    +0.000 C 
ENDBRANCH   1  15
BRANCH   8  16
ATOM     16  C   UNL     1       2.072   7.801  19.169  0.00  0.00    +0.000 C 
BRANCH  16  17
ATOM     17  C   UNL     1       1.702   8.645  17.978  0.00  0.00    +0.000 C 
ATOM     18  C   UNL     1       0.634   9.708  18.033  0.00  0.00    +0.000 C 
ATOM     19  C   UNL     1       2.082  10.106  17.957  0.00  0.00    +0.000 C 
ENDBRANCH  16  17
ENDBRANCH   8  16
BRANCH  13  20
ATOM     20  C   UNL     1       5.221   4.185  16.130  0.00  0.00    +0.000 C 
BRANCH  20  21
ATOM     21  C   UNL     1       5.740   5.560  15.803  0.00  0.00    +0.000 C 
ATOM     22  C   UNL     1       5.032   6.540  14.891  0.00  0.00    +0.000 C 
ATOM     23  C   UNL     1       5.075   6.781  16.367  0.00  0.00    +0.000 C 
ENDBRANCH  20  21
ENDBRANCH  13  20
TORSDOF 5
ENDMDL
MODEL 6
REMARK VINA RESULT:      -6.1      1.698      1.974
REMARK  Name = 
REMARK  6 active torsions:
REMARK  status: ('A' for Active; 'I' for Inactive)
REMARK    1  A    between atoms: C_1  and  C_2
REMARK    2  A    between atoms: C_2  and  C_3
REMARK    3  A    between atoms: N_10  and  C_11
REMARK    4  A    between atoms: C_11  and  C_12
REMARK    5  A    between atoms: N_19  and  C_20
REMARK    6  A    between atoms: C_20  and  C_21
REMARK                            x       y       z     vdW  Elec       q    Type
REMARK                         _______ _______ _______ _____ _____    ______ ____
ROOT
ATOM      1  C   UNL     1       5.349   4.391  18.749  0.00  0.00    +0.000 C 
ATOM      2  N   UNL     1       5.074   3.264  19.376  0.00  0.00    +0.000 NA
ATOM      3  C   UNL     1       3.590   3.136  19.065  0.00  0.00    +0.000 C 
ATOM      4  C   UNL     1       2.828   1.812  18.894  0.00  0.00    +0.000 C 
ATOM      5  C   UNL     1       1.391   2.147  19.409  0.00  0.00    +0.000 C 
ATOM      6  C   UNL     1       1.456   3.496  20.109  0.00  0.00    +0.000 C 
ATOM      7  C   UNL     1       1.149   4.792  19.356  0.00  0.00    +0.000 C 
ATOM      8  N   UNL     1       1.979   5.834  20.026  0.00  0.00    +0.000 NA
ATOM      9  C   UNL     1       3.023   5.115  20.781  0.00  0.00    +0.000 C 
ATOM     10  C   UNL     1       2.929   3.668  20.359  0.00  0.00    +0.000 C 
ATOM     11  C   UNL     1       3.619   3.760  17.686  0.00  0.00    +0.000 C 
ATOM     12  O   UNL     1       3.248   3.245  16.638  0.00  0.00    +0.000 OA
ATOM     13  N   UNL     1       4.468   4.799  17.799  0.00  0.00    +0.000 N 
ENDROOT
BRANCH   1  15
ATOM     14  C   UNL     1       7.875   4.894  18.384  0.00  0.00    +0.000 C 
ATOM     15  C   UNL     1       6.541   5.285  18.987  0.00  0.00    +0.000 C 
ENDBRANCH   1  15
BRANCH   8  16
ATOM     16  C   UNL     1       1.138   6.665  20.908  0.00  0.00    +0.000 C 
BRANCH  16  17
ATOM     17  C   UNL     1       1.433   8.139  20.821  0.00  0.00    +0.000 C 
ATOM     18  C   UNL     1       0.353   9.189  20.845  0.00  0.00    +0.000 C 
ATOM     19  C   UNL     1       1.243   9.007  22.042  0.00  0.00    +0.000 C 
ENDBRANCH  16  17
ENDBRANCH   8  16
BRANCH  13  20
ATOM     20  C   UNL     1       4.787   5.671  16.674  0.00  0.00    +0.000 C 
BRANCH  20  21
ATOM     21  C   UNL     1       5.201   4.966  15.409  0.00  0.00    +0.000 C 
ATOM     22  C   UNL     1       6.509   5.215  14.688  0.00  0.00    +0.000 C 
ATOM     23  C   UNL     1       6.290   3.935  15.432  0.00  0.00    +0.000 C 
ENDBRANCH  20  21
ENDBRANCH  13  20
TORSDOF 5
ENDMDL
MODEL 7
REMARK VINA RESULT:      -6.0      1.828      5.428
REMARK  Name = 
REMARK  6 active torsions:
REMARK  status: ('A' for Active; 'I' for Inactive)
REMARK    1  A    between atoms: C_1  and  C_2
REMARK    2  A    between atoms: C_2  and  C_3
REMARK    3  A    between atoms: N_10  and  C_11
REMARK    4  A    between atoms: C_11  and  C_12
REMARK    5  A    between atoms: N_19  and  C_20
REMARK    6  A    between atoms: C_20  and  C_21
REMARK                            x       y       z     vdW  Elec       q    Type
REMARK                         _______ _______ _______ _____ _____    ______ ____
ROOT
ATOM      1  C   UNL     1       3.319   5.796  18.097  0.00  0.00    +0.000 C 
ATOM      2  N   UNL     1       3.431   5.728  16.784  0.00  0.00    +0.000 NA
ATOM      3  C   UNL     1       4.727   4.940  16.664  0.00  0.00    +0.000 C 
ATOM      4  C   UNL     1       5.070   3.961  15.528  0.00  0.00    +0.000 C 
ATOM      5  C   UNL     1       6.622   4.085  15.395  0.00  0.00    +0.000 C 
ATOM      6  C   UNL     1       7.059   5.296  16.207  0.00  0.00    +0.000 C 
ATOM      7  C   UNL     1       7.510   5.149  17.662  0.00  0.00    +0.000 C 
ATOM      8  N   UNL     1       7.141   6.440  18.313  0.00  0.00    +0.000 NA
ATOM      9  C   UNL     1       6.144   7.080  17.434  0.00  0.00    +0.000 C 
ATOM     10  C   UNL     1       5.771   6.049  16.395  0.00  0.00    +0.000 C 
ATOM     11  C   UNL     1       4.551   4.076  17.894  0.00  0.00    +0.000 C 
ATOM     12  O   UNL     1       4.538   2.852  17.939  0.00  0.00    +0.000 OA
ATOM     13  N   UNL     1       4.041   4.906  18.824  0.00  0.00    +0.000 N 
ENDROOT
BRANCH   1  15
ATOM     14  C   UNL     1       2.313   8.183  18.342  0.00  0.00    +0.000 C 
ATOM     15  C   UNL     1       2.477   6.774  18.877  0.00  0.00    +0.000 C 
ENDBRANCH   1  15
BRANCH   8  16
ATOM     16  C   UNL     1       8.340   7.281  18.487  0.00  0.00    +0.000 C 
BRANCH  16  17
ATOM     17  C   UNL     1       8.044   8.755  18.566  0.00  0.00    +0.000 C 
ATOM     18  C   UNL     1       9.062   9.768  19.023  0.00  0.00    +0.000 C 
ATOM     19  C   UNL     1       8.683   9.695  17.571  0.00  0.00    +0.000 C 
ENDBRANCH  16  17
ENDBRANCH   8  16
BRANCH  13  20
ATOM     20  C   UNL     1       3.712   4.457  20.173  0.00  0.00    +0.000 C 
BRANCH  20  21
ATOM     21  C   UNL     1       2.590   3.458  20.264  0.00  0.00    +0.000 C 
ATOM     22  C   UNL     1       1.990   2.973  21.567  0.00  0.00    +0.000 C 
ATOM     23  C   UNL     1       1.214   3.891  20.676  0.00  0.00    +0.000 C 
ENDBRANCH  20  21
ENDBRANCH  13  20
TORSDOF 5
ENDMDL
MODEL 8
REMARK VINA RESULT:      -5.9      2.392      5.918
REMARK  Name = 
REMARK  6 active torsions:
REMARK  status: ('A' for Active; 'I' for Inactive)
REMARK    1  A    between atoms: C_1  and  C_2
REMARK    2  A    between atoms: C_2  and  C_3
REMARK    3  A    between atoms: N_10  and  C_11
REMARK    4  A    between atoms: C_11  and  C_12
REMARK    5  A    between atoms: N_19  and  C_20
REMARK    6  A    between atoms: C_20  and  C_21
REMARK                            x       y       z     vdW  Elec       q    Type
REMARK                         _______ _______ _______ _____ _____    ______ ____
ROOT
ATOM      1  C   UNL     1       4.773   3.555  18.691  0.00  0.00    +0.000 C 
ATOM      2  N   UNL     1       5.914   4.127  19.023  0.00  0.00    +0.000 NA
ATOM      3  C   UNL     1       5.913   5.310  18.066  0.00  0.00    +0.000 C 
ATOM      4  C   UNL     1       6.540   6.685  18.352  0.00  0.00    +0.000 C 
ATOM      5  C   UNL     1       7.002   7.176  16.943  0.00  0.00    +0.000 C 
ATOM      6  C   UNL     1       6.908   5.994  15.989  0.00  0.00    +0.000 C 
ATOM      7  C   UNL     1       5.652   5.756  15.148  0.00  0.00    +0.000 C 
ATOM      8  N   UNL     1       5.584   4.278  14.964  0.00  0.00    +0.000 NA
ATOM      9  C   UNL     1       6.451   3.688  16.002  0.00  0.00    +0.000 C 
ATOM     10  C   UNL     1       6.836   4.820  16.925  0.00  0.00    +0.000 C 
ATOM     11  C   UNL     1       4.419   5.550  18.045  0.00  0.00    +0.000 C 
ATOM     12  O   UNL     1       3.835   6.585  18.342  0.00  0.00    +0.000 OA
ATOM     13  N   UNL     1       3.876   4.318  18.015  0.00  0.00    +0.000 N 
ENDROOT
BRANCH   1  15
ATOM     14  C   UNL     1       4.675   1.544  20.338  0.00  0.00    +0.000 C 
ATOM     15  C   UNL     1       4.364   2.132  18.976  0.00  0.00    +0.000 C 
ENDBRANCH   1  15
BRANCH   8  16
ATOM     16  C   UNL     1       6.028   3.913  13.606  0.00  0.00    +0.000 C 
BRANCH  16  17
ATOM     17  C   UNL     1       5.024   3.101  12.833  0.00  0.00    +0.000 C 
ATOM     18  C   UNL     1       4.499   3.522  11.484  0.00  0.00    +0.000 C 
ATOM     19  C   UNL     1       5.461   2.372  11.585  0.00  0.00    +0.000 C 
ENDBRANCH  16  17
ENDBRANCH   8  16
BRANCH  13  20
ATOM     20  C   UNL     1       2.433   4.103  17.996  0.00  0.00    +0.000 C 
BRANCH  20  21
ATOM     21  C   UNL     1       1.870   3.396  19.201  0.00  0.00    +0.000 C 
ATOM     22  C   UNL     1       0.849   4.003  20.139  0.00  0.00    +0.000 C 
ATOM     23  C   UNL     1       0.453   2.904  19.204  0.00  0.00    +0.000 C 
ENDBRANCH  20  21
ENDBRANCH  13  20
TORSDOF 5
ENDMDL
MODEL 9
REMARK VINA RESULT:      -5.9      1.682      5.791
REMARK  Name = 
REMARK  6 active torsions:
REMARK  status: ('A' for Active; 'I' for Inactive)
REMARK    1  A    between atoms: C_1  and  C_2
REMARK    2  A    between atoms: C_2  and  C_3
REMARK    3  A    between atoms: N_10  and  C_11
REMARK    4  A    between atoms: C_11  and  C_12
REMARK    5  A    between atoms: N_19  and  C_20
REMARK    6  A    between atoms: C_20  and  C_21
REMARK                            x       y       z     vdW  Elec       q    Type
REMARK                         _______ _______ _______ _____ _____    ______ ____
ROOT
ATOM      1  C   UNL     1       3.197   3.948  18.254  0.00  0.00    +0.000 C 
ATOM      2  N   UNL     1       4.250   3.353  18.779  0.00  0.00    +0.000 NA
ATOM      3  C   UNL     1       5.314   4.409  18.521  0.00  0.00    +0.000 C 
ATOM      4  C   UNL     1       6.535   4.678  19.417  0.00  0.00    +0.000 C 
ATOM      5  C   UNL     1       7.630   5.155  18.410  0.00  0.00    +0.000 C 
ATOM      6  C   UNL     1       7.121   4.865  17.005  0.00  0.00    +0.000 C 
ATOM      7  C   UNL     1       6.366   5.928  16.204  0.00  0.00    +0.000 C 
ATOM      8  N   UNL     1       5.437   5.161  15.325  0.00  0.00    +0.000 NA
ATOM      9  C   UNL     1       5.329   3.810  15.909  0.00  0.00    +0.000 C 
ATOM     10  C   UNL     1       6.018   3.874  17.252  0.00  0.00    +0.000 C 
ATOM     11  C   UNL     1       4.430   5.627  18.677  0.00  0.00    +0.000 C 
ATOM     12  O   UNL     1       4.585   6.554  19.463  0.00  0.00    +0.000 OA
ATOM     13  N   UNL     1       3.276   5.291  18.070  0.00  0.00    +0.000 N 
ENDROOT
BRANCH   1  15
ATOM     14  C   UNL     1       1.060   2.599  18.872  0.00  0.00    +0.000 C 
ATOM     15  C   UNL     1       1.911   3.286  17.824  0.00  0.00    +0.000 C 
ENDBRANCH   1  15
BRANCH   8  16
ATOM     16  C   UNL     1       5.957   5.122  13.946  0.00  0.00    +0.000 C 
BRANCH  16  17
ATOM     17  C   UNL     1       6.045   3.736  13.366  0.00  0.00    +0.000 C 
ATOM     18  C   UNL     1       5.273   3.314  12.141  0.00  0.00    +0.000 C 
ATOM     19  C   UNL     1       6.759   3.525  12.051  0.00  0.00    +0.000 C 
ENDBRANCH  16  17
ENDBRANCH   8  16
BRANCH  13  20
ATOM     20  C   UNL     1       2.137   6.200  18.004  0.00  0.00    +0.000 C 
BRANCH  20  21
ATOM     21  C   UNL     1       2.474   7.665  18.091  0.00  0.00    +0.000 C 
ATOM     22  C   UNL     1       1.551   8.777  17.638  0.00  0.00    +0.000 C 
ATOM     23  C   UNL     1       1.795   8.546  19.097  0.00  0.00    +0.000 C 
ENDBRANCH  20  21
ENDBRANCH  13  20
TORSDOF 5
ENDMDL
