MODEL 1
REMARK VINA RESULT:      -9.4      0.000      0.000
REMARK  Name = 
REMARK  9 active torsions:
REMARK  status: ('A' for Active; 'I' for Inactive)
REMARK    1  A    between atoms: C_1  and  O_2
REMARK    2  A    between atoms: O_2  and  C_3
REMARK    3  A    between atoms: C_6  and  C_7
REMARK    4  A    between atoms: C_7  and  C_8
REMARK    5  A    between atoms: C_8  and  N_9
REMARK    6  A    between atoms: N_14  and  C_15
REMARK    7  A    between atoms: C_20  and  C_21
REMARK    8  A    between atoms: C_29  and  O_30
REMARK    9  A    between atoms: O_30  and  C_31
REMARK                            x       y       z     vdW  Elec       q    Type
REMARK                         _______ _______ _______ _____ _____    ______ ____
ROOT
ATOM      1  N   UNL     1       7.487   7.243  18.290  0.00  0.00    +0.000 N 
ATOM      2  C   UNL     1       7.055   6.304  17.354  0.00  0.00    +0.000 A 
ATOM      3  N   UNL     1       7.569   6.266  16.138  0.00  0.00    +0.000 NA
ATOM      4  C   UNL     1       7.046   5.295  15.261  0.00  0.00    +0.000 A 
ATOM      5  N   UNL     1       7.412   5.170  13.991  0.00  0.00    +0.000 NA
ATOM      6  N   UNL     1       6.625   4.154  13.545  0.00  0.00    +0.000 N 
ATOM      7  C   UNL     1       6.678   3.747  12.162  0.00  0.00    +0.000 C 
ATOM      8  C   UNL     1       5.788   3.634  14.499  0.00  0.00    +0.000 A 
ATOM      9  C   UNL     1       6.054   4.378  15.609  0.00  0.00    +0.000 A 
ATOM     10  C   UNL     1       5.522   4.428  16.949  0.00  0.00    +0.000 A 
ATOM     11  N   UNL     1       4.594   3.737  17.551  0.00  0.00    +0.000 NA
ATOM     12  C   UNL     1       4.525   4.372  18.780  0.00  0.00    +0.000 A 
ATOM     13  N   UNL     1       5.384   5.402  18.953  0.00  0.00    +0.000 NA
ATOM     14  N   UNL     1       6.027   5.395  17.759  0.00  0.00    +0.000 N 
ATOM     15  H   UNL     1       6.880   7.333  19.105  0.00  0.00    +0.000 HD
ENDROOT
BRANCH  12  16
ATOM     16  C   UNL     1       3.525   3.928  19.804  0.00  0.00    +0.000 A 
ATOM     17  C   UNL     1       3.513   2.684  20.411  0.00  0.00    +0.000 A 
ATOM     18  C   UNL     1       2.406   2.663  21.292  0.00  0.00    +0.000 A 
ATOM     19  C   UNL     1       1.799   3.890  21.162  0.00  0.00    +0.000 A 
ATOM     20  O   UNL     1       2.473   4.668  20.275  0.00  0.00    +0.000 OA
ENDBRANCH  12  16
BRANCH   1  21
ATOM     21  C   UNL     1       8.159   8.467  17.852  0.00  0.00    +0.000 C 
BRANCH  21  22
ATOM     22  C   UNL     1       8.968   9.125  18.979  0.00  0.00    +0.000 C 
BRANCH  22  26
ATOM     23  C   UNL     1       9.988  13.163  17.761  0.00  0.00    +0.000 A 
ATOM     24  C   UNL     1      10.910  12.372  18.464  0.00  0.00    +0.000 A 
ATOM     25  C   UNL     1      10.583  11.078  18.884  0.00  0.00    +0.000 A 
ATOM     26  C   UNL     1       9.309  10.563  18.645  0.00  0.00    +0.000 A 
ATOM     27  C   UNL     1       8.360  11.394  18.033  0.00  0.00    +0.000 A 
ATOM     28  C   UNL     1       8.678  12.692  17.595  0.00  0.00    +0.000 A 
BRANCH  23  30
ATOM     29  C   UNL     1      11.127  15.202  18.138  0.00  0.00    +0.000 C 
ATOM     30  O   UNL     1      10.346  14.387  17.262  0.00  0.00    +0.000 OA
ENDBRANCH  23  30
BRANCH  28  31
ATOM     31  O   UNL     1       7.601  13.313  17.019  0.00  0.00    +0.000 OA
ATOM     32  C   UNL     1       6.897  14.305  17.749  0.00  0.00    +0.000 C 
ENDBRANCH  28  31
ENDBRANCH  22  26
ENDBRANCH  21  22
ENDBRANCH   1  21
TORSDOF 6
ENDMDL
MODEL 2
REMARK VINA RESULT:      -9.4      1.552      1.889
REMARK  Name = 
REMARK  9 active torsions:
REMARK  status: ('A' for Active; 'I' for Inactive)
REMARK    1  A    between atoms: C_1  and  O_2
REMARK    2  A    between atoms: O_2  and  C_3
REMARK    3  A    between atoms: C_6  and  C_7
REMARK    4  A    between atoms: C_7  and  C_8
REMARK    5  A    between atoms: C_8  and  N_9
REMARK    6  A    between atoms: N_14  and  C_15
REMARK    7  A    between atoms: C_20  and  C_21
REMARK    8  A    between atoms: C_29  and  O_30
REMARK    9  A    between atoms: O_30  and  C_31
REMARK                            x       y       z     vdW  Elec       q    Type
REMARK                         _______ _______ _______ _____ _____    ______ ____
ROOT
ATOM      1  N   UNL     1       7.076   7.196  18.114  0.00  0.00    +0.000 N 
ATOM      2  C   UNL     1       6.723   6.277  17.126  0.00  0.00    +0.000 A 
ATOM      3  N   UNL     1       7.402   6.192  15.998  0.00  0.00    +0.000 NA
ATOM      4  C   UNL     1       6.948   5.248  15.056  0.00  0.00    +0.000 A 
ATOM      5  N   UNL     1       7.484   5.085  13.851  0.00  0.00    +0.000 NA
ATOM      6  N   UNL     1       6.705   4.118  13.298  0.00  0.00    +0.000 N 
ATOM      7  C   UNL     1       6.930   3.693  11.938  0.00  0.00    +0.000 C 
ATOM      8  C   UNL     1       5.707   3.663  14.123  0.00  0.00    +0.000 A 
ATOM      9  C   UNL     1       5.859   4.400  15.258  0.00  0.00    +0.000 A 
ATOM     10  C   UNL     1       5.145   4.499  16.507  0.00  0.00    +0.000 A 
ATOM     11  N   UNL     1       4.096   3.875  16.971  0.00  0.00    +0.000 NA
ATOM     12  C   UNL     1       3.893   4.528  18.176  0.00  0.00    +0.000 A 
ATOM     13  N   UNL     1       4.783   5.501  18.469  0.00  0.00    +0.000 NA
ATOM     14  N   UNL     1       5.590   5.441  17.380  0.00  0.00    +0.000 N 
ATOM     15  H   UNL     1       6.365   7.334  18.833  0.00  0.00    +0.000 HD
ENDROOT
BRANCH  12  16
ATOM     16  C   UNL     1       2.729   4.160  19.045  0.00  0.00    +0.000 A 
ATOM     17  C   UNL     1       2.592   4.514  20.376  0.00  0.00    +0.000 A 
ATOM     18  C   UNL     1       1.372   3.959  20.831  0.00  0.00    +0.000 A 
ATOM     19  C   UNL     1       0.842   3.288  19.755  0.00  0.00    +0.000 A 
ATOM     20  O   UNL     1       1.646   3.412  18.666  0.00  0.00    +0.000 OA
ENDBRANCH  12  16
BRANCH   1  21
ATOM     21  C   UNL     1       7.882   8.370  17.775  0.00  0.00    +0.000 C 
BRANCH  21  22
ATOM     22  C   UNL     1       8.865   8.746  18.893  0.00  0.00    +0.000 C 
BRANCH  22  26
ATOM     23  C   UNL     1       9.214  13.060  19.192  0.00  0.00    +0.000 A 
ATOM     24  C   UNL     1       8.946  12.446  17.958  0.00  0.00    +0.000 A 
ATOM     25  C   UNL     1       8.856  11.055  17.846  0.00  0.00    +0.000 A 
ATOM     26  C   UNL     1       9.076  10.245  18.960  0.00  0.00    +0.000 A 
ATOM     27  C   UNL     1       9.444  10.858  20.165  0.00  0.00    +0.000 A 
ATOM     28  C   UNL     1       9.526  12.256  20.297  0.00  0.00    +0.000 A 
BRANCH  23  30
ATOM     29  C   UNL     1       9.492  15.154  18.126  0.00  0.00    +0.000 C 
ATOM     30  O   UNL     1       9.199  14.424  19.318  0.00  0.00    +0.000 OA
ENDBRANCH  23  30
BRANCH  28  31
ATOM     31  O   UNL     1       9.892  12.628  21.563  0.00  0.00    +0.000 OA
ATOM     32  C   UNL     1       8.917  12.646  22.593  0.00  0.00    +0.000 C 
ENDBRANCH  28  31
ENDBRANCH  22  26
ENDBRANCH  21  22
ENDBRANCH   1  21
TORSDOF 6
ENDMDL
MODEL 3
REMARK VINA RESULT:      -9.2      1.124      1.526
REMARK  Name = 
REMARK  9 active torsions:
REMARK  status: ('A' for Active; 'I' for Inactive)
REMARK    1  A    between atoms: C_1  and  O_2
REMARK    2  A    between atoms: O_2  and  C_3
REMARK    3  A    between atoms: C_6  and  C_7
REMARK    4  A    between atoms: C_7  and  C_8
REMARK    5  A    between atoms: C_8  and  N_9
REMARK    6  A    between atoms: N_14  and  C_15
REMARK    7  A    between atoms: C_20  and  C_21
REMARK    8  A    between atoms: C_29  and  O_30
REMARK    9  A    between atoms: O_30  and  C_31
REMARK                            x       y       z     vdW  Elec       q    Type
REMARK                         _______ _______ _______ _____ _____    ______ ____
ROOT
ATOM      1  N   UNL     1       7.162   7.295  18.278  0.00  0.00    +0.000 N 
ATOM      2  C   UNL     1       6.806   6.350  17.316  0.00  0.00    +0.000 A 
ATOM      3  N   UNL     1       7.420   6.301  16.148  0.00  0.00    +0.000 NA
ATOM      4  C   UNL     1       6.968   5.327  15.237  0.00  0.00    +0.000 A 
ATOM      5  N   UNL     1       7.438   5.190  14.002  0.00  0.00    +0.000 NA
ATOM      6  N   UNL     1       6.688   4.175  13.499  0.00  0.00    +0.000 N 
ATOM      7  C   UNL     1       6.855   3.757  12.128  0.00  0.00    +0.000 C 
ATOM      8  C   UNL     1       5.772   3.663  14.383  0.00  0.00    +0.000 A 
ATOM      9  C   UNL     1       5.947   4.415  15.507  0.00  0.00    +0.000 A 
ATOM     10  C   UNL     1       5.305   4.477  16.797  0.00  0.00    +0.000 A 
ATOM     11  N   UNL     1       4.327   3.793  17.324  0.00  0.00    +0.000 NA
ATOM     12  C   UNL     1       4.158   4.438  18.538  0.00  0.00    +0.000 A 
ATOM     13  N   UNL     1       5.003   5.465  18.775  0.00  0.00    +0.000 NA
ATOM     14  N   UNL     1       5.744   5.448  17.640  0.00  0.00    +0.000 N 
ATOM     15  H   UNL     1       6.489   7.393  19.039  0.00  0.00    +0.000 HD
ENDROOT
BRANCH  12  16
ATOM     16  C   UNL     1       3.073   4.004  19.478  0.00  0.00    +0.000 A 
ATOM     17  C   UNL     1       1.760   4.437  19.423  0.00  0.00    +0.000 A 
ATOM     18  C   UNL     1       1.071   3.809  20.489  0.00  0.00    +0.000 A 
ATOM     19  C   UNL     1       2.007   3.040  21.138  0.00  0.00    +0.000 A 
ATOM     20  O   UNL     1       3.218   3.140  20.530  0.00  0.00    +0.000 OA
ENDBRANCH  12  16
BRANCH   1  21
ATOM     21  C   UNL     1       7.873   8.513  17.889  0.00  0.00    +0.000 C 
BRANCH  21  22
ATOM     22  C   UNL     1       9.076   8.803  18.798  0.00  0.00    +0.000 C 
BRANCH  22  26
ATOM     23  C   UNL     1       9.775  13.021  19.538  0.00  0.00    +0.000 A 
ATOM     24  C   UNL     1       9.405  12.161  20.584  0.00  0.00    +0.000 A 
ATOM     25  C   UNL     1       9.153  10.805  20.353  0.00  0.00    +0.000 A 
ATOM     26  C   UNL     1       9.224  10.288  19.059  0.00  0.00    +0.000 A 
ATOM     27  C   UNL     1       9.494  11.171  18.004  0.00  0.00    +0.000 A 
ATOM     28  C   UNL     1       9.761  12.535  18.223  0.00  0.00    +0.000 A 
BRANCH  23  30
ATOM     29  C   UNL     1      11.479  14.536  20.169  0.00  0.00    +0.000 C 
ATOM     30  O   UNL     1      10.120  14.323  19.785  0.00  0.00    +0.000 OA
ENDBRANCH  23  30
BRANCH  28  31
ATOM     31  O   UNL     1      10.006  13.200  17.051  0.00  0.00    +0.000 OA
ATOM     32  C   UNL     1      11.346  13.444  16.655  0.00  0.00    +0.000 C 
ENDBRANCH  28  31
ENDBRANCH  22  26
ENDBRANCH  21  22
ENDBRANCH   1  21
TORSDOF 6
ENDMDL
MODEL 4
REMARK VINA RESULT:      -9.1      1.051      1.141
REMARK  Name = 
REMARK  9 active torsions:
REMARK  status: ('A' for Active; 'I' for Inactive)
REMARK    1  A    between atoms: C_1  and  O_2
REMARK    2  A    between atoms: O_2  and  C_3
REMARK    3  A    between atoms: C_6  and  C_7
REMARK    4  A    between atoms: C_7  and  C_8
REMARK    5  A    between atoms: C_8  and  N_9
REMARK    6  A    between atoms: N_14  and  C_15
REMARK    7  A    between atoms: C_20  and  C_21
REMARK    8  A    between atoms: C_29  and  O_30
REMARK    9  A    between atoms: O_30  and  C_31
REMARK                            x       y       z     vdW  Elec       q    Type
REMARK                         _______ _______ _______ _____ _____    ______ ____
ROOT
ATOM      1  N   UNL     1       7.047   7.241  18.112  0.00  0.00    +0.000 N 
ATOM      2  C   UNL     1       6.708   6.316  17.125  0.00  0.00    +0.000 A 
ATOM      3  N   UNL     1       7.396   6.234  16.002  0.00  0.00    +0.000 NA
ATOM      4  C   UNL     1       6.956   5.283  15.059  0.00  0.00    +0.000 A 
ATOM      5  N   UNL     1       7.502   5.122  13.859  0.00  0.00    +0.000 NA
ATOM      6  N   UNL     1       6.734   4.146  13.303  0.00  0.00    +0.000 N 
ATOM      7  C   UNL     1       6.972   3.719  11.945  0.00  0.00    +0.000 C 
ATOM      8  C   UNL     1       5.735   3.685  14.122  0.00  0.00    +0.000 A 
ATOM      9  C   UNL     1       5.872   4.427  15.257  0.00  0.00    +0.000 A 
ATOM     10  C   UNL     1       5.149   4.524  16.500  0.00  0.00    +0.000 A 
ATOM     11  N   UNL     1       4.102   3.893  16.958  0.00  0.00    +0.000 NA
ATOM     12  C   UNL     1       3.886   4.547  18.160  0.00  0.00    +0.000 A 
ATOM     13  N   UNL     1       4.766   5.529  18.456  0.00  0.00    +0.000 NA
ATOM     14  N   UNL     1       5.580   5.471  17.374  0.00  0.00    +0.000 N 
ATOM     15  H   UNL     1       6.330   7.375  18.826  0.00  0.00    +0.000 HD
ENDROOT
BRANCH  12  16
ATOM     16  C   UNL     1       2.718   4.172  19.022  0.00  0.00    +0.000 A 
ATOM     17  C   UNL     1       2.306   4.872  20.143  0.00  0.00    +0.000 A 
ATOM     18  C   UNL     1       1.190   4.183  20.675  0.00  0.00    +0.000 A 
ATOM     19  C   UNL     1       0.995   3.096  19.856  0.00  0.00    +0.000 A 
ATOM     20  O   UNL     1       1.904   3.086  18.846  0.00  0.00    +0.000 OA
ENDBRANCH  12  16
BRANCH   1  21
ATOM     21  C   UNL     1       7.846   8.420  17.775  0.00  0.00    +0.000 C 
BRANCH  21  22
ATOM     22  C   UNL     1       8.958   8.684  18.801  0.00  0.00    +0.000 C 
BRANCH  22  26
ATOM     23  C   UNL     1       9.662  12.930  19.353  0.00  0.00    +0.000 A 
ATOM     24  C   UNL     1      10.092  12.001  20.314  0.00  0.00    +0.000 A 
ATOM     25  C   UNL     1       9.849  10.632  20.158  0.00  0.00    +0.000 A 
ATOM     26  C   UNL     1       9.130  10.168  19.057  0.00  0.00    +0.000 A 
ATOM     27  C   UNL     1       8.614  11.108  18.155  0.00  0.00    +0.000 A 
ATOM     28  C   UNL     1       8.861  12.486  18.291  0.00  0.00    +0.000 A 
BRANCH  23  30
ATOM     29  C   UNL     1      11.067  14.688  18.624  0.00  0.00    +0.000 C 
ATOM     30  O   UNL     1       9.991  14.255  19.458  0.00  0.00    +0.000 OA
ENDBRANCH  23  30
BRANCH  28  31
ATOM     31  O   UNL     1       8.269  13.212  17.292  0.00  0.00    +0.000 OA
ATOM     32  C   UNL     1       7.180  14.066  17.603  0.00  0.00    +0.000 C 
ENDBRANCH  28  31
ENDBRANCH  22  26
ENDBRANCH  21  22
ENDBRANCH   1  21
TORSDOF 6
ENDMDL
MODEL 5
REMARK VINA RESULT:      -9.0      1.632      1.897
REMARK  Name = 
REMARK  9 active torsions:
REMARK  status: ('A' for Active; 'I' for Inactive)
REMARK    1  A    between atoms: C_1  and  O_2
REMARK    2  A    between atoms: O_2  and  C_3
REMARK    3  A    between atoms: C_6  and  C_7
REMARK    4  A    between atoms: C_7  and  C_8
REMARK    5  A    between atoms: C_8  and  N_9
REMARK    6  A    between atoms: N_14  and  C_15
REMARK    7  A    between atoms: C_20  and  C_21
REMARK    8  A    between atoms: C_29  and  O_30
REMARK    9  A    between atoms: O_30  and  C_31
REMARK                            x       y       z     vdW  Elec       q    Type
REMARK                         _______ _______ _______ _____ _____    ______ ____
ROOT
ATOM      1  N   UNL     1       7.594   7.176  18.081  0.00  0.00    +0.000 N 
ATOM      2  C   UNL     1       7.083   6.244  17.178  0.00  0.00    +0.000 A 
ATOM      3  N   UNL     1       7.590   6.117  15.966  0.00  0.00    +0.000 NA
ATOM      4  C   UNL     1       6.985   5.164  15.124  0.00  0.00    +0.000 A 
ATOM      5  N   UNL     1       7.337   4.962  13.859  0.00  0.00    +0.000 NA
ATOM      6  N   UNL     1       6.466   4.001  13.449  0.00  0.00    +0.000 N 
ATOM      7  C   UNL     1       6.483   3.541  12.082  0.00  0.00    +0.000 C 
ATOM      8  C   UNL     1       5.589   3.589  14.420  0.00  0.00    +0.000 A 
ATOM      9  C   UNL     1       5.919   4.348  15.503  0.00  0.00    +0.000 A 
ATOM     10  C   UNL     1       5.395   4.492  16.839  0.00  0.00    +0.000 A 
ATOM     11  N   UNL     1       4.411   3.905  17.464  0.00  0.00    +0.000 NA
ATOM     12  C   UNL     1       4.399   4.588  18.669  0.00  0.00    +0.000 A 
ATOM     13  N   UNL     1       5.342   5.546  18.806  0.00  0.00    +0.000 NA
ATOM     14  N   UNL     1       5.981   5.442  17.614  0.00  0.00    +0.000 N 
ATOM     15  H   UNL     1       6.998   7.347  18.891  0.00  0.00    +0.000 HD
ENDROOT
BRANCH  12  16
ATOM     16  C   UNL     1       3.365   4.269  19.706  0.00  0.00    +0.000 A 
ATOM     17  C   UNL     1       2.313   5.097  20.057  0.00  0.00    +0.000 A 
ATOM     18  C   UNL     1       1.587   4.438  21.077  0.00  0.00    +0.000 A 
ATOM     19  C   UNL     1       2.245   3.251  21.298  0.00  0.00    +0.000 A 
ATOM     20  O   UNL     1       3.313   3.131  20.467  0.00  0.00    +0.000 OA
ENDBRANCH  12  16
BRANCH   1  21
ATOM     21  C   UNL     1       8.367   8.321  17.599  0.00  0.00    +0.000 C 
BRANCH  21  22
ATOM     22  C   UNL     1       7.905   9.644  18.229  0.00  0.00    +0.000 C 
BRANCH  22  26
ATOM     23  C   UNL     1      11.122  12.293  19.440  0.00  0.00    +0.000 A 
ATOM     24  C   UNL     1      11.060  11.792  18.130  0.00  0.00    +0.000 A 
ATOM     25  C   UNL     1      10.042  10.918  17.736  0.00  0.00    +0.000 A 
ATOM     26  C   UNL     1       9.086  10.491  18.658  0.00  0.00    +0.000 A 
ATOM     27  C   UNL     1       9.212  10.913  19.989  0.00  0.00    +0.000 A 
ATOM     28  C   UNL     1      10.223  11.801  20.397  0.00  0.00    +0.000 A 
BRANCH  23  30
ATOM     29  C   UNL     1      12.331  14.227  18.811  0.00  0.00    +0.000 C 
ATOM     30  O   UNL     1      12.059  13.227  19.794  0.00  0.00    +0.000 OA
ENDBRANCH  23  30
BRANCH  28  31
ATOM     31  O   UNL     1      10.146  12.081  21.736  0.00  0.00    +0.000 OA
ATOM     32  C   UNL     1       9.006  12.757  22.242  0.00  0.00    +0.000 C 
ENDBRANCH  28  31
ENDBRANCH  22  26
ENDBRANCH  21  22
ENDBRANCH   1  21
TORSDOF 6
ENDMDL
MODEL 6
REMARK VINA RESULT:      -8.8      1.125      1.928
REMARK  Name = 
REMARK  9 active torsions:
REMARK  status: ('A' for Active; 'I' for Inactive)
REMARK    1  A    between atoms: C_1  and  O_2
REMARK    2  A    between atoms: O_2  and  C_3
REMARK    3  A    between atoms: C_6  and  C_7
REMARK    4  A    between atoms: C_7  and  C_8
REMARK    5  A    between atoms: C_8  and  N_9
REMARK    6  A    between atoms: N_14  and  C_15
REMARK    7  A    between atoms: C_20  and  C_21
REMARK    8  A    between atoms: C_29  and  O_30
REMARK    9  A    between atoms: O_30  and  C_31
REMARK                            x       y       z     vdW  Elec       q    Type
REMARK                         _______ _______ _______ _____ _____    ______ ____
ROOT
ATOM      1  N   UNL     1       7.064   7.377  18.068  0.00  0.00    +0.000 N 
ATOM      2  C   UNL     1       6.719   6.354  17.185  0.00  0.00    +0.000 A 
ATOM      3  N   UNL     1       7.227   6.302  15.968  0.00  0.00    +0.000 NA
ATOM      4  C   UNL     1       6.793   5.243  15.147  0.00  0.00    +0.000 A 
ATOM      5  N   UNL     1       7.162   5.087  13.880  0.00  0.00    +0.000 NA
ATOM      6  N   UNL     1       6.473   3.980  13.495  0.00  0.00    +0.000 N 
ATOM      7  C   UNL     1       6.557   3.509  12.133  0.00  0.00    +0.000 C 
ATOM      8  C   UNL     1       5.694   3.433  14.483  0.00  0.00    +0.000 A 
ATOM      9  C   UNL     1       5.895   4.255  15.551  0.00  0.00    +0.000 A 
ATOM     10  C   UNL     1       5.368   4.324  16.892  0.00  0.00    +0.000 A 
ATOM     11  N   UNL     1       4.513   3.579  17.538  0.00  0.00    +0.000 NA
ATOM     12  C   UNL     1       4.391   4.268  18.734  0.00  0.00    +0.000 A 
ATOM     13  N   UNL     1       5.149   5.382  18.845  0.00  0.00    +0.000 NA
ATOM     14  N   UNL     1       5.783   5.375  17.646  0.00  0.00    +0.000 N 
ATOM     15  H   UNL     1       6.456   7.451  18.884  0.00  0.00    +0.000 HD
ENDROOT
BRANCH  12  16
ATOM     16  C   UNL     1       3.443   3.785  19.789  0.00  0.00    +0.000 A 
ATOM     17  C   UNL     1       2.441   4.548  20.362  0.00  0.00    +0.000 A 
ATOM     18  C   UNL     1       1.791   3.731  21.318  0.00  0.00    +0.000 A 
ATOM     19  C   UNL     1       2.443   2.521  21.281  0.00  0.00    +0.000 A 
ATOM     20  O   UNL     1       3.435   2.537  20.353  0.00  0.00    +0.000 OA
ENDBRANCH  12  16
BRANCH   1  21
ATOM     21  C   UNL     1       7.614   8.635  17.561  0.00  0.00    +0.000 C 
BRANCH  21  22
ATOM     22  C   UNL     1       8.888   9.059  18.308  0.00  0.00    +0.000 C 
BRANCH  22  26
ATOM     23  C   UNL     1       9.239  13.379  18.506  0.00  0.00    +0.000 A 
ATOM     24  C   UNL     1       8.300  12.774  17.655  0.00  0.00    +0.000 A 
ATOM     25  C   UNL     1       8.195  11.382  17.565  0.00  0.00    +0.000 A 
ATOM     26  C   UNL     1       9.059  10.564  18.293  0.00  0.00    +0.000 A 
ATOM     27  C   UNL     1      10.061  11.172  19.062  0.00  0.00    +0.000 A 
ATOM     28  C   UNL     1      10.171  12.570  19.172  0.00  0.00    +0.000 A 
BRANCH  23  30
ATOM     29  C   UNL     1       8.785  15.217  19.924  0.00  0.00    +0.000 C 
ATOM     30  O   UNL     1       9.269  14.738  18.669  0.00  0.00    +0.000 OA
ENDBRANCH  23  30
BRANCH  28  31
ATOM     31  O   UNL     1      11.213  12.937  19.981  0.00  0.00    +0.000 OA
ATOM     32  C   UNL     1      12.332  12.075  20.110  0.00  0.00    +0.000 C 
ENDBRANCH  28  31
ENDBRANCH  22  26
ENDBRANCH  21  22
ENDBRANCH   1  21
TORSDOF 6
ENDMDL
MODEL 7
REMARK VINA RESULT:      -8.8      1.033      1.878
REMARK  Name = 
REMARK  9 active torsions:
REMARK  status: ('A' for Active; 'I' for Inactive)
REMARK    1  A    between atoms: C_1  and  O_2
REMARK    2  A    between atoms: O_2  and  C_3
REMARK    3  A    between atoms: C_6  and  C_7
REMARK    4  A    between atoms: C_7  and  C_8
REMARK    5  A    between atoms: C_8  and  N_9
REMARK    6  A    between atoms: N_14  and  C_15
REMARK    7  A    between atoms: C_20  and  C_21
REMARK    8  A    between atoms: C_29  and  O_30
REMARK    9  A    between atoms: O_30  and  C_31
REMARK                            x       y       z     vdW  Elec       q    Type
REMARK                         _______ _______ _______ _____ _____    ______ ____
ROOT
ATOM      1  N   UNL     1       7.505   7.008  18.469  0.00  0.00    +0.000 N 
ATOM      2  C   UNL     1       7.056   6.187  17.435  0.00  0.00    +0.000 A 
ATOM      3  N   UNL     1       7.680   6.150  16.273  0.00  0.00    +0.000 NA
ATOM      4  C   UNL     1       7.130   5.307  15.287  0.00  0.00    +0.000 A 
ATOM      5  N   UNL     1       7.603   5.206  14.050  0.00  0.00    +0.000 NA
ATOM      6  N   UNL     1       6.745   4.328  13.465  0.00  0.00    +0.000 N 
ATOM      7  C   UNL     1       6.885   3.995  12.068  0.00  0.00    +0.000 C 
ATOM      8  C   UNL     1       5.758   3.868  14.300  0.00  0.00    +0.000 A 
ATOM      9  C   UNL     1       6.002   4.508  15.479  0.00  0.00    +0.000 A 
ATOM     10  C   UNL     1       5.350   4.553  16.764  0.00  0.00    +0.000 A 
ATOM     11  N   UNL     1       4.287   3.955  17.230  0.00  0.00    +0.000 NA
ATOM     12  C   UNL     1       4.175   4.525  18.487  0.00  0.00    +0.000 A 
ATOM     13  N   UNL     1       5.133   5.422  18.808  0.00  0.00    +0.000 NA
ATOM     14  N   UNL     1       5.887   5.399  17.681  0.00  0.00    +0.000 N 
ATOM     15  H   UNL     1       6.835   7.131  19.229  0.00  0.00    +0.000 HD
ENDROOT
BRANCH  12  16
ATOM     16  C   UNL     1       3.030   4.158  19.382  0.00  0.00    +0.000 A 
ATOM     17  C   UNL     1       1.850   3.571  18.957  0.00  0.00    +0.000 A 
ATOM     18  C   UNL     1       1.032   3.408  20.100  0.00  0.00    +0.000 A 
ATOM     19  C   UNL     1       1.755   3.916  21.154  0.00  0.00    +0.000 A 
ATOM     20  O   UNL     1       2.968   4.361  20.735  0.00  0.00    +0.000 OA
ENDBRANCH  12  16
BRANCH   1  21
ATOM     21  C   UNL     1       8.364   8.157  18.179  0.00  0.00    +0.000 C 
BRANCH  21  22
ATOM     22  C   UNL     1       7.556   9.413  17.816  0.00  0.00    +0.000 C 
BRANCH  22  26
ATOM     23  C   UNL     1      10.042  12.963  18.017  0.00  0.00    +0.000 A 
ATOM     24  C   UNL     1       8.724  13.037  17.541  0.00  0.00    +0.000 A 
ATOM     25  C   UNL     1       7.922  11.895  17.449  0.00  0.00    +0.000 A 
ATOM     26  C   UNL     1       8.438  10.645  17.791  0.00  0.00    +0.000 A 
ATOM     27  C   UNL     1       9.785  10.562  18.168  0.00  0.00    +0.000 A 
ATOM     28  C   UNL     1      10.601  11.703  18.277  0.00  0.00    +0.000 A 
BRANCH  23  30
ATOM     29  C   UNL     1      10.462  14.864  19.362  0.00  0.00    +0.000 C 
ATOM     30  O   UNL     1      10.789  14.096  18.203  0.00  0.00    +0.000 OA
ENDBRANCH  23  30
BRANCH  28  31
ATOM     31  O   UNL     1      11.874  11.385  18.668  0.00  0.00    +0.000 OA
ATOM     32  C   UNL     1      12.332  11.792  19.947  0.00  0.00    +0.000 C 
ENDBRANCH  28  31
ENDBRANCH  22  26
ENDBRANCH  21  22
ENDBRANCH   1  21
TORSDOF 6
ENDMDL
MODEL 8
REMARK VINA RESULT:      -8.0      5.379      8.146
REMARK  Name = 
REMARK  9 active torsions:
REMARK  status: ('A' for Active; 'I' for Inactive)
REMARK    1  A    between atoms: C_1  and  O_2
REMARK    2  A    between atoms: O_2  and  C_3
REMARK    3  A    between atoms: C_6  and  C_7
REMARK    4  A    between atoms: C_7  and  C_8
REMARK    5  A    between atoms: C_8  and  N_9
REMARK    6  A    between atoms: N_14  and  C_15
REMARK    7  A    between atoms: C_20  and  C_21
REMARK    8  A    between atoms: C_29  and  O_30
REMARK    9  A    between atoms: O_30  and  C_31
REMARK                            x       y       z     vdW  Elec       q    Type
REMARK                         _______ _______ _______ _____ _____    ______ ____
ROOT
ATOM      1  N   UNL     1       2.666   8.201  17.671  0.00  0.00    +0.000 N 
ATOM      2  C   UNL     1       2.829   6.906  18.161  0.00  0.00    +0.000 A 
ATOM      3  N   UNL     1       2.218   6.510  19.262  0.00  0.00    +0.000 NA
ATOM      4  C   UNL     1       2.470   5.190  19.685  0.00  0.00    +0.000 A 
ATOM      5  N   UNL     1       1.982   4.664  20.803  0.00  0.00    +0.000 NA
ATOM      6  N   UNL     1       2.519   3.414  20.812  0.00  0.00    +0.000 N 
ATOM      7  C   UNL     1       2.274   2.526  21.922  0.00  0.00    +0.000 C 
ATOM      8  C   UNL     1       3.317   3.139  19.731  0.00  0.00    +0.000 A 
ATOM      9  C   UNL     1       3.292   4.292  19.004  0.00  0.00    +0.000 A 
ATOM     10  C   UNL     1       3.934   4.743  17.793  0.00  0.00    +0.000 A 
ATOM     11  N   UNL     1       4.759   4.159  16.967  0.00  0.00    +0.000 NA
ATOM     12  C   UNL     1       5.050   5.190  16.090  0.00  0.00    +0.000 A 
ATOM     13  N   UNL     1       4.423   6.362  16.337  0.00  0.00    +0.000 NA
ATOM     14  N   UNL     1       3.694   6.030  17.431  0.00  0.00    +0.000 N 
ATOM     15  H   UNL     1       3.344   8.470  16.958  0.00  0.00    +0.000 HD
ENDROOT
BRANCH  12  16
ATOM     16  C   UNL     1       6.028   4.977  14.974  0.00  0.00    +0.000 A 
ATOM     17  C   UNL     1       5.842   4.106  13.915  0.00  0.00    +0.000 A 
ATOM     18  C   UNL     1       6.997   4.189  13.101  0.00  0.00    +0.000 A 
ATOM     19  C   UNL     1       7.826   5.096  13.718  0.00  0.00    +0.000 A 
ATOM     20  O   UNL     1       7.246   5.588  14.844  0.00  0.00    +0.000 OA
ENDBRANCH  12  16
BRANCH   1  21
ATOM     21  C   UNL     1       2.208   9.273  18.557  0.00  0.00    +0.000 C 
BRANCH  21  22
ATOM     22  C   UNL     1       0.782   9.736  18.225  0.00  0.00    +0.000 C 
BRANCH  22  26
ATOM     23  C   UNL     1      -0.906  12.422  21.185  0.00  0.00    +0.000 A 
ATOM     24  C   UNL     1      -0.925  12.755  19.821  0.00  0.00    +0.000 A 
ATOM     25  C   UNL     1      -0.362  11.908  18.861  0.00  0.00    +0.000 A 
ATOM     26  C   UNL     1       0.272  10.728  19.251  0.00  0.00    +0.000 A 
ATOM     27  C   UNL     1       0.378  10.451  20.620  0.00  0.00    +0.000 A 
ATOM     28  C   UNL     1      -0.194  11.287  21.597  0.00  0.00    +0.000 A 
BRANCH  23  30
ATOM     29  C   UNL     1      -0.763  14.248  22.683  0.00  0.00    +0.000 C 
ATOM     30  O   UNL     1      -1.549  13.202  22.110  0.00  0.00    +0.000 OA
ENDBRANCH  23  30
BRANCH  28  31
ATOM     31  O   UNL     1       0.026  10.815  22.864  0.00  0.00    +0.000 OA
ATOM     32  C   UNL     1      -0.008   9.417  23.102  0.00  0.00    +0.000 C 
ENDBRANCH  28  31
ENDBRANCH  22  26
ENDBRANCH  21  22
ENDBRANCH   1  21
TORSDOF 6
ENDMDL
MODEL 9
REMARK VINA RESULT:      -7.9      5.612      8.629
REMARK  Name = 
REMARK  9 active torsions:
REMARK  status: ('A' for Active; 'I' for Inactive)
REMARK    1  A    between atoms: C_1  and  O_2
REMARK    2  A    between atoms: O_2  and  C_3
REMARK    3  A    between atoms: C_6  and  C_7
REMARK    4  A    between atoms: C_7  and  C_8
REMARK    5  A    between atoms: C_8  and  N_9
REMARK    6  A    between atoms: N_14  and  C_15
REMARK    7  A    between atoms: C_20  and  C_21
REMARK    8  A    between atoms: C_29  and  O_30
REMARK    9  A    between atoms: O_30  and  C_31
REMARK                            x       y       z     vdW  Elec       q    Type
REMARK                         _______ _______ _______ _____ _____    ______ ____
ROOT
ATOM      1  N   UNL     1       2.508   7.990  18.018  0.00  0.00    +0.000 N 
ATOM      2  C   UNL     1       2.679   6.671  18.440  0.00  0.00    +0.000 A 
ATOM      3  N   UNL     1       2.074   6.217  19.522  0.00  0.00    +0.000 NA
ATOM      4  C   UNL     1       2.334   4.878  19.875  0.00  0.00    +0.000 A 
ATOM      5  N   UNL     1       1.853   4.292  20.966  0.00  0.00    +0.000 NA
ATOM      6  N   UNL     1       2.395   3.047  20.909  0.00  0.00    +0.000 N 
ATOM      7  C   UNL     1       2.158   2.101  21.973  0.00  0.00    +0.000 C 
ATOM      8  C   UNL     1       3.189   2.831  19.811  0.00  0.00    +0.000 A 
ATOM      9  C   UNL     1       3.157   4.020  19.145  0.00  0.00    +0.000 A 
ATOM     10  C   UNL     1       3.791   4.535  17.957  0.00  0.00    +0.000 A 
ATOM     11  N   UNL     1       4.615   3.999  17.099  0.00  0.00    +0.000 NA
ATOM     12  C   UNL     1       4.899   5.075  16.274  0.00  0.00    +0.000 A 
ATOM     13  N   UNL     1       4.268   6.229  16.584  0.00  0.00    +0.000 NA
ATOM     14  N   UNL     1       3.544   5.839  17.662  0.00  0.00    +0.000 N 
ATOM     15  H   UNL     1       3.182   8.297  17.317  0.00  0.00    +0.000 HD
ENDROOT
BRANCH  12  16
ATOM     16  C   UNL     1       5.873   4.923  15.146  0.00  0.00    +0.000 A 
ATOM     17  C   UNL     1       5.673   4.131  14.028  0.00  0.00    +0.000 A 
ATOM     18  C   UNL     1       6.829   4.252  13.221  0.00  0.00    +0.000 A 
ATOM     19  C   UNL     1       7.672   5.100  13.898  0.00  0.00    +0.000 A 
ATOM     20  O   UNL     1       7.101   5.522  15.056  0.00  0.00    +0.000 OA
ENDBRANCH  12  16
BRANCH   1  21
ATOM     21  C   UNL     1       2.049   9.012  18.960  0.00  0.00    +0.000 C 
BRANCH  21  22
ATOM     22  C   UNL     1       1.663  10.322  18.257  0.00  0.00    +0.000 C 
BRANCH  22  26
ATOM     23  C   UNL     1      -2.519  11.417  18.634  0.00  0.00    +0.000 A 
ATOM     24  C   UNL     1      -1.545  12.012  19.452  0.00  0.00    +0.000 A 
ATOM     25  C   UNL     1      -0.198  11.648  19.357  0.00  0.00    +0.000 A 
ATOM     26  C   UNL     1       0.198  10.649  18.468  0.00  0.00    +0.000 A 
ATOM     27  C   UNL     1      -0.791   9.988  17.727  0.00  0.00    +0.000 A 
ATOM     28  C   UNL     1      -2.148  10.351  17.803  0.00  0.00    +0.000 A 
BRANCH  23  30
ATOM     29  C   UNL     1      -4.212  12.547  19.840  0.00  0.00    +0.000 C 
ATOM     30  O   UNL     1      -3.819  11.849  18.658  0.00  0.00    +0.000 OA
ENDBRANCH  23  30
BRANCH  28  31
ATOM     31  O   UNL     1      -2.929   9.577  16.986  0.00  0.00    +0.000 OA
ATOM     32  C   UNL     1      -3.085   9.939  15.624  0.00  0.00    +0.000 C 
ENDBRANCH  28  31
ENDBRANCH  22  26
ENDBRANCH  21  22
ENDBRANCH   1  21
TORSDOF 6
ENDMDL
