MODEL 1
REMARK VINA RESULT:      -6.6      0.000      0.000
REMARK  Name = 
REMARK  6 active torsions:
REMARK  status: ('A' for Active; 'I' for Inactive)
REMARK    1  A    between atoms: C_1  and  O_2
REMARK    2  A    between atoms: O_2  and  C_3
REMARK    3  A    between atoms: C_3  and  C_5
REMARK    4  A    between atoms: C_5  and  C_6
REMARK    5  A    between atoms: C_5  and  C_13
REMARK    6  A    between atoms: C_9  and  N_10
REMARK                            x       y       z     vdW  Elec       q    Type
REMARK                         _______ _______ _______ _____ _____    ______ ____
ROOT
ATOM      1  C   UNL     1       6.387   4.295  16.260  0.00  0.00    +0.000 C 
ENDROOT
BRANCH   1   2
ATOM      2  C   UNL     1       6.340   4.638  14.732  0.00  0.00    +0.000 C 
ATOM      3  C   UNL     1       5.799   3.502  13.830  0.00  0.00    +0.000 C 
ATOM      4  C   UNL     1       5.873   3.902  12.355  0.00  0.00    +0.000 C 
ATOM      5  C   UNL     1       7.322   4.238  12.006  0.00  0.00    +0.000 C 
ATOM      6  C   UNL     1       7.784   5.402  12.882  0.00  0.00    +0.000 C 
ATOM      7  N   UNL     1       7.698   5.043  14.304  0.00  0.00    +0.000 NA
ATOM      8  H   UNL     1       7.994   5.882  14.859  0.00  0.00    +0.000 HD
ENDBRANCH   1   2
BRANCH   1   9
ATOM      9  C   UNL     1       5.001   4.264  16.907  0.00  0.00    +0.000 A 
ATOM     10  C   UNL     1       4.282   5.442  17.191  0.00  0.00    +0.000 A 
ATOM     11  C   UNL     1       3.028   5.389  17.798  0.00  0.00    +0.000 A 
ATOM     12  C   UNL     1       2.461   4.156  18.136  0.00  0.00    +0.000 A 
ATOM     13  C   UNL     1       3.165   2.976  17.865  0.00  0.00    +0.000 A 
ATOM     14  C   UNL     1       4.424   3.029  17.260  0.00  0.00    +0.000 A 
BRANCH  12  15
ATOM     15  N   UNL     1       1.189   4.105  18.759  0.00  0.00    +0.000 N 
ATOM     16  H   UNL     1       0.802   3.211  19.096  0.00  0.00    +0.000 HD
ATOM     17  H   UNL     1       0.625   4.960  18.874  0.00  0.00    +0.000 HD
ENDBRANCH  12  15
ENDBRANCH   1   9
BRANCH   1  18
ATOM     18  C   UNL     1       7.336   5.156  17.069  0.00  0.00    +0.000 C 
ATOM     19  O   UNL     1       7.855   4.712  18.083  0.00  0.00    +0.000 OA
BRANCH  18  21
ATOM     20  C   UNL     1       7.602   7.527  17.578  0.00  0.00    +0.000 C 
ATOM     21  O   UNL     1       7.527   6.459  16.714  0.00  0.00    +0.000 OA
ENDBRANCH  18  21
ENDBRANCH   1  18
TORSDOF 5
ENDMDL
MODEL 2
REMARK VINA RESULT:      -6.5      0.138      1.148
REMARK  Name = 
REMARK  6 active torsions:
REMARK  status: ('A' for Active; 'I' for Inactive)
REMARK    1  A    between atoms: C_1  and  O_2
REMARK    2  A    between atoms: O_2  and  C_3
REMARK    3  A    between atoms: C_3  and  C_5
REMARK    4  A    between atoms: C_5  and  C_6
REMARK    5  A    between atoms: C_5  and  C_13
REMARK    6  A    between atoms: C_9  and  N_10
REMARK                            x       y       z     vdW  Elec       q    Type
REMARK                         _______ _______ _______ _____ _____    ______ ____
ROOT
ATOM      1  C   UNL     1       6.419   4.312  16.384  0.00  0.00    +0.000 C 
ENDROOT
BRANCH   1   2
ATOM      2  C   UNL     1       6.338   4.629  14.852  0.00  0.00    +0.000 C 
ATOM      3  C   UNL     1       5.786   3.475  13.981  0.00  0.00    +0.000 C 
ATOM      4  C   UNL     1       5.827   3.851  12.497  0.00  0.00    +0.000 C 
ATOM      5  C   UNL     1       7.267   4.189  12.114  0.00  0.00    +0.000 C 
ATOM      6  C   UNL     1       7.739   5.370  12.960  0.00  0.00    +0.000 C 
ATOM      7  N   UNL     1       7.685   5.034  14.389  0.00  0.00    +0.000 NA
ATOM      8  H   UNL     1       7.987   5.885  14.923  0.00  0.00    +0.000 HD
ENDBRANCH   1   2
BRANCH   1   9
ATOM      9  C   UNL     1       5.046   4.275  17.058  0.00  0.00    +0.000 A 
ATOM     10  C   UNL     1       4.423   3.064  17.419  0.00  0.00    +0.000 A 
ATOM     11  C   UNL     1       3.163   3.055  18.016  0.00  0.00    +0.000 A 
ATOM     12  C   UNL     1       2.494   4.257  18.268  0.00  0.00    +0.000 A 
ATOM     13  C   UNL     1       3.098   5.469  17.910  0.00  0.00    +0.000 A 
ATOM     14  C   UNL     1       4.360   5.479  17.308  0.00  0.00    +0.000 A 
BRANCH  12  15
ATOM     15  N   UNL     1       1.211   4.245  18.869  0.00  0.00    +0.000 N 
ATOM     16  H   UNL     1       0.959   3.521  19.559  0.00  0.00    +0.000 HD
ATOM     17  H   UNL     1       0.506   4.953  18.619  0.00  0.00    +0.000 HD
ENDBRANCH  12  15
ENDBRANCH   1   9
BRANCH   1  18
ATOM     18  C   UNL     1       7.372   5.198  17.160  0.00  0.00    +0.000 C 
ATOM     19  O   UNL     1       7.875   4.796  18.199  0.00  0.00    +0.000 OA
BRANCH  18  21
ATOM     20  C   UNL     1       7.618   7.594  17.553  0.00  0.00    +0.000 C 
ATOM     21  O   UNL     1       7.584   6.480  16.745  0.00  0.00    +0.000 OA
ENDBRANCH  18  21
ENDBRANCH   1  18
TORSDOF 5
ENDMDL
MODEL 3
REMARK VINA RESULT:      -6.5      1.420      1.875
REMARK  Name = 
REMARK  6 active torsions:
REMARK  status: ('A' for Active; 'I' for Inactive)
REMARK    1  A    between atoms: C_1  and  O_2
REMARK    2  A    between atoms: O_2  and  C_3
REMARK    3  A    between atoms: C_3  and  C_5
REMARK    4  A    between atoms: C_5  and  C_6
REMARK    5  A    between atoms: C_5  and  C_13
REMARK    6  A    between atoms: C_9  and  N_10
REMARK                            x       y       z     vdW  Elec       q    Type
REMARK                         _______ _______ _______ _____ _____    ______ ____
ROOT
ATOM      1  C   UNL     1       6.548   5.173  17.392  0.00  0.00    +0.000 C 
ENDROOT
BRANCH   1   2
ATOM      2  C   UNL     1       6.298   5.177  15.846  0.00  0.00    +0.000 C 
ATOM      3  C   UNL     1       5.412   4.017  15.330  0.00  0.00    +0.000 C 
ATOM      4  C   UNL     1       5.299   4.063  13.804  0.00  0.00    +0.000 C 
ATOM      5  C   UNL     1       6.701   3.994  13.202  0.00  0.00    +0.000 C 
ATOM      6  C   UNL     1       7.511   5.191  13.696  0.00  0.00    +0.000 C 
ATOM      7  N   UNL     1       7.611   5.177  15.162  0.00  0.00    +0.000 NA
ATOM      8  H   UNL     1       8.146   6.032  15.449  0.00  0.00    +0.000 HD
ENDBRANCH   1   2
BRANCH   1   9
ATOM      9  C   UNL     1       5.253   5.137  18.206  0.00  0.00    +0.000 A 
ATOM     10  C   UNL     1       4.916   4.042  19.027  0.00  0.00    +0.000 A 
ATOM     11  C   UNL     1       3.721   4.024  19.745  0.00  0.00    +0.000 A 
ATOM     12  C   UNL     1       2.832   5.102  19.660  0.00  0.00    +0.000 A 
ATOM     13  C   UNL     1       3.151   6.195  18.845  0.00  0.00    +0.000 A 
ATOM     14  C   UNL     1       4.347   6.211  18.122  0.00  0.00    +0.000 A 
BRANCH  12  15
ATOM     15  N   UNL     1       1.616   5.078  20.387  0.00  0.00    +0.000 N 
ATOM     16  H   UNL     1       1.305   4.221  20.868  0.00  0.00    +0.000 HD
ATOM     17  H   UNL     1       1.017   5.915  20.436  0.00  0.00    +0.000 HD
ENDBRANCH  12  15
ENDBRANCH   1   9
BRANCH   1  18
ATOM     18  C   UNL     1       7.459   6.277  17.886  0.00  0.00    +0.000 C 
ATOM     19  O   UNL     1       8.003   6.184  18.977  0.00  0.00    +0.000 OA
BRANCH  18  21
ATOM     20  C   UNL     1       7.850   8.675  17.650  0.00  0.00    +0.000 C 
ATOM     21  O   UNL     1       7.587   7.419  17.150  0.00  0.00    +0.000 OA
ENDBRANCH  18  21
ENDBRANCH   1  18
TORSDOF 5
ENDMDL
MODEL 4
REMARK VINA RESULT:      -6.5      2.725      6.255
REMARK  Name = 
REMARK  6 active torsions:
REMARK  status: ('A' for Active; 'I' for Inactive)
REMARK    1  A    between atoms: C_1  and  O_2
REMARK    2  A    between atoms: O_2  and  C_3
REMARK    3  A    between atoms: C_3  and  C_5
REMARK    4  A    between atoms: C_5  and  C_6
REMARK    5  A    between atoms: C_5  and  C_13
REMARK    6  A    between atoms: C_9  and  N_10
REMARK                            x       y       z     vdW  Elec       q    Type
REMARK                         _______ _______ _______ _____ _____    ______ ____
ROOT
ATOM      1  C   UNL     1       2.673   5.213  17.942  0.00  0.00    +0.000 C 
ENDROOT
BRANCH   1   2
ATOM      2  C   UNL     1       2.495   3.967  18.874  0.00  0.00    +0.000 C 
ATOM      3  C   UNL     1       1.171   3.940  19.674  0.00  0.00    +0.000 C 
ATOM      4  C   UNL     1       1.132   2.732  20.614  0.00  0.00    +0.000 C 
ATOM      5  C   UNL     1       2.339   2.795  21.549  0.00  0.00    +0.000 C 
ATOM      6  C   UNL     1       3.616   2.758  20.712  0.00  0.00    +0.000 C 
ATOM      7  N   UNL     1       3.659   3.899  19.786  0.00  0.00    +0.000 NA
ATOM      8  H   UNL     1       4.535   3.809  19.217  0.00  0.00    +0.000 HD
ENDBRANCH   1   2
BRANCH   1   9
ATOM      9  C   UNL     1       3.986   5.189  17.157  0.00  0.00    +0.000 A 
ATOM     10  C   UNL     1       4.424   4.041  16.468  0.00  0.00    +0.000 A 
ATOM     11  C   UNL     1       5.634   4.037  15.775  0.00  0.00    +0.000 A 
ATOM     12  C   UNL     1       6.436   5.184  15.753  0.00  0.00    +0.000 A 
ATOM     13  C   UNL     1       6.016   6.331  16.437  0.00  0.00    +0.000 A 
ATOM     14  C   UNL     1       4.805   6.333  17.135  0.00  0.00    +0.000 A 
BRANCH  12  15
ATOM     15  N   UNL     1       7.668   5.176  15.053  0.00  0.00    +0.000 N 
ATOM     16  H   UNL     1       7.767   4.658  14.166  0.00  0.00    +0.000 HD
ATOM     17  H   UNL     1       8.487   5.678  15.424  0.00  0.00    +0.000 HD
ENDBRANCH  12  15
ENDBRANCH   1   9
BRANCH   1  18
ATOM     18  C   UNL     1       2.487   6.548  18.633  0.00  0.00    +0.000 C 
ATOM     19  O   UNL     1       2.814   6.685  19.803  0.00  0.00    +0.000 OA
BRANCH  18  21
ATOM     20  C   UNL     1       2.216   8.893  18.016  0.00  0.00    +0.000 C 
ATOM     21  O   UNL     1       1.862   7.564  17.972  0.00  0.00    +0.000 OA
ENDBRANCH  18  21
ENDBRANCH   1  18
TORSDOF 5
ENDMDL
MODEL 5
REMARK VINA RESULT:      -6.5      2.723      6.163
REMARK  Name = 
REMARK  6 active torsions:
REMARK  status: ('A' for Active; 'I' for Inactive)
REMARK    1  A    between atoms: C_1  and  O_2
REMARK    2  A    between atoms: O_2  and  C_3
REMARK    3  A    between atoms: C_3  and  C_5
REMARK    4  A    between atoms: C_5  and  C_6
REMARK    5  A    between atoms: C_5  and  C_13
REMARK    6  A    between atoms: C_9  and  N_10
REMARK                            x       y       z     vdW  Elec       q    Type
REMARK                         _______ _______ _______ _____ _____    ______ ____
ROOT
ATOM      1  C   UNL     1       2.707   5.234  17.932  0.00  0.00    +0.000 C 
ENDROOT
BRANCH   1   2
ATOM      2  C   UNL     1       2.517   3.979  18.850  0.00  0.00    +0.000 C 
ATOM      3  C   UNL     1       1.167   3.926  19.604  0.00  0.00    +0.000 C 
ATOM      4  C   UNL     1       1.115   2.712  20.535  0.00  0.00    +0.000 C 
ATOM      5  C   UNL     1       2.288   2.788  21.511  0.00  0.00    +0.000 C 
ATOM      6  C   UNL     1       3.593   2.776  20.718  0.00  0.00    +0.000 C 
ATOM      7  N   UNL     1       3.650   3.924  19.801  0.00  0.00    +0.000 NA
ATOM      8  H   UNL     1       4.546   3.850  19.261  0.00  0.00    +0.000 HD
ENDBRANCH   1   2
BRANCH   1   9
ATOM      9  C   UNL     1       4.038   5.226  17.178  0.00  0.00    +0.000 A 
ATOM     10  C   UNL     1       4.885   6.352  17.146  0.00  0.00    +0.000 A 
ATOM     11  C   UNL     1       6.085   6.327  16.437  0.00  0.00    +0.000 A 
ATOM     12  C   UNL     1       6.470   5.175  15.743  0.00  0.00    +0.000 A 
ATOM     13  C   UNL     1       5.637   4.049  15.763  0.00  0.00    +0.000 A 
ATOM     14  C   UNL     1       4.431   4.075  16.470  0.00  0.00    +0.000 A 
BRANCH  12  15
ATOM     15  N   UNL     1       7.688   5.154  15.019  0.00  0.00    +0.000 N 
ATOM     16  H   UNL     1       8.069   6.018  14.604  0.00  0.00    +0.000 HD
ATOM     17  H   UNL     1       8.207   4.274  14.887  0.00  0.00    +0.000 HD
ENDBRANCH  12  15
ENDBRANCH   1   9
BRANCH   1  18
ATOM     18  C   UNL     1       2.494   6.562  18.629  0.00  0.00    +0.000 C 
ATOM     19  O   UNL     1       2.772   6.686  19.813  0.00  0.00    +0.000 OA
BRANCH  18  21
ATOM     20  C   UNL     1       2.054   8.927  18.220  0.00  0.00    +0.000 C 
ATOM     21  O   UNL     1       1.898   7.586  17.952  0.00  0.00    +0.000 OA
ENDBRANCH  18  21
ENDBRANCH   1  18
TORSDOF 5
ENDMDL
MODEL 6
REMARK VINA RESULT:      -6.4      2.547      6.230
REMARK  Name = 
REMARK  6 active torsions:
REMARK  status: ('A' for Active; 'I' for Inactive)
REMARK    1  A    between atoms: C_1  and  O_2
REMARK    2  A    between atoms: O_2  and  C_3
REMARK    3  A    between atoms: C_3  and  C_5
REMARK    4  A    between atoms: C_5  and  C_6
REMARK    5  A    between atoms: C_5  and  C_13
REMARK    6  A    between atoms: C_9  and  N_10
REMARK                            x       y       z     vdW  Elec       q    Type
REMARK                         _______ _______ _______ _____ _____    ______ ____
ROOT
ATOM      1  C   UNL     1       4.272   5.179  19.093  0.00  0.00    +0.000 C 
ENDROOT
BRANCH   1   2
ATOM      2  C   UNL     1       3.015   6.107  18.989  0.00  0.00    +0.000 C 
ATOM      3  C   UNL     1       3.173   7.305  18.021  0.00  0.00    +0.000 C 
ATOM      4  C   UNL     1       1.928   8.195  18.055  0.00  0.00    +0.000 C 
ATOM      5  C   UNL     1       1.701   8.672  19.488  0.00  0.00    +0.000 C 
ATOM      6  C   UNL     1       1.491   7.455  20.387  0.00  0.00    +0.000 C 
ATOM      7  N   UNL     1       2.669   6.577  20.349  0.00  0.00    +0.000 NA
ATOM      8  H   UNL     1       2.461   5.746  20.954  0.00  0.00    +0.000 HD
ENDBRANCH   1   2
BRANCH   1   9
ATOM      9  C   UNL     1       5.132   5.194  17.827  0.00  0.00    +0.000 A 
ATOM     10  C   UNL     1       4.732   4.542  16.644  0.00  0.00    +0.000 A 
ATOM     11  C   UNL     1       5.541   4.555  15.509  0.00  0.00    +0.000 A 
ATOM     12  C   UNL     1       6.771   5.222  15.528  0.00  0.00    +0.000 A 
ATOM     13  C   UNL     1       7.184   5.871  16.698  0.00  0.00    +0.000 A 
ATOM     14  C   UNL     1       6.375   5.855  17.837  0.00  0.00    +0.000 A 
BRANCH  12  15
ATOM     15  N   UNL     1       7.594   5.228  14.374  0.00  0.00    +0.000 N 
ATOM     16  H   UNL     1       7.762   4.362  13.841  0.00  0.00    +0.000 HD
ATOM     17  H   UNL     1       8.047   6.097  14.056  0.00  0.00    +0.000 HD
ENDBRANCH  12  15
ENDBRANCH   1   9
BRANCH   1  18
ATOM     18  C   UNL     1       3.971   3.756  19.516  0.00  0.00    +0.000 C 
ATOM     19  O   UNL     1       4.883   2.971  19.728  0.00  0.00    +0.000 OA
BRANCH  18  21
ATOM     20  C   UNL     1       2.199   2.139  19.063  0.00  0.00    +0.000 C 
ATOM     21  O   UNL     1       2.675   3.331  19.562  0.00  0.00    +0.000 OA
ENDBRANCH  18  21
ENDBRANCH   1  18
TORSDOF 5
ENDMDL
MODEL 7
REMARK VINA RESULT:      -6.4      2.525      6.181
REMARK  Name = 
REMARK  6 active torsions:
REMARK  status: ('A' for Active; 'I' for Inactive)
REMARK    1  A    between atoms: C_1  and  O_2
REMARK    2  A    between atoms: O_2  and  C_3
REMARK    3  A    between atoms: C_3  and  C_5
REMARK    4  A    between atoms: C_5  and  C_6
REMARK    5  A    between atoms: C_5  and  C_13
REMARK    6  A    between atoms: C_9  and  N_10
REMARK                            x       y       z     vdW  Elec       q    Type
REMARK                         _______ _______ _______ _____ _____    ______ ____
ROOT
ATOM      1  C   UNL     1       4.290   5.052  19.167  0.00  0.00    +0.000 C 
ENDROOT
BRANCH   1   2
ATOM      2  C   UNL     1       3.035   5.984  19.062  0.00  0.00    +0.000 C 
ATOM      3  C   UNL     1       3.225   7.227  18.159  0.00  0.00    +0.000 C 
ATOM      4  C   UNL     1       1.977   8.113  18.191  0.00  0.00    +0.000 C 
ATOM      5  C   UNL     1       1.698   8.521  19.636  0.00  0.00    +0.000 C 
ATOM      6  C   UNL     1       1.460   7.263  20.468  0.00  0.00    +0.000 C 
ATOM      7  N   UNL     1       2.640   6.388  20.430  0.00  0.00    +0.000 NA
ATOM      8  H   UNL     1       2.413   5.530  20.988  0.00  0.00    +0.000 HD
ENDBRANCH   1   2
BRANCH   1   9
ATOM      9  C   UNL     1       5.177   5.104  17.921  0.00  0.00    +0.000 A 
ATOM     10  C   UNL     1       6.403   5.798  17.906  0.00  0.00    +0.000 A 
ATOM     11  C   UNL     1       7.186   5.847  16.753  0.00  0.00    +0.000 A 
ATOM     12  C   UNL     1       6.761   5.202  15.586  0.00  0.00    +0.000 A 
ATOM     13  C   UNL     1       5.542   4.512  15.584  0.00  0.00    +0.000 A 
ATOM     14  C   UNL     1       4.756   4.467  16.739  0.00  0.00    +0.000 A 
BRANCH  12  15
ATOM     15  N   UNL     1       7.556   5.258  14.414  0.00  0.00    +0.000 N 
ATOM     16  H   UNL     1       8.574   5.098  14.458  0.00  0.00    +0.000 HD
ATOM     17  H   UNL     1       7.131   5.470  13.499  0.00  0.00    +0.000 HD
ENDBRANCH  12  15
ENDBRANCH   1   9
BRANCH   1  18
ATOM     18  C   UNL     1       3.979   3.618  19.542  0.00  0.00    +0.000 C 
ATOM     19  O   UNL     1       4.887   2.836  19.786  0.00  0.00    +0.000 OA
BRANCH  18  21
ATOM     20  C   UNL     1       2.144   2.346  18.558  0.00  0.00    +0.000 C 
ATOM     21  O   UNL     1       2.687   3.181  19.507  0.00  0.00    +0.000 OA
ENDBRANCH  18  21
ENDBRANCH   1  18
TORSDOF 5
ENDMDL
MODEL 8
REMARK VINA RESULT:      -6.4      2.121      5.428
REMARK  Name = 
REMARK  6 active torsions:
REMARK  status: ('A' for Active; 'I' for Inactive)
REMARK    1  A    between atoms: C_1  and  O_2
REMARK    2  A    between atoms: O_2  and  C_3
REMARK    3  A    between atoms: C_3  and  C_5
REMARK    4  A    between atoms: C_5  and  C_6
REMARK    5  A    between atoms: C_5  and  C_13
REMARK    6  A    between atoms: C_9  and  N_10
REMARK                            x       y       z     vdW  Elec       q    Type
REMARK                         _______ _______ _______ _____ _____    ______ ____
ROOT
ATOM      1  C   UNL     1       5.438   5.695  18.032  0.00  0.00    +0.000 C 
ENDROOT
BRANCH   1   2
ATOM      2  C   UNL     1       3.946   6.135  18.215  0.00  0.00    +0.000 C 
ATOM      3  C   UNL     1       3.616   7.548  17.675  0.00  0.00    +0.000 C 
ATOM      4  C   UNL     1       2.161   7.915  17.977  0.00  0.00    +0.000 C 
ATOM      5  C   UNL     1       1.935   7.836  19.486  0.00  0.00    +0.000 C 
ATOM      6  C   UNL     1       2.216   6.410  19.954  0.00  0.00    +0.000 C 
ATOM      7  N   UNL     1       3.603   6.031  19.651  0.00  0.00    +0.000 NA
ATOM      8  H   UNL     1       3.733   5.038  19.962  0.00  0.00    +0.000 HD
ENDBRANCH   1   2
BRANCH   1   9
ATOM      9  C   UNL     1       5.718   5.096  16.652  0.00  0.00    +0.000 A 
ATOM     10  C   UNL     1       6.934   5.315  15.975  0.00  0.00    +0.000 A 
ATOM     11  C   UNL     1       7.159   4.774  14.710  0.00  0.00    +0.000 A 
ATOM     12  C   UNL     1       6.173   3.999  14.090  0.00  0.00    +0.000 A 
ATOM     13  C   UNL     1       4.957   3.777  14.748  0.00  0.00    +0.000 A 
ATOM     14  C   UNL     1       4.730   4.322  16.015  0.00  0.00    +0.000 A 
BRANCH  12  15
ATOM     15  N   UNL     1       6.402   3.455  12.801  0.00  0.00    +0.000 N 
ATOM     16  H   UNL     1       7.073   2.684  12.666  0.00  0.00    +0.000 HD
ATOM     17  H   UNL     1       5.910   3.829  11.977  0.00  0.00    +0.000 HD
ENDBRANCH  12  15
ENDBRANCH   1   9
BRANCH   1  18
ATOM     18  C   UNL     1       5.966   4.789  19.125  0.00  0.00    +0.000 C 
ATOM     19  O   UNL     1       5.429   3.713  19.344  0.00  0.00    +0.000 OA
BRANCH  18  21
ATOM     20  C   UNL     1       8.110   5.889  19.508  0.00  0.00    +0.000 C 
ATOM     21  O   UNL     1       6.979   5.227  19.927  0.00  0.00    +0.000 OA
ENDBRANCH  18  21
ENDBRANCH   1  18
TORSDOF 5
ENDMDL
MODEL 9
REMARK VINA RESULT:      -6.4      1.625      1.778
REMARK  Name = 
REMARK  6 active torsions:
REMARK  status: ('A' for Active; 'I' for Inactive)
REMARK    1  A    between atoms: C_1  and  O_2
REMARK    2  A    between atoms: O_2  and  C_3
REMARK    3  A    between atoms: C_3  and  C_5
REMARK    4  A    between atoms: C_5  and  C_6
REMARK    5  A    between atoms: C_5  and  C_13
REMARK    6  A    between atoms: C_9  and  N_10
REMARK                            x       y       z     vdW  Elec       q    Type
REMARK                         _______ _______ _______ _____ _____    ______ ____
ROOT
ATOM      1  C   UNL     1       6.438   5.428  17.384  0.00  0.00    +0.000 C 
ENDROOT
BRANCH   1   2
ATOM      2  C   UNL     1       6.237   5.343  15.833  0.00  0.00    +0.000 C 
ATOM      3  C   UNL     1       5.344   4.171  15.359  0.00  0.00    +0.000 C 
ATOM      4  C   UNL     1       5.280   4.125  13.830  0.00  0.00    +0.000 C 
ATOM      5  C   UNL     1       6.700   3.993  13.280  0.00  0.00    +0.000 C 
ATOM      6  C   UNL     1       7.518   5.203  13.728  0.00  0.00    +0.000 C 
ATOM      7  N   UNL     1       7.571   5.276  15.194  0.00  0.00    +0.000 NA
ATOM      8  H   UNL     1       8.114   6.137  15.447  0.00  0.00    +0.000 HD
ENDBRANCH   1   2
BRANCH   1   9
ATOM      9  C   UNL     1       5.123   5.600  18.147  0.00  0.00    +0.000 A 
ATOM     10  C   UNL     1       4.196   6.610  17.821  0.00  0.00    +0.000 A 
ATOM     11  C   UNL     1       3.012   6.759  18.542  0.00  0.00    +0.000 A 
ATOM     12  C   UNL     1       2.726   5.900  19.610  0.00  0.00    +0.000 A 
ATOM     13  C   UNL     1       3.640   4.895  19.950  0.00  0.00    +0.000 A 
ATOM     14  C   UNL     1       4.828   4.748  19.228  0.00  0.00    +0.000 A 
BRANCH  12  15
ATOM     15  N   UNL     1       1.525   6.058  20.346  0.00  0.00    +0.000 N 
ATOM     16  H   UNL     1       1.024   6.959  20.351  0.00  0.00    +0.000 HD
ATOM     17  H   UNL     1       1.139   5.276  20.895  0.00  0.00    +0.000 HD
ENDBRANCH  12  15
ENDBRANCH   1   9
BRANCH   1  18
ATOM     18  C   UNL     1       7.455   6.457  17.832  0.00  0.00    +0.000 C 
ATOM     19  O   UNL     1       8.085   6.290  18.866  0.00  0.00    +0.000 OA
BRANCH  18  21
ATOM     20  C   UNL     1       7.904   8.850  17.655  0.00  0.00    +0.000 C 
ATOM     21  O   UNL     1       7.588   7.618  17.127  0.00  0.00    +0.000 OA
ENDBRANCH  18  21
ENDBRANCH   1  18
TORSDOF 5
ENDMDL
