MODEL 1
REMARK VINA RESULT:      -8.7      0.000      0.000
REMARK  Name = 
REMARK  6 active torsions:
REMARK  status: ('A' for Active; 'I' for Inactive)
REMARK    1  A    between atoms: C_1  and  C_2
REMARK    2  A    between atoms: C_5  and  C_6
REMARK    3  A    between atoms: C_6  and  O_7
REMARK    4  A    between atoms: C_6  and  C_8
REMARK    5  A    between atoms: N_12  and  C_13
REMARK    6  A    between atoms: C_19  and  N_20
REMARK                            x       y       z     vdW  Elec       q    Type
REMARK                         _______ _______ _______ _____ _____    ______ ____
ROOT
ATOM      1  C   UNL     1       2.233   7.050  19.502  0.00  0.00    +0.000 A 
ATOM      2  N   UNL     1       2.892   7.222  18.334  0.00  0.00    +0.000 NA
ATOM      3  C   UNL     1       2.678   8.349  17.645  0.00  0.00    +0.000 A 
ATOM      4  N   UNL     1       1.911   9.365  18.026  0.00  0.00    +0.000 NA
ATOM      5  C   UNL     1       1.342   9.249  19.227  0.00  0.00    +0.000 A 
ATOM      6  C   UNL     1       0.622  10.348  19.683  0.00  0.00    +0.000 A 
ATOM      7  C   UNL     1       0.081  10.426  20.972  0.00  0.00    +0.000 A 
ATOM      8  C   UNL     1       0.221   9.303  21.780  0.00  0.00    +0.000 A 
ATOM      9  C   UNL     1       0.902   8.171  21.333  0.00  0.00    +0.000 A 
ATOM     10  C   UNL     1       1.476   8.112  20.040  0.00  0.00    +0.000 A 
ENDROOT
BRANCH   1  15
ATOM     11  C   UNL     1       3.679   3.947  19.143  0.00  0.00    +0.000 C 
ATOM     12  C   UNL     1       2.727   2.933  19.781  0.00  0.00    +0.000 C 
ATOM     13  C   UNL     1       1.364   3.493  20.182  0.00  0.00    +0.000 C 
ATOM     14  C   UNL     1       1.287   4.973  20.580  0.00  0.00    +0.000 C 
ATOM     15  N   UNL     1       2.387   5.803  20.097  0.00  0.00    +0.000 N 
ATOM     16  C   UNL     1       3.706   5.192  20.028  0.00  0.00    +0.000 C 
BRANCH  11  17
ATOM     17  C   UNL     1       3.552   4.177  17.615  0.00  0.00    +0.000 C 
BRANCH  17  22
ATOM     18  C   UNL     1       6.401   3.979  13.521  0.00  0.00    +0.000 C 
ATOM     19  C   UNL     1       6.138   4.175  14.970  0.00  0.00    +0.000 A 
ATOM     20  C   UNL     1       7.078   4.452  15.941  0.00  0.00    +0.000 A 
ATOM     21  S   UNL     1       6.293   4.831  17.414  0.00  0.00    +0.000 S 
ATOM     22  C   UNL     1       4.800   4.267  16.754  0.00  0.00    +0.000 A 
ATOM     23  N   UNL     1       4.838   4.096  15.444  0.00  0.00    +0.000 NA
ENDBRANCH  17  22
BRANCH  17  24
ATOM     24  O   UNL     1       2.729   3.129  17.073  0.00  0.00    +0.000 OA
ATOM     25  H   UNL     1       2.125   3.598  16.453  0.00  0.00    +0.000 HD
ENDBRANCH  17  24
ENDBRANCH  11  17
ENDBRANCH   1  15
BRANCH   7  26
ATOM     26  N   UNL     1      -0.484  11.595  21.429  0.00  0.00    +0.000 N 
ATOM     27  C   UNL     1      -0.879  11.777  22.832  0.00  0.00    +0.000 C 
ATOM     28  C   UNL     1      -2.403  11.894  22.938  0.00  0.00    +0.000 C 
ATOM     29  O   UNL     1      -2.905  12.945  22.095  0.00  0.00    +0.000 OA
ATOM     30  C   UNL     1      -2.566  12.691  20.718  0.00  0.00    +0.000 C 
ATOM     31  C   UNL     1      -1.044  12.593  20.507  0.00  0.00    +0.000 C 
ENDBRANCH   7  26
TORSDOF 5
ENDMDL
MODEL 2
REMARK VINA RESULT:      -8.4      1.096      1.405
REMARK  Name = 
REMARK  6 active torsions:
REMARK  status: ('A' for Active; 'I' for Inactive)
REMARK    1  A    between atoms: C_1  and  C_2
REMARK    2  A    between atoms: C_5  and  C_6
REMARK    3  A    between atoms: C_6  and  O_7
REMARK    4  A    between atoms: C_6  and  C_8
REMARK    5  A    between atoms: N_12  and  C_13
REMARK    6  A    between atoms: C_19  and  N_20
REMARK                            x       y       z     vdW  Elec       q    Type
REMARK                         _______ _______ _______ _____ _____    ______ ____
ROOT
ATOM      1  C   UNL     1       2.022   6.947  19.631  0.00  0.00    +0.000 A 
ATOM      2  N   UNL     1       2.604   7.120  18.424  0.00  0.00    +0.000 NA
ATOM      3  C   UNL     1       2.434   8.291  17.798  0.00  0.00    +0.000 A 
ATOM      4  N   UNL     1       1.783   9.346  18.277  0.00  0.00    +0.000 NA
ATOM      5  C   UNL     1       1.298   9.220  19.514  0.00  0.00    +0.000 A 
ATOM      6  C   UNL     1       0.707  10.351  20.067  0.00  0.00    +0.000 A 
ATOM      7  C   UNL     1       0.271  10.414  21.396  0.00  0.00    +0.000 A 
ATOM      8  C   UNL     1       0.377   9.247  22.146  0.00  0.00    +0.000 A 
ATOM      9  C   UNL     1       0.928   8.086  21.603  0.00  0.00    +0.000 A 
ATOM     10  C   UNL     1       1.397   8.041  20.268  0.00  0.00    +0.000 A 
ENDROOT
BRANCH   1  15
ATOM     11  C   UNL     1       3.599   3.904  19.313  0.00  0.00    +0.000 C 
ATOM     12  C   UNL     1       2.588   2.831  19.723  0.00  0.00    +0.000 C 
ATOM     13  C   UNL     1       1.162   3.337  19.935  0.00  0.00    +0.000 C 
ATOM     14  C   UNL     1       0.979   4.784  20.409  0.00  0.00    +0.000 C 
ATOM     15  N   UNL     1       2.117   5.667  20.163  0.00  0.00    +0.000 N 
ATOM     16  C   UNL     1       3.447   5.087  20.267  0.00  0.00    +0.000 C 
BRANCH  11  17
ATOM     17  C   UNL     1       3.708   4.234  17.802  0.00  0.00    +0.000 C 
BRANCH  17  22
ATOM     18  C   UNL     1       7.650   7.272  17.415  0.00  0.00    +0.000 C 
ATOM     19  C   UNL     1       6.767   6.153  16.997  0.00  0.00    +0.000 A 
ATOM     20  C   UNL     1       6.917   5.370  15.871  0.00  0.00    +0.000 A 
ATOM     21  S   UNL     1       5.814   4.063  15.925  0.00  0.00    +0.000 S 
ATOM     22  C   UNL     1       4.996   4.818  17.244  0.00  0.00    +0.000 A 
ATOM     23  N   UNL     1       5.679   5.812  17.786  0.00  0.00    +0.000 NA
ENDBRANCH  17  22
BRANCH  17  24
ATOM     24  O   UNL     1       3.422   3.036  17.061  0.00  0.00    +0.000 OA
ATOM     25  H   UNL     1       3.834   3.196  16.181  0.00  0.00    +0.000 HD
ENDBRANCH  17  24
ENDBRANCH  11  17
ENDBRANCH   1  15
BRANCH   7  26
ATOM     26  N   UNL     1      -0.159  11.601  21.942  0.00  0.00    +0.000 N 
ATOM     27  C   UNL     1      -1.236  11.659  22.940  0.00  0.00    +0.000 C 
ATOM     28  C   UNL     1      -2.461  12.366  22.351  0.00  0.00    +0.000 C 
ATOM     29  O   UNL     1      -2.120  13.669  21.848  0.00  0.00    +0.000 OA
ATOM     30  C   UNL     1      -1.120  13.564  20.817  0.00  0.00    +0.000 C 
ATOM     31  C   UNL     1       0.170  12.896  21.328  0.00  0.00    +0.000 C 
ENDBRANCH   7  26
TORSDOF 5
ENDMDL
MODEL 3
REMARK VINA RESULT:      -8.4      0.881      1.242
REMARK  Name = 
REMARK  6 active torsions:
REMARK  status: ('A' for Active; 'I' for Inactive)
REMARK    1  A    between atoms: C_1  and  C_2
REMARK    2  A    between atoms: C_5  and  C_6
REMARK    3  A    between atoms: C_6  and  O_7
REMARK    4  A    between atoms: C_6  and  C_8
REMARK    5  A    between atoms: N_12  and  C_13
REMARK    6  A    between atoms: C_19  and  N_20
REMARK                            x       y       z     vdW  Elec       q    Type
REMARK                         _______ _______ _______ _____ _____    ______ ____
ROOT
ATOM      1  C   UNL     1       2.367   6.886  19.382  0.00  0.00    +0.000 A 
ATOM      2  N   UNL     1       3.106   6.907  18.251  0.00  0.00    +0.000 NA
ATOM      3  C   UNL     1       2.978   7.956  17.428  0.00  0.00    +0.000 A 
ATOM      4  N   UNL     1       2.223   9.028  17.641  0.00  0.00    +0.000 NA
ATOM      5  C   UNL     1       1.574   9.064  18.806  0.00  0.00    +0.000 A 
ATOM      6  C   UNL     1       0.864  10.227  19.087  0.00  0.00    +0.000 A 
ATOM      7  C   UNL     1       0.243  10.464  20.319  0.00  0.00    +0.000 A 
ATOM      8  C   UNL     1       0.290   9.436  21.253  0.00  0.00    +0.000 A 
ATOM      9  C   UNL     1       0.960   8.243  20.982  0.00  0.00    +0.000 A 
ATOM     10  C   UNL     1       1.614   8.023  19.746  0.00  0.00    +0.000 A 
ENDROOT
BRANCH   1  15
ATOM     11  C   UNL     1       3.651   3.692  19.426  0.00  0.00    +0.000 C 
ATOM     12  C   UNL     1       2.629   2.809  20.144  0.00  0.00    +0.000 C 
ATOM     13  C   UNL     1       1.289   3.480  20.436  0.00  0.00    +0.000 C 
ATOM     14  C   UNL     1       1.282   4.998  20.659  0.00  0.00    +0.000 C 
ATOM     15  N   UNL     1       2.438   5.711  20.120  0.00  0.00    +0.000 N 
ATOM     16  C   UNL     1       3.722   5.029  20.163  0.00  0.00    +0.000 C 
BRANCH  11  17
ATOM     17  C   UNL     1       3.575   3.750  17.878  0.00  0.00    +0.000 C 
BRANCH  17  22
ATOM     18  C   UNL     1       6.505   4.236  13.866  0.00  0.00    +0.000 C 
ATOM     19  C   UNL     1       6.202   4.243  15.320  0.00  0.00    +0.000 A 
ATOM     20  C   UNL     1       7.101   4.473  16.341  0.00  0.00    +0.000 A 
ATOM     21  S   UNL     1       6.264   4.621  17.827  0.00  0.00    +0.000 S 
ATOM     22  C   UNL     1       4.829   4.030  17.067  0.00  0.00    +0.000 A 
ATOM     23  N   UNL     1       4.903   4.015  15.747  0.00  0.00    +0.000 NA
ENDBRANCH  17  22
BRANCH  17  24
ATOM     24  O   UNL     1       3.029   2.505  17.411  0.00  0.00    +0.000 OA
ATOM     25  H   UNL     1       2.387   2.249  18.113  0.00  0.00    +0.000 HD
ENDBRANCH  17  24
ENDBRANCH  11  17
ENDBRANCH   1  15
BRANCH   7  26
ATOM     26  N   UNL     1      -0.309  11.692  20.604  0.00  0.00    +0.000 N 
ATOM     27  C   UNL     1       0.373  12.952  20.278  0.00  0.00    +0.000 C 
ATOM     28  C   UNL     1       0.771  13.683  21.564  0.00  0.00    +0.000 C 
ATOM     29  O   UNL     1      -0.367  13.891  22.419  0.00  0.00    +0.000 OA
ATOM     30  C   UNL     1      -0.959  12.629  22.782  0.00  0.00    +0.000 C 
ATOM     31  C   UNL     1      -1.427  11.834  21.548  0.00  0.00    +0.000 C 
ENDBRANCH   7  26
TORSDOF 5
ENDMDL
MODEL 4
REMARK VINA RESULT:      -8.3      1.446      1.818
REMARK  Name = 
REMARK  6 active torsions:
REMARK  status: ('A' for Active; 'I' for Inactive)
REMARK    1  A    between atoms: C_1  and  C_2
REMARK    2  A    between atoms: C_5  and  C_6
REMARK    3  A    between atoms: C_6  and  O_7
REMARK    4  A    between atoms: C_6  and  C_8
REMARK    5  A    between atoms: N_12  and  C_13
REMARK    6  A    between atoms: C_19  and  N_20
REMARK                            x       y       z     vdW  Elec       q    Type
REMARK                         _______ _______ _______ _____ _____    ______ ____
ROOT
ATOM      1  C   UNL     1       2.240   6.361  19.517  0.00  0.00    +0.000 A 
ATOM      2  N   UNL     1       3.001   6.351  18.400  0.00  0.00    +0.000 NA
ATOM      3  C   UNL     1       3.064   7.469  17.664  0.00  0.00    +0.000 A 
ATOM      4  N   UNL     1       2.487   8.630  17.956  0.00  0.00    +0.000 NA
ATOM      5  C   UNL     1       1.823   8.678  19.113  0.00  0.00    +0.000 A 
ATOM      6  C   UNL     1       1.304   9.915  19.481  0.00  0.00    +0.000 A 
ATOM      7  C   UNL     1       0.700  10.152  20.721  0.00  0.00    +0.000 A 
ATOM      8  C   UNL     1       0.557   9.058  21.568  0.00  0.00    +0.000 A 
ATOM      9  C   UNL     1       1.032   7.797  21.207  0.00  0.00    +0.000 A 
ATOM     10  C   UNL     1       1.672   7.573  19.965  0.00  0.00    +0.000 A 
ENDROOT
BRANCH   1  15
ATOM     11  C   UNL     1       3.548   3.187  19.776  0.00  0.00    +0.000 C 
ATOM     12  C   UNL     1       2.377   2.242  20.051  0.00  0.00    +0.000 C 
ATOM     13  C   UNL     1       0.993   2.875  19.921  0.00  0.00    +0.000 C 
ATOM     14  C   UNL     1       0.859   4.372  20.230  0.00  0.00    +0.000 C 
ATOM     15  N   UNL     1       2.103   5.135  20.157  0.00  0.00    +0.000 N 
ATOM     16  C   UNL     1       3.323   4.466  20.581  0.00  0.00    +0.000 C 
BRANCH  11  17
ATOM     17  C   UNL     1       3.989   3.359  18.299  0.00  0.00    +0.000 C 
BRANCH  17  22
ATOM     18  C   UNL     1       8.129   6.043  19.060  0.00  0.00    +0.000 C 
ATOM     19  C   UNL     1       7.078   5.394  18.235  0.00  0.00    +0.000 A 
ATOM     20  C   UNL     1       6.973   5.443  16.860  0.00  0.00    +0.000 A 
ATOM     21  S   UNL     1       5.757   4.359  16.334  0.00  0.00    +0.000 S 
ATOM     22  C   UNL     1       5.232   4.167  17.968  0.00  0.00    +0.000 A 
ATOM     23  N   UNL     1       6.092   4.642  18.854  0.00  0.00    +0.000 NA
ENDBRANCH  17  22
BRANCH  17  24
ATOM     24  O   UNL     1       4.162   2.050  17.730  0.00  0.00    +0.000 OA
ATOM     25  H   UNL     1       4.872   2.174  17.060  0.00  0.00    +0.000 HD
ENDBRANCH  17  24
ENDBRANCH  11  17
ENDBRANCH   1  15
BRANCH   7  26
ATOM     26  N   UNL     1       0.346  11.426  21.100  0.00  0.00    +0.000 N 
ATOM     27  C   UNL     1      -0.611  11.683  22.185  0.00  0.00    +0.000 C 
ATOM     28  C   UNL     1      -1.886  12.318  21.621  0.00  0.00    +0.000 C 
ATOM     29  O   UNL     1      -1.589  13.508  20.870  0.00  0.00    +0.000 OA
ATOM     30  C   UNL     1      -0.712  13.201  19.769  0.00  0.00    +0.000 C 
ATOM     31  C   UNL     1       0.619  12.589  20.244  0.00  0.00    +0.000 C 
ENDBRANCH   7  26
TORSDOF 5
ENDMDL
MODEL 5
REMARK VINA RESULT:      -8.2      3.428      8.597
REMARK  Name = 
REMARK  6 active torsions:
REMARK  status: ('A' for Active; 'I' for Inactive)
REMARK    1  A    between atoms: C_1  and  C_2
REMARK    2  A    between atoms: C_5  and  C_6
REMARK    3  A    between atoms: C_6  and  O_7
REMARK    4  A    between atoms: C_6  and  C_8
REMARK    5  A    between atoms: N_12  and  C_13
REMARK    6  A    between atoms: C_19  and  N_20
REMARK                            x       y       z     vdW  Elec       q    Type
REMARK                         _______ _______ _______ _____ _____    ______ ____
ROOT
ATOM      1  C   UNL     1       1.348   9.417  19.456  0.00  0.00    +0.000 A 
ATOM      2  N   UNL     1       1.616   9.973  18.254  0.00  0.00    +0.000 NA
ATOM      3  C   UNL     1       2.375   9.285  17.391  0.00  0.00    +0.000 A 
ATOM      4  N   UNL     1       2.857   8.061  17.578  0.00  0.00    +0.000 NA
ATOM      5  C   UNL     1       2.507   7.463  18.718  0.00  0.00    +0.000 A 
ATOM      6  C   UNL     1       2.917   6.144  18.879  0.00  0.00    +0.000 A 
ATOM      7  C   UNL     1       2.518   5.346  19.958  0.00  0.00    +0.000 A 
ATOM      8  C   UNL     1       1.740   5.956  20.936  0.00  0.00    +0.000 A 
ATOM      9  C   UNL     1       1.349   7.290  20.819  0.00  0.00    +0.000 A 
ATOM     10  C   UNL     1       1.729   8.081  19.709  0.00  0.00    +0.000 A 
ENDROOT
BRANCH   1  15
ATOM     11  C   UNL     1      -1.395  11.456  19.864  0.00  0.00    +0.000 C 
ATOM     12  C   UNL     1      -0.979  12.582  20.812  0.00  0.00    +0.000 C 
ATOM     13  C   UNL     1       0.514  12.637  21.132  0.00  0.00    +0.000 C 
ATOM     14  C   UNL     1       1.298  11.318  21.116  0.00  0.00    +0.000 C 
ATOM     15  N   UNL     1       0.677  10.235  20.357  0.00  0.00    +0.000 N 
ATOM     16  C   UNL     1      -0.776  10.155  20.373  0.00  0.00    +0.000 C 
BRANCH  11  17
ATOM     17  C   UNL     1      -1.287  11.733  18.342  0.00  0.00    +0.000 C 
BRANCH  17  22
ATOM     18  C   UNL     1      -3.640  10.180  14.222  0.00  0.00    +0.000 C 
ATOM     19  C   UNL     1      -3.559  10.716  15.606  0.00  0.00    +0.000 A 
ATOM     20  C   UNL     1      -4.623  11.089  16.400  0.00  0.00    +0.000 A 
ATOM     21  S   UNL     1      -4.073  11.416  17.988  0.00  0.00    +0.000 S 
ATOM     22  C   UNL     1      -2.442  11.376  17.422  0.00  0.00    +0.000 A 
ATOM     23  N   UNL     1      -2.320  10.861  16.210  0.00  0.00    +0.000 NA
ENDBRANCH  17  22
BRANCH  17  24
ATOM     24  O   UNL     1      -1.010  13.133  18.162  0.00  0.00    +0.000 OA
ATOM     25  H   UNL     1      -1.873  13.511  17.879  0.00  0.00    +0.000 HD
ENDBRANCH  17  24
ENDBRANCH  11  17
ENDBRANCH   1  15
BRANCH   7  26
ATOM     26  N   UNL     1       2.819   4.004  19.991  0.00  0.00    +0.000 N 
ATOM     27  C   UNL     1       4.077   3.470  19.450  0.00  0.00    +0.000 C 
ATOM     28  C   UNL     1       3.793   2.598  18.223  0.00  0.00    +0.000 C 
ATOM     29  O   UNL     1       2.852   1.554  18.531  0.00  0.00    +0.000 OA
ATOM     30  C   UNL     1       1.606   2.119  18.982  0.00  0.00    +0.000 C 
ATOM     31  C   UNL     1       1.787   2.987  20.241  0.00  0.00    +0.000 C 
ENDBRANCH   7  26
TORSDOF 5
ENDMDL
MODEL 6
REMARK VINA RESULT:      -8.2      1.891      2.399
REMARK  Name = 
REMARK  6 active torsions:
REMARK  status: ('A' for Active; 'I' for Inactive)
REMARK    1  A    between atoms: C_1  and  C_2
REMARK    2  A    between atoms: C_5  and  C_6
REMARK    3  A    between atoms: C_6  and  O_7
REMARK    4  A    between atoms: C_6  and  C_8
REMARK    5  A    between atoms: N_12  and  C_13
REMARK    6  A    between atoms: C_19  and  N_20
REMARK                            x       y       z     vdW  Elec       q    Type
REMARK                         _______ _______ _______ _____ _____    ______ ____
ROOT
ATOM      1  C   UNL     1       2.304   6.437  19.347  0.00  0.00    +0.000 A 
ATOM      2  N   UNL     1       3.121   6.285  18.282  0.00  0.00    +0.000 NA
ATOM      3  C   UNL     1       3.249   7.307  17.427  0.00  0.00    +0.000 A 
ATOM      4  N   UNL     1       2.685   8.504  17.551  0.00  0.00    +0.000 NA
ATOM      5  C   UNL     1       1.963   8.698  18.656  0.00  0.00    +0.000 A 
ATOM      6  C   UNL     1       1.455   9.979  18.849  0.00  0.00    +0.000 A 
ATOM      7  C   UNL     1       0.792  10.369  20.019  0.00  0.00    +0.000 A 
ATOM      8  C   UNL     1       0.579   9.385  20.977  0.00  0.00    +0.000 A 
ATOM      9  C   UNL     1       1.042   8.082  20.791  0.00  0.00    +0.000 A 
ATOM     10  C   UNL     1       1.741   7.703  19.620  0.00  0.00    +0.000 A 
ENDROOT
BRANCH   1  15
ATOM     11  C   UNL     1       3.465   3.259  19.976  0.00  0.00    +0.000 C 
ATOM     12  C   UNL     1       2.249   2.401  20.334  0.00  0.00    +0.000 C 
ATOM     13  C   UNL     1       0.897   3.075  20.112  0.00  0.00    +0.000 C 
ATOM     14  C   UNL     1       0.826   4.601  20.251  0.00  0.00    +0.000 C 
ATOM     15  N   UNL     1       2.103   5.297  20.116  0.00  0.00    +0.000 N 
ATOM     16  C   UNL     1       3.288   4.628  20.632  0.00  0.00    +0.000 C 
BRANCH  11  17
ATOM     17  C   UNL     1       3.931   3.247  18.497  0.00  0.00    +0.000 C 
BRANCH  17  22
ATOM     18  C   UNL     1       8.111   5.932  18.982  0.00  0.00    +0.000 C 
ATOM     19  C   UNL     1       7.025   5.257  18.227  0.00  0.00    +0.000 A 
ATOM     20  C   UNL     1       6.865   5.251  16.856  0.00  0.00    +0.000 A 
ATOM     21  S   UNL     1       5.623   4.155  16.424  0.00  0.00    +0.000 S 
ATOM     22  C   UNL     1       5.164   4.033  18.084  0.00  0.00    +0.000 A 
ATOM     23  N   UNL     1       6.061   4.537  18.915  0.00  0.00    +0.000 NA
ENDBRANCH  17  22
BRANCH  17  24
ATOM     24  O   UNL     1       4.141   1.879  18.107  0.00  0.00    +0.000 OA
ATOM     25  H   UNL     1       3.277   1.607  17.721  0.00  0.00    +0.000 HD
ENDBRANCH  17  24
ENDBRANCH  11  17
ENDBRANCH   1  15
BRANCH   7  26
ATOM     26  N   UNL     1       0.449  11.685  20.228  0.00  0.00    +0.000 N 
ATOM     27  C   UNL     1      -0.806  12.257  19.723  0.00  0.00    +0.000 C 
ATOM     28  C   UNL     1      -0.510  13.301  18.642  0.00  0.00    +0.000 C 
ATOM     29  O   UNL     1       0.389  14.314  19.126  0.00  0.00    +0.000 OA
ATOM     30  C   UNL     1       1.636  13.724  19.537  0.00  0.00    +0.000 C 
ATOM     31  C   UNL     1       1.442  12.682  20.655  0.00  0.00    +0.000 C 
ENDBRANCH   7  26
TORSDOF 5
ENDMDL
MODEL 7
REMARK VINA RESULT:      -8.0      3.156      9.685
REMARK  Name = 
REMARK  6 active torsions:
REMARK  status: ('A' for Active; 'I' for Inactive)
REMARK    1  A    between atoms: C_1  and  C_2
REMARK    2  A    between atoms: C_5  and  C_6
REMARK    3  A    between atoms: C_6  and  O_7
REMARK    4  A    between atoms: C_6  and  C_8
REMARK    5  A    between atoms: N_12  and  C_13
REMARK    6  A    between atoms: C_19  and  N_20
REMARK                            x       y       z     vdW  Elec       q    Type
REMARK                         _______ _______ _______ _____ _____    ______ ____
ROOT
ATOM      1  C   UNL     1       1.107   9.126  19.367  0.00  0.00    +0.000 A 
ATOM      2  N   UNL     1       0.626   9.032  20.626  0.00  0.00    +0.000 NA
ATOM      3  C   UNL     1       0.928   7.940  21.341  0.00  0.00    +0.000 A 
ATOM      4  N   UNL     1       1.716   6.944  20.951  0.00  0.00    +0.000 NA
ATOM      5  C   UNL     1       2.281   7.082  19.751  0.00  0.00    +0.000 A 
ATOM      6  C   UNL     1       3.189   6.098  19.374  0.00  0.00    +0.000 A 
ATOM      7  C   UNL     1       3.958   6.173  18.206  0.00  0.00    +0.000 A 
ATOM      8  C   UNL     1       3.719   7.255  17.367  0.00  0.00    +0.000 A 
ATOM      9  C   UNL     1       2.784   8.235  17.700  0.00  0.00    +0.000 A 
ATOM     10  C   UNL     1       2.034   8.170  18.899  0.00  0.00    +0.000 A 
ENDROOT
BRANCH   1  15
ATOM     11  C   UNL     1       0.388  12.490  19.505  0.00  0.00    +0.000 C 
ATOM     12  C   UNL     1      -0.805  12.731  18.576  0.00  0.00    +0.000 C 
ATOM     13  C   UNL     1      -1.470  11.465  18.040  0.00  0.00    +0.000 C 
ATOM     14  C   UNL     1      -0.594  10.219  17.855  0.00  0.00    +0.000 C 
ATOM     15  N   UNL     1       0.645  10.210  18.630  0.00  0.00    +0.000 N 
ATOM     16  C   UNL     1       1.318  11.484  18.828  0.00  0.00    +0.000 C 
BRANCH  11  17
ATOM     17  C   UNL     1       0.082  12.258  21.007  0.00  0.00    +0.000 C 
BRANCH  17  22
ATOM     18  C   UNL     1      -1.894  14.953  24.715  0.00  0.00    +0.000 C 
ATOM     19  C   UNL     1      -1.004  14.716  23.550  0.00  0.00    +0.000 A 
ATOM     20  C   UNL     1      -0.158  15.637  22.967  0.00  0.00    +0.000 A 
ATOM     21  S   UNL     1       0.841  14.858  21.816  0.00  0.00    +0.000 S 
ATOM     22  C   UNL     1      -0.148  13.446  21.926  0.00  0.00    +0.000 A 
ATOM     23  N   UNL     1      -0.971  13.462  22.961  0.00  0.00    +0.000 NA
ENDBRANCH  17  22
BRANCH  17  24
ATOM     24  O   UNL     1      -1.074  11.409  21.102  0.00  0.00    +0.000 OA
ATOM     25  H   UNL     1      -0.714  10.502  20.975  0.00  0.00    +0.000 HD
ENDBRANCH  17  24
ENDBRANCH  11  17
ENDBRANCH   1  15
BRANCH   7  26
ATOM     26  N   UNL     1       4.955   5.257  17.959  0.00  0.00    +0.000 N 
ATOM     27  C   UNL     1       6.094   5.075  18.869  0.00  0.00    +0.000 C 
ATOM     28  C   UNL     1       7.389   5.527  18.186  0.00  0.00    +0.000 C 
ATOM     29  O   UNL     1       7.584   4.848  16.934  0.00  0.00    +0.000 OA
ATOM     30  C   UNL     1       6.486   5.115  16.041  0.00  0.00    +0.000 C 
ATOM     31  C   UNL     1       5.138   4.657  16.629  0.00  0.00    +0.000 C 
ENDBRANCH   7  26
TORSDOF 5
ENDMDL
MODEL 8
REMARK VINA RESULT:      -7.9      3.332      9.425
REMARK  Name = 
REMARK  6 active torsions:
REMARK  status: ('A' for Active; 'I' for Inactive)
REMARK    1  A    between atoms: C_1  and  C_2
REMARK    2  A    between atoms: C_5  and  C_6
REMARK    3  A    between atoms: C_6  and  O_7
REMARK    4  A    between atoms: C_6  and  C_8
REMARK    5  A    between atoms: N_12  and  C_13
REMARK    6  A    between atoms: C_19  and  N_20
REMARK                            x       y       z     vdW  Elec       q    Type
REMARK                         _______ _______ _______ _____ _____    ______ ____
ROOT
ATOM      1  C   UNL     1       0.741  10.151  19.657  0.00  0.00    +0.000 A 
ATOM      2  N   UNL     1       0.353  10.162  20.951  0.00  0.00    +0.000 NA
ATOM      3  C   UNL     1       0.563   9.064  21.687  0.00  0.00    +0.000 A 
ATOM      4  N   UNL     1       1.179   7.958  21.282  0.00  0.00    +0.000 NA
ATOM      5  C   UNL     1       1.661   7.980  20.038  0.00  0.00    +0.000 A 
ATOM      6  C   UNL     1       2.399   6.871  19.638  0.00  0.00    +0.000 A 
ATOM      7  C   UNL     1       3.076   6.804  18.414  0.00  0.00    +0.000 A 
ATOM      8  C   UNL     1       2.916   7.882  17.550  0.00  0.00    +0.000 A 
ATOM      9  C   UNL     1       2.148   8.989  17.910  0.00  0.00    +0.000 A 
ATOM     10  C   UNL     1       1.494   9.064  19.162  0.00  0.00    +0.000 A 
ENDROOT
BRANCH   1  15
ATOM     11  C   UNL     1       1.086  13.564  19.377  0.00  0.00    +0.000 C 
ATOM     12  C   UNL     1      -0.241  14.106  18.840  0.00  0.00    +0.000 C 
ATOM     13  C   UNL     1      -1.377  13.087  18.786  0.00  0.00    +0.000 C 
ATOM     14  C   UNL     1      -1.009  11.613  18.574  0.00  0.00    +0.000 C 
ATOM     15  N   UNL     1       0.369  11.263  18.911  0.00  0.00    +0.000 N 
ATOM     16  C   UNL     1       1.395  12.259  18.646  0.00  0.00    +0.000 C 
BRANCH  11  17
ATOM     17  C   UNL     1       1.282  13.568  20.915  0.00  0.00    +0.000 C 
BRANCH  17  22
ATOM     18  C   UNL     1      -2.720  12.031  23.472  0.00  0.00    +0.000 C 
ATOM     19  C   UNL     1      -1.738  13.032  22.984  0.00  0.00    +0.000 A 
ATOM     20  C   UNL     1      -1.754  14.387  23.245  0.00  0.00    +0.000 A 
ATOM     21  S   UNL     1      -0.305  15.102  22.680  0.00  0.00    +0.000 S 
ATOM     22  C   UNL     1       0.075  13.645  21.834  0.00  0.00    +0.000 A 
ATOM     23  N   UNL     1      -0.675  12.618  22.197  0.00  0.00    +0.000 NA
ENDBRANCH  17  22
BRANCH  17  24
ATOM     24  O   UNL     1       2.022  12.388  21.273  0.00  0.00    +0.000 OA
ATOM     25  H   UNL     1       2.058  11.868  20.438  0.00  0.00    +0.000 HD
ENDBRANCH  17  24
ENDBRANCH  11  17
ENDBRANCH   1  15
BRANCH   7  26
ATOM     26  N   UNL     1       3.920   5.755  18.132  0.00  0.00    +0.000 N 
ATOM     27  C   UNL     1       3.506   4.354  18.285  0.00  0.00    +0.000 C 
ATOM     28  C   UNL     1       4.299   3.692  19.416  0.00  0.00    +0.000 C 
ATOM     29  O   UNL     1       5.716   3.816  19.202  0.00  0.00    +0.000 OA
ATOM     30  C   UNL     1       6.095   5.204  19.137  0.00  0.00    +0.000 C 
ATOM     31  C   UNL     1       5.372   5.948  17.999  0.00  0.00    +0.000 C 
ENDBRANCH   7  26
TORSDOF 5
ENDMDL
MODEL 9
REMARK VINA RESULT:      -7.8      1.403      1.906
REMARK  Name = 
REMARK  6 active torsions:
REMARK  status: ('A' for Active; 'I' for Inactive)
REMARK    1  A    between atoms: C_1  and  C_2
REMARK    2  A    between atoms: C_5  and  C_6
REMARK    3  A    between atoms: C_6  and  O_7
REMARK    4  A    between atoms: C_6  and  C_8
REMARK    5  A    between atoms: N_12  and  C_13
REMARK    6  A    between atoms: C_19  and  N_20
REMARK                            x       y       z     vdW  Elec       q    Type
REMARK                         _______ _______ _______ _____ _____    ______ ____
ROOT
ATOM      1  C   UNL     1       2.334   6.790  19.340  0.00  0.00    +0.000 A 
ATOM      2  N   UNL     1       3.111   6.778  18.235  0.00  0.00    +0.000 NA
ATOM      3  C   UNL     1       3.055   7.829  17.407  0.00  0.00    +0.000 A 
ATOM      4  N   UNL     1       2.339   8.933  17.593  0.00  0.00    +0.000 NA
ATOM      5  C   UNL     1       1.653   8.998  18.735  0.00  0.00    +0.000 A 
ATOM      6  C   UNL     1       0.983  10.190  18.991  0.00  0.00    +0.000 A 
ATOM      7  C   UNL     1       0.331  10.456  20.202  0.00  0.00    +0.000 A 
ATOM      8  C   UNL     1       0.304   9.429  21.138  0.00  0.00    +0.000 A 
ATOM      9  C   UNL     1       0.932   8.208  20.890  0.00  0.00    +0.000 A 
ATOM     10  C   UNL     1       1.617   7.958  19.678  0.00  0.00    +0.000 A 
ENDROOT
BRANCH   1  15
ATOM     11  C   UNL     1       3.776   3.679  19.643  0.00  0.00    +0.000 C 
ATOM     12  C   UNL     1       2.689   2.730  20.151  0.00  0.00    +0.000 C 
ATOM     13  C   UNL     1       1.280   3.317  20.174  0.00  0.00    +0.000 C 
ATOM     14  C   UNL     1       1.138   4.830  20.388  0.00  0.00    +0.000 C 
ATOM     15  N   UNL     1       2.331   5.615  20.082  0.00  0.00    +0.000 N 
ATOM     16  C   UNL     1       3.622   5.011  20.375  0.00  0.00    +0.000 C 
BRANCH  11  17
ATOM     17  C   UNL     1       3.999   3.746  18.110  0.00  0.00    +0.000 C 
BRANCH  17  22
ATOM     18  C   UNL     1       7.777   7.006  17.958  0.00  0.00    +0.000 C 
ATOM     19  C   UNL     1       6.872   5.967  17.402  0.00  0.00    +0.000 A 
ATOM     20  C   UNL     1       6.887   5.476  16.113  0.00  0.00    +0.000 A 
ATOM     21  S   UNL     1       5.833   4.132  15.994  0.00  0.00    +0.000 S 
ATOM     22  C   UNL     1       5.184   4.514  17.548  0.00  0.00    +0.000 A 
ATOM     23  N   UNL     1       5.911   5.392  18.219  0.00  0.00    +0.000 NA
ENDBRANCH  17  22
BRANCH  17  24
ATOM     24  O   UNL     1       4.083   2.400  17.612  0.00  0.00    +0.000 OA
ATOM     25  H   UNL     1       4.870   2.414  17.020  0.00  0.00    +0.000 HD
ENDBRANCH  17  24
ENDBRANCH  11  17
ENDBRANCH   1  15
BRANCH   7  26
ATOM     26  N   UNL     1      -0.178  11.707  20.467  0.00  0.00    +0.000 N 
ATOM     27  C   UNL     1       0.546  12.937  20.120  0.00  0.00    +0.000 C 
ATOM     28  C   UNL     1       0.970  13.675  21.393  0.00  0.00    +0.000 C 
ATOM     29  O   UNL     1      -0.159  13.935  22.246  0.00  0.00    +0.000 OA
ATOM     30  C   UNL     1      -0.794  12.701  22.629  0.00  0.00    +0.000 C 
ATOM     31  C   UNL     1      -1.290  11.902  21.409  0.00  0.00    +0.000 C 
ENDBRANCH   7  26
TORSDOF 5
ENDMDL
