MODEL 1
REMARK VINA RESULT:      -7.9      0.000      0.000
REMARK  Name = 
REMARK  6 active torsions:
REMARK  status: ('A' for Active; 'I' for Inactive)
REMARK    1  A    between atoms: C_1  and  C_2
REMARK    2  A    between atoms: C_2  and  C_3
REMARK    3  A    between atoms: C_3  and  C_4
REMARK    4  A    between atoms: N_14  and  C_15
REMARK    5  A    between atoms: C_15  and  C_16
REMARK    6  A    between atoms: C_16  and  C_18
REMARK                            x       y       z     vdW  Elec       q    Type
REMARK                         _______ _______ _______ _____ _____    ______ ____
ROOT
ATOM      1  C   UNL     1       5.368   4.639  17.952  0.00  0.00    +0.000 C 
ATOM      2  O   UNL     1       4.846   3.316  18.052  0.00  0.00    +0.000 OA
ATOM      3  C   UNL     1       3.866   3.179  18.988  0.00  0.00    +0.000 A 
ATOM      4  C   UNL     1       4.141   2.293  20.033  0.00  0.00    +0.000 A 
ATOM      5  C   UNL     1       3.284   2.209  21.127  0.00  0.00    +0.000 A 
ATOM      6  C   UNL     1       2.092   2.928  21.132  0.00  0.00    +0.000 A 
ATOM      7  C   UNL     1       1.766   3.735  20.044  0.00  0.00    +0.000 A 
ATOM      8  C   UNL     1       2.669   3.888  18.980  0.00  0.00    +0.000 A 
ATOM      9  C   UNL     1       2.318   4.911  17.977  0.00  0.00    +0.000 C 
ATOM     10  O   UNL     1       1.160   4.974  17.576  0.00  0.00    +0.000 OA
ATOM     11  N   UNL     1       3.268   5.896  17.729  0.00  0.00    +0.000 N 
ATOM     12  C   UNL     1       4.480   5.588  17.140  0.00  0.00    +0.000 C 
ATOM     13  O   UNL     1       4.868   6.096  16.086  0.00  0.00    +0.000 OA
ENDROOT
BRANCH   1  14
ATOM     14  C   UNL     1       5.730   5.326  19.292  0.00  0.00    +0.000 C 
BRANCH  14  16
ATOM     15  C   UNL     1       7.722   6.569  18.438  0.00  0.00    +0.000 C 
ATOM     16  C   UNL     1       7.220   5.596  19.497  0.00  0.00    +0.000 C 
ENDBRANCH  14  16
ENDBRANCH   1  14
BRANCH  11  17
ATOM     17  C   UNL     1       2.747   7.237  17.519  0.00  0.00    +0.000 C 
BRANCH  17  18
ATOM     18  C   UNL     1       2.463   7.698  18.944  0.00  0.00    +0.000 C 
ATOM     19  O   UNL     1       2.939   7.125  19.917  0.00  0.00    +0.000 OA
BRANCH  18  20
ATOM     20  C   UNL     1       1.406   8.725  19.173  0.00  0.00    +0.000 A 
ATOM     21  C   UNL     1       0.910   9.539  18.151  0.00  0.00    +0.000 A 
ATOM     22  C   UNL     1      -0.028  10.535  18.452  0.00  0.00    +0.000 A 
ATOM     23  C   UNL     1      -0.461  10.719  19.766  0.00  0.00    +0.000 A 
ATOM     24  C   UNL     1      -0.024   9.851  20.763  0.00  0.00    +0.000 A 
ATOM     25  C   UNL     1       0.912   8.860  20.477  0.00  0.00    +0.000 A 
ATOM     26  O   UNL     1      -0.483   9.937  22.049  0.00  0.00    +0.000 OA
ATOM     27  C   UNL     1      -0.629  11.315  22.383  0.00  0.00    +0.000 C 
ATOM     28  C   UNL     1      -1.513  12.065  21.392  0.00  0.00    +0.000 C 
ATOM     29  O   UNL     1      -1.278  11.785  20.006  0.00  0.00    +0.000 OA
ENDBRANCH  18  20
ENDBRANCH  17  18
ENDBRANCH  11  17
TORSDOF 5
ENDMDL
MODEL 2
REMARK VINA RESULT:      -7.7      1.104      1.799
REMARK  Name = 
REMARK  6 active torsions:
REMARK  status: ('A' for Active; 'I' for Inactive)
REMARK    1  A    between atoms: C_1  and  C_2
REMARK    2  A    between atoms: C_2  and  C_3
REMARK    3  A    between atoms: C_3  and  C_4
REMARK    4  A    between atoms: N_14  and  C_15
REMARK    5  A    between atoms: C_15  and  C_16
REMARK    6  A    between atoms: C_16  and  C_18
REMARK                            x       y       z     vdW  Elec       q    Type
REMARK                         _______ _______ _______ _____ _____    ______ ____
ROOT
ATOM      1  C   UNL     1       5.246   4.735  17.993  0.00  0.00    +0.000 C 
ATOM      2  O   UNL     1       4.646   3.446  18.103  0.00  0.00    +0.000 OA
ATOM      3  C   UNL     1       3.646   3.380  19.025  0.00  0.00    +0.000 A 
ATOM      4  C   UNL     1       3.854   2.494  20.085  0.00  0.00    +0.000 A 
ATOM      5  C   UNL     1       2.977   2.475  21.168  0.00  0.00    +0.000 A 
ATOM      6  C   UNL     1       1.830   3.262  21.145  0.00  0.00    +0.000 A 
ATOM      7  C   UNL     1       1.568   4.071  20.042  0.00  0.00    +0.000 A 
ATOM      8  C   UNL     1       2.493   4.157  18.990  0.00  0.00    +0.000 A 
ATOM      9  C   UNL     1       2.217   5.185  17.968  0.00  0.00    +0.000 C 
ATOM     10  O   UNL     1       1.070   5.310  17.549  0.00  0.00    +0.000 OA
ATOM     11  N   UNL     1       3.226   6.109  17.722  0.00  0.00    +0.000 N 
ATOM     12  C   UNL     1       4.427   5.723  17.156  0.00  0.00    +0.000 C 
ATOM     13  O   UNL     1       4.859   6.193  16.102  0.00  0.00    +0.000 OA
ENDROOT
BRANCH   1  14
ATOM     14  C   UNL     1       5.628   5.418  19.330  0.00  0.00    +0.000 C 
BRANCH  14  16
ATOM     15  C   UNL     1       7.738   6.495  18.535  0.00  0.00    +0.000 C 
ATOM     16  C   UNL     1       7.129   5.562  19.575  0.00  0.00    +0.000 C 
ENDBRANCH  14  16
ENDBRANCH   1  14
BRANCH  11  17
ATOM     17  C   UNL     1       2.788   7.476  17.487  0.00  0.00    +0.000 C 
BRANCH  17  18
ATOM     18  C   UNL     1       2.356   7.918  18.880  0.00  0.00    +0.000 C 
ATOM     19  O   UNL     1       2.721   7.327  19.890  0.00  0.00    +0.000 OA
BRANCH  18  20
ATOM     20  C   UNL     1       1.288   8.951  19.011  0.00  0.00    +0.000 A 
ATOM     21  C   UNL     1       1.143   9.747  20.151  0.00  0.00    +0.000 A 
ATOM     22  C   UNL     1       0.071  10.645  20.237  0.00  0.00    +0.000 A 
ATOM     23  C   UNL     1      -0.851  10.741  19.195  0.00  0.00    +0.000 A 
ATOM     24  C   UNL     1      -0.653  10.004  18.030  0.00  0.00    +0.000 A 
ATOM     25  C   UNL     1       0.406   9.105  17.933  0.00  0.00    +0.000 A 
ATOM     26  O   UNL     1      -1.483  10.126  16.948  0.00  0.00    +0.000 OA
ATOM     27  C   UNL     1      -2.818  10.278  17.421  0.00  0.00    +0.000 C 
ATOM     28  C   UNL     1      -2.962  11.436  18.404  0.00  0.00    +0.000 C 
ATOM     29  O   UNL     1      -1.937  11.542  19.400  0.00  0.00    +0.000 OA
ENDBRANCH  18  20
ENDBRANCH  17  18
ENDBRANCH  11  17
TORSDOF 5
ENDMDL
MODEL 3
REMARK VINA RESULT:      -7.6      2.456      8.426
REMARK  Name = 
REMARK  6 active torsions:
REMARK  status: ('A' for Active; 'I' for Inactive)
REMARK    1  A    between atoms: C_1  and  C_2
REMARK    2  A    between atoms: C_2  and  C_3
REMARK    3  A    between atoms: C_3  and  C_4
REMARK    4  A    between atoms: N_14  and  C_15
REMARK    5  A    between atoms: C_15  and  C_16
REMARK    6  A    between atoms: C_16  and  C_18
REMARK                            x       y       z     vdW  Elec       q    Type
REMARK                         _______ _______ _______ _____ _____    ______ ____
ROOT
ATOM      1  C   UNL     1      -1.021  11.346  18.359  0.00  0.00    +0.000 C 
ATOM      2  O   UNL     1      -1.693  12.577  18.624  0.00  0.00    +0.000 OA
ATOM      3  C   UNL     1      -2.319  12.614  19.833  0.00  0.00    +0.000 A 
ATOM      4  C   UNL     1      -3.705  12.788  19.794  0.00  0.00    +0.000 A 
ATOM      5  C   UNL     1      -4.461  12.669  20.958  0.00  0.00    +0.000 A 
ATOM      6  C   UNL     1      -3.825  12.486  22.182  0.00  0.00    +0.000 A 
ATOM      7  C   UNL     1      -2.435  12.414  22.236  0.00  0.00    +0.000 A 
ATOM      8  C   UNL     1      -1.677  12.446  21.055  0.00  0.00    +0.000 A 
ATOM      9  C   UNL     1      -0.236  12.167  21.203  0.00  0.00    +0.000 C 
ATOM     10  O   UNL     1       0.377  12.694  22.126  0.00  0.00    +0.000 OA
ATOM     11  N   UNL     1       0.284  11.134  20.431  0.00  0.00    +0.000 N 
ATOM     12  C   UNL     1       0.339  11.229  19.053  0.00  0.00    +0.000 C 
ATOM     13  O   UNL     1       1.388  11.142  18.412  0.00  0.00    +0.000 OA
ENDROOT
BRANCH   1  14
ATOM     14  C   UNL     1      -1.835  10.059  18.645  0.00  0.00    +0.000 C 
BRANCH  14  16
ATOM     15  C   UNL     1      -2.513  10.081  16.239  0.00  0.00    +0.000 C 
ATOM     16  C   UNL     1      -2.971   9.784  17.662  0.00  0.00    +0.000 C 
ENDBRANCH  14  16
ENDBRANCH   1  14
BRANCH  11  17
ATOM     17  C   UNL     1       1.280  10.298  21.082  0.00  0.00    +0.000 C 
BRANCH  17  18
ATOM     18  C   UNL     1       0.638   8.918  21.008  0.00  0.00    +0.000 C 
ATOM     19  O   UNL     1      -0.402   8.654  21.601  0.00  0.00    +0.000 OA
BRANCH  18  20
ATOM     20  C   UNL     1       1.405   7.797  20.390  0.00  0.00    +0.000 A 
ATOM     21  C   UNL     1       2.117   7.939  19.195  0.00  0.00    +0.000 A 
ATOM     22  C   UNL     1       2.752   6.825  18.632  0.00  0.00    +0.000 A 
ATOM     23  C   UNL     1       2.670   5.579  19.254  0.00  0.00    +0.000 A 
ATOM     24  C   UNL     1       2.029   5.465  20.485  0.00  0.00    +0.000 A 
ATOM     25  C   UNL     1       1.390   6.563  21.053  0.00  0.00    +0.000 A 
ATOM     26  O   UNL     1       1.994   4.284  21.175  0.00  0.00    +0.000 OA
ATOM     27  C   UNL     1       1.833   3.221  20.239  0.00  0.00    +0.000 C 
ATOM     28  C   UNL     1       2.902   3.234  19.151  0.00  0.00    +0.000 C 
ATOM     29  O   UNL     1       3.205   4.516  18.586  0.00  0.00    +0.000 OA
ENDBRANCH  18  20
ENDBRANCH  17  18
ENDBRANCH  11  17
TORSDOF 5
ENDMDL
MODEL 4
REMARK VINA RESULT:      -7.6      5.328      8.355
REMARK  Name = 
REMARK  6 active torsions:
REMARK  status: ('A' for Active; 'I' for Inactive)
REMARK    1  A    between atoms: C_1  and  C_2
REMARK    2  A    between atoms: C_2  and  C_3
REMARK    3  A    between atoms: C_3  and  C_4
REMARK    4  A    between atoms: N_14  and  C_15
REMARK    5  A    between atoms: C_15  and  C_16
REMARK    6  A    between atoms: C_16  and  C_18
REMARK                            x       y       z     vdW  Elec       q    Type
REMARK                         _______ _______ _______ _____ _____    ______ ____
ROOT
ATOM      1  C   UNL     1       0.708  10.794  19.767  0.00  0.00    +0.000 C 
ATOM      2  O   UNL     1       0.198  11.039  18.458  0.00  0.00    +0.000 OA
ATOM      3  C   UNL     1      -1.156  11.179  18.411  0.00  0.00    +0.000 A 
ATOM      4  C   UNL     1      -1.838  10.239  17.634  0.00  0.00    +0.000 A 
ATOM      5  C   UNL     1      -3.230  10.187  17.656  0.00  0.00    +0.000 A 
ATOM      6  C   UNL     1      -3.949  11.143  18.365  0.00  0.00    +0.000 A 
ATOM      7  C   UNL     1      -3.272  12.145  19.058  0.00  0.00    +0.000 A 
ATOM      8  C   UNL     1      -1.870  12.148  19.110  0.00  0.00    +0.000 A 
ATOM      9  C   UNL     1      -1.257  13.128  20.026  0.00  0.00    +0.000 C 
ATOM     10  O   UNL     1      -1.694  14.275  20.043  0.00  0.00    +0.000 OA
ATOM     11  N   UNL     1      -0.385  12.628  20.986  0.00  0.00    +0.000 N 
ATOM     12  C   UNL     1       0.822  12.057  20.626  0.00  0.00    +0.000 C 
ATOM     13  O   UNL     1       1.911  12.471  21.029  0.00  0.00    +0.000 OA
ENDROOT
BRANCH   1  14
ATOM     14  C   UNL     1      -0.029   9.704  20.586  0.00  0.00    +0.000 C 
BRANCH  14  16
ATOM     15  C   UNL     1       1.214   9.124  22.675  0.00  0.00    +0.000 C 
ATOM     16  C   UNL     1       0.880   8.677  21.257  0.00  0.00    +0.000 C 
ENDBRANCH  14  16
ENDBRANCH   1  14
BRANCH  11  17
ATOM     17  C   UNL     1      -0.463  13.251  22.297  0.00  0.00    +0.000 C 
BRANCH  17  18
ATOM     18  C   UNL     1      -1.607  12.484  22.949  0.00  0.00    +0.000 C 
ATOM     19  O   UNL     1      -1.558  11.271  23.124  0.00  0.00    +0.000 OA
BRANCH  18  20
ATOM     20  C   UNL     1      -2.906  13.180  23.176  0.00  0.00    +0.000 A 
ATOM     21  C   UNL     1      -2.990  14.460  23.733  0.00  0.00    +0.000 A 
ATOM     22  C   UNL     1      -4.247  15.023  23.988  0.00  0.00    +0.000 A 
ATOM     23  C   UNL     1      -5.410  14.310  23.695  0.00  0.00    +0.000 A 
ATOM     24  C   UNL     1      -5.318  13.072  23.065  0.00  0.00    +0.000 A 
ATOM     25  C   UNL     1      -4.074  12.499  22.810  0.00  0.00    +0.000 A 
ATOM     26  O   UNL     1      -6.429  12.372  22.681  0.00  0.00    +0.000 OA
ATOM     27  C   UNL     1      -7.432  12.538  23.680  0.00  0.00    +0.000 C 
ATOM     28  C   UNL     1      -7.733  14.006  23.966  0.00  0.00    +0.000 C 
ATOM     29  O   UNL     1      -6.593  14.867  24.084  0.00  0.00    +0.000 OA
ENDBRANCH  18  20
ENDBRANCH  17  18
ENDBRANCH  11  17
TORSDOF 5
ENDMDL
MODEL 5
REMARK VINA RESULT:      -7.5      3.975      7.010
REMARK  Name = 
REMARK  6 active torsions:
REMARK  status: ('A' for Active; 'I' for Inactive)
REMARK    1  A    between atoms: C_1  and  C_2
REMARK    2  A    between atoms: C_2  and  C_3
REMARK    3  A    between atoms: C_3  and  C_4
REMARK    4  A    between atoms: N_14  and  C_15
REMARK    5  A    between atoms: C_15  and  C_16
REMARK    6  A    between atoms: C_16  and  C_18
REMARK                            x       y       z     vdW  Elec       q    Type
REMARK                         _______ _______ _______ _____ _____    ______ ____
ROOT
ATOM      1  C   UNL     1       4.393   5.100  17.784  0.00  0.00    +0.000 C 
ATOM      2  O   UNL     1       4.493   3.895  17.027  0.00  0.00    +0.000 OA
ATOM      3  C   UNL     1       5.310   3.991  15.942  0.00  0.00    +0.000 A 
ATOM      4  C   UNL     1       4.702   3.778  14.702  0.00  0.00    +0.000 A 
ATOM      5  C   UNL     1       5.405   4.021  13.524  0.00  0.00    +0.000 A 
ATOM      6  C   UNL     1       6.751   4.370  13.579  0.00  0.00    +0.000 A 
ATOM      7  C   UNL     1       7.387   4.483  14.813  0.00  0.00    +0.000 A 
ATOM      8  C   UNL     1       6.659   4.324  16.003  0.00  0.00    +0.000 A 
ATOM      9  C   UNL     1       7.376   4.656  17.249  0.00  0.00    +0.000 C 
ATOM     10  O   UNL     1       8.530   4.264  17.390  0.00  0.00    +0.000 OA
ATOM     11  N   UNL     1       6.782   5.599  18.080  0.00  0.00    +0.000 N 
ATOM     12  C   UNL     1       5.584   5.336  18.718  0.00  0.00    +0.000 C 
ATOM     13  O   UNL     1       5.450   5.370  19.943  0.00  0.00    +0.000 OA
ENDROOT
BRANCH   1  14
ATOM     14  C   UNL     1       4.142   6.391  16.966  0.00  0.00    +0.000 C 
BRANCH  14  16
ATOM     15  C   UNL     1       2.295   7.578  18.162  0.00  0.00    +0.000 C 
ATOM     16  C   UNL     1       3.775   7.619  17.798  0.00  0.00    +0.000 C 
ENDBRANCH  14  16
ENDBRANCH   1  14
BRANCH  11  17
ATOM     17  C   UNL     1       7.689   6.534  18.726  0.00  0.00    +0.000 C 
BRANCH  17  18
ATOM     18  C   UNL     1       7.646   7.728  17.781  0.00  0.00    +0.000 C 
ATOM     19  O   UNL     1       7.293   7.618  16.612  0.00  0.00    +0.000 OA
BRANCH  18  20
ATOM     20  C   UNL     1       8.260   9.016  18.216  0.00  0.00    +0.000 A 
ATOM     21  C   UNL     1       9.100   9.114  19.330  0.00  0.00    +0.000 A 
ATOM     22  C   UNL     1       9.580  10.368  19.726  0.00  0.00    +0.000 A 
ATOM     23  C   UNL     1       9.220  11.516  19.019  0.00  0.00    +0.000 A 
ATOM     24  C   UNL     1       8.451  11.399  17.864  0.00  0.00    +0.000 A 
ATOM     25  C   UNL     1       7.963  10.159  17.461  0.00  0.00    +0.000 A 
ATOM     26  O   UNL     1       8.141  12.484  17.090  0.00  0.00    +0.000 OA
ATOM     27  C   UNL     1       7.887  13.592  17.949  0.00  0.00    +0.000 C 
ATOM     28  C   UNL     1       9.044  13.865  18.906  0.00  0.00    +0.000 C 
ATOM     29  O   UNL     1       9.622  12.714  19.534  0.00  0.00    +0.000 OA
ENDBRANCH  18  20
ENDBRANCH  17  18
ENDBRANCH  11  17
TORSDOF 5
ENDMDL
MODEL 6
REMARK VINA RESULT:      -7.5      2.291      8.434
REMARK  Name = 
REMARK  6 active torsions:
REMARK  status: ('A' for Active; 'I' for Inactive)
REMARK    1  A    between atoms: C_1  and  C_2
REMARK    2  A    between atoms: C_2  and  C_3
REMARK    3  A    between atoms: C_3  and  C_4
REMARK    4  A    between atoms: N_14  and  C_15
REMARK    5  A    between atoms: C_15  and  C_16
REMARK    6  A    between atoms: C_16  and  C_18
REMARK                            x       y       z     vdW  Elec       q    Type
REMARK                         _______ _______ _______ _____ _____    ______ ____
ROOT
ATOM      1  C   UNL     1      -0.965  11.287  18.330  0.00  0.00    +0.000 C 
ATOM      2  O   UNL     1      -1.617  12.526  18.604  0.00  0.00    +0.000 OA
ATOM      3  C   UNL     1      -2.224  12.572  19.822  0.00  0.00    +0.000 A 
ATOM      4  C   UNL     1      -3.608  12.764  19.804  0.00  0.00    +0.000 A 
ATOM      5  C   UNL     1      -4.347  12.655  20.981  0.00  0.00    +0.000 A 
ATOM      6  C   UNL     1      -3.695  12.464  22.195  0.00  0.00    +0.000 A 
ATOM      7  C   UNL     1      -2.305  12.375  22.227  0.00  0.00    +0.000 A 
ATOM      8  C   UNL     1      -1.565  12.397  21.035  0.00  0.00    +0.000 A 
ATOM      9  C   UNL     1      -0.126  12.100  21.161  0.00  0.00    +0.000 C 
ATOM     10  O   UNL     1       0.508  12.619  22.074  0.00  0.00    +0.000 OA
ATOM     11  N   UNL     1       0.369  11.059  20.382  0.00  0.00    +0.000 N 
ATOM     12  C   UNL     1       0.404  11.154  19.003  0.00  0.00    +0.000 C 
ATOM     13  O   UNL     1       1.443  11.053  18.346  0.00  0.00    +0.000 OA
ENDROOT
BRANCH   1  14
ATOM     14  C   UNL     1      -1.790  10.010  18.629  0.00  0.00    +0.000 C 
BRANCH  14  16
ATOM     15  C   UNL     1      -2.503   9.996  16.234  0.00  0.00    +0.000 C 
ATOM     16  C   UNL     1      -2.951   9.754  17.670  0.00  0.00    +0.000 C 
ENDBRANCH  14  16
ENDBRANCH   1  14
BRANCH  11  17
ATOM     17  C   UNL     1       1.364  10.212  21.018  0.00  0.00    +0.000 C 
BRANCH  17  18
ATOM     18  C   UNL     1       0.683   8.849  21.002  0.00  0.00    +0.000 C 
ATOM     19  O   UNL     1      -0.356   8.636  21.619  0.00  0.00    +0.000 OA
BRANCH  18  20
ATOM     20  C   UNL     1       1.407   7.686  20.414  0.00  0.00    +0.000 A 
ATOM     21  C   UNL     1       1.417   6.421  21.011  0.00  0.00    +0.000 A 
ATOM     22  C   UNL     1       2.181   5.394  20.443  0.00  0.00    +0.000 A 
ATOM     23  C   UNL     1       2.934   5.630  19.293  0.00  0.00    +0.000 A 
ATOM     24  C   UNL     1       2.854   6.867  18.659  0.00  0.00    +0.000 A 
ATOM     25  C   UNL     1       2.101   7.898  19.215  0.00  0.00    +0.000 A 
ATOM     26  O   UNL     1       3.506   7.121  17.484  0.00  0.00    +0.000 OA
ATOM     27  C   UNL     1       4.776   6.476  17.526  0.00  0.00    +0.000 C 
ATOM     28  C   UNL     1       4.663   4.984  17.825  0.00  0.00    +0.000 C 
ATOM     29  O   UNL     1       3.750   4.622  18.868  0.00  0.00    +0.000 OA
ENDBRANCH  18  20
ENDBRANCH  17  18
ENDBRANCH  11  17
TORSDOF 5
ENDMDL
MODEL 7
REMARK VINA RESULT:      -7.4      1.137      1.392
REMARK  Name = 
REMARK  6 active torsions:
REMARK  status: ('A' for Active; 'I' for Inactive)
REMARK    1  A    between atoms: C_1  and  C_2
REMARK    2  A    between atoms: C_2  and  C_3
REMARK    3  A    between atoms: C_3  and  C_4
REMARK    4  A    between atoms: N_14  and  C_15
REMARK    5  A    between atoms: C_15  and  C_16
REMARK    6  A    between atoms: C_16  and  C_18
REMARK                            x       y       z     vdW  Elec       q    Type
REMARK                         _______ _______ _______ _____ _____    ______ ____
ROOT
ATOM      1  C   UNL     1       5.145   3.792  18.253  0.00  0.00    +0.000 C 
ATOM      2  O   UNL     1       4.418   2.648  18.697  0.00  0.00    +0.000 OA
ATOM      3  C   UNL     1       3.355   2.945  19.496  0.00  0.00    +0.000 A 
ATOM      4  C   UNL     1       3.404   2.425  20.792  0.00  0.00    +0.000 A 
ATOM      5  C   UNL     1       2.458   2.810  21.739  0.00  0.00    +0.000 A 
ATOM      6  C   UNL     1       1.396   3.627  21.367  0.00  0.00    +0.000 A 
ATOM      7  C   UNL     1       1.288   4.064  20.048  0.00  0.00    +0.000 A 
ATOM      8  C   UNL     1       2.287   3.750  19.113  0.00  0.00    +0.000 A 
ATOM      9  C   UNL     1       2.182   4.421  17.804  0.00  0.00    +0.000 C 
ATOM     10  O   UNL     1       1.084   4.487  17.260  0.00  0.00    +0.000 OA
ATOM     11  N   UNL     1       3.289   5.148  17.382  0.00  0.00    +0.000 N 
ATOM     12  C   UNL     1       4.483   4.520  17.080  0.00  0.00    +0.000 C 
ATOM     13  O   UNL     1       5.030   4.604  15.977  0.00  0.00    +0.000 OA
ENDROOT
BRANCH   1  14
ATOM     14  C   UNL     1       5.498   4.833  19.345  0.00  0.00    +0.000 C 
BRANCH  14  16
ATOM     15  C   UNL     1       7.729   4.726  18.224  0.00  0.00    +0.000 C 
ATOM     16  C   UNL     1       6.836   5.543  19.150  0.00  0.00    +0.000 C 
ENDBRANCH  14  16
ENDBRANCH   1  14
BRANCH  11  17
ATOM     17  C   UNL     1       3.001   6.398  16.698  0.00  0.00    +0.000 C 
BRANCH  17  18
ATOM     18  C   UNL     1       3.397   7.435  17.742  0.00  0.00    +0.000 C 
ATOM     19  O   UNL     1       4.552   7.549  18.137  0.00  0.00    +0.000 OA
BRANCH  18  20
ATOM     20  C   UNL     1       2.324   8.174  18.468  0.00  0.00    +0.000 A 
ATOM     21  C   UNL     1       1.563   9.183  17.867  0.00  0.00    +0.000 A 
ATOM     22  C   UNL     1       0.624   9.888  18.630  0.00  0.00    +0.000 A 
ATOM     23  C   UNL     1       0.451   9.593  19.982  0.00  0.00    +0.000 A 
ATOM     24  C   UNL     1       1.153   8.533  20.551  0.00  0.00    +0.000 A 
ATOM     25  C   UNL     1       2.093   7.827  19.805  0.00  0.00    +0.000 A 
ATOM     26  O   UNL     1       0.957   8.151  21.850  0.00  0.00    +0.000 OA
ATOM     27  C   UNL     1       0.765   9.322  22.639  0.00  0.00    +0.000 C 
ATOM     28  C   UNL     1      -0.363  10.203  22.110  0.00  0.00    +0.000 C 
ATOM     29  O   UNL     1      -0.389  10.402  20.691  0.00  0.00    +0.000 OA
ENDBRANCH  18  20
ENDBRANCH  17  18
ENDBRANCH  11  17
TORSDOF 5
ENDMDL
MODEL 8
REMARK VINA RESULT:      -7.4      1.801      4.118
REMARK  Name = 
REMARK  6 active torsions:
REMARK  status: ('A' for Active; 'I' for Inactive)
REMARK    1  A    between atoms: C_1  and  C_2
REMARK    2  A    between atoms: C_2  and  C_3
REMARK    3  A    between atoms: C_3  and  C_4
REMARK    4  A    between atoms: N_14  and  C_15
REMARK    5  A    between atoms: C_15  and  C_16
REMARK    6  A    between atoms: C_16  and  C_18
REMARK                            x       y       z     vdW  Elec       q    Type
REMARK                         _______ _______ _______ _____ _____    ______ ____
ROOT
ATOM      1  C   UNL     1       3.532   2.769  18.104  0.00  0.00    +0.000 C 
ATOM      2  O   UNL     1       4.769   2.534  17.433  0.00  0.00    +0.000 OA
ATOM      3  C   UNL     1       5.207   3.593  16.697  0.00  0.00    +0.000 A 
ATOM      4  C   UNL     1       5.337   3.367  15.325  0.00  0.00    +0.000 A 
ATOM      5  C   UNL     1       5.611   4.425  14.461  0.00  0.00    +0.000 A 
ATOM      6  C   UNL     1       5.864   5.693  14.976  0.00  0.00    +0.000 A 
ATOM      7  C   UNL     1       5.836   5.899  16.354  0.00  0.00    +0.000 A 
ATOM      8  C   UNL     1       5.475   4.855  17.219  0.00  0.00    +0.000 A 
ATOM      9  C   UNL     1       5.284   5.224  18.634  0.00  0.00    +0.000 C 
ATOM     10  O   UNL     1       6.102   5.966  19.168  0.00  0.00    +0.000 OA
ATOM     11  N   UNL     1       4.057   4.903  19.205  0.00  0.00    +0.000 N 
ATOM     12  C   UNL     1       3.678   3.586  19.391  0.00  0.00    +0.000 C 
ATOM     13  O   UNL     1       3.394   3.115  20.494  0.00  0.00    +0.000 OA
ENDROOT
BRANCH   1  14
ATOM     14  C   UNL     1       2.407   3.397  17.244  0.00  0.00    +0.000 C 
BRANCH  14  16
ATOM     15  C   UNL     1       0.651   2.336  18.671  0.00  0.00    +0.000 C 
ATOM     16  C   UNL     1       1.085   3.621  17.976  0.00  0.00    +0.000 C 
ENDBRANCH  14  16
ENDBRANCH   1  14
BRANCH  11  17
ATOM     17  C   UNL     1       3.508   5.890  20.120  0.00  0.00    +0.000 C 
BRANCH  17  18
ATOM     18  C   UNL     1       2.658   6.750  19.192  0.00  0.00    +0.000 C 
ATOM     19  O   UNL     1       2.767   6.690  17.972  0.00  0.00    +0.000 OA
BRANCH  18  20
ATOM     20  C   UNL     1       1.838   7.850  19.777  0.00  0.00    +0.000 A 
ATOM     21  C   UNL     1       1.339   7.807  21.083  0.00  0.00    +0.000 A 
ATOM     22  C   UNL     1       0.512   8.841  21.542  0.00  0.00    +0.000 A 
ATOM     23  C   UNL     1       0.181   9.903  20.700  0.00  0.00    +0.000 A 
ATOM     24  C   UNL     1       0.748   9.979  19.431  0.00  0.00    +0.000 A 
ATOM     25  C   UNL     1       1.568   8.956  18.961  0.00  0.00    +0.000 A 
ATOM     26  O   UNL     1       0.521  11.042  18.600  0.00  0.00    +0.000 OA
ATOM     27  C   UNL     1      -0.837  11.446  18.748  0.00  0.00    +0.000 C 
ATOM     28  C   UNL     1      -1.202  11.746  20.198  0.00  0.00    +0.000 C 
ATOM     29  O   UNL     1      -0.727  10.807  21.171  0.00  0.00    +0.000 OA
ENDBRANCH  18  20
ENDBRANCH  17  18
ENDBRANCH  11  17
TORSDOF 5
ENDMDL
MODEL 9
REMARK VINA RESULT:      -7.3      2.481      8.675
REMARK  Name = 
REMARK  6 active torsions:
REMARK  status: ('A' for Active; 'I' for Inactive)
REMARK    1  A    between atoms: C_1  and  C_2
REMARK    2  A    between atoms: C_2  and  C_3
REMARK    3  A    between atoms: C_3  and  C_4
REMARK    4  A    between atoms: N_14  and  C_15
REMARK    5  A    between atoms: C_15  and  C_16
REMARK    6  A    between atoms: C_16  and  C_18
REMARK                            x       y       z     vdW  Elec       q    Type
REMARK                         _______ _______ _______ _____ _____    ______ ____
ROOT
ATOM      1  C   UNL     1      -1.596  12.194  18.769  0.00  0.00    +0.000 C 
ATOM      2  O   UNL     1      -2.321  13.299  19.303  0.00  0.00    +0.000 OA
ATOM      3  C   UNL     1      -2.768  13.102  20.575  0.00  0.00    +0.000 A 
ATOM      4  C   UNL     1      -4.154  13.136  20.745  0.00  0.00    +0.000 A 
ATOM      5  C   UNL     1      -4.721  12.778  21.966  0.00  0.00    +0.000 A 
ATOM      6  C   UNL     1      -3.903  12.492  23.054  0.00  0.00    +0.000 A 
ATOM      7  C   UNL     1      -2.518  12.558  22.914  0.00  0.00    +0.000 A 
ATOM      8  C   UNL     1      -1.944  12.832  21.663  0.00  0.00    +0.000 A 
ATOM      9  C   UNL     1      -0.479  12.685  21.577  0.00  0.00    +0.000 C 
ATOM     10  O   UNL     1       0.215  13.138  22.482  0.00  0.00    +0.000 OA
ATOM     11  N   UNL     1       0.008  11.829  20.596  0.00  0.00    +0.000 N 
ATOM     12  C   UNL     1      -0.145  12.122  19.253  0.00  0.00    +0.000 C 
ATOM     13  O   UNL     1       0.805  12.234  18.475  0.00  0.00    +0.000 OA
ENDROOT
BRANCH   1  14
ATOM     14  C   UNL     1      -2.250  10.802  18.958  0.00  0.00    +0.000 C 
BRANCH  14  16
ATOM     15  C   UNL     1      -2.448  10.962  16.471  0.00  0.00    +0.000 C 
ATOM     16  C   UNL     1      -2.482  10.019  17.667  0.00  0.00    +0.000 C 
ENDBRANCH  14  16
ENDBRANCH   1  14
BRANCH  11  17
ATOM     17  C   UNL     1       1.153  11.018  20.975  0.00  0.00    +0.000 C 
BRANCH  17  18
ATOM     18  C   UNL     1       0.618   9.603  20.796  0.00  0.00    +0.000 C 
ATOM     19  O   UNL     1      -0.314   9.172  21.468  0.00  0.00    +0.000 OA
BRANCH  18  20
ATOM     20  C   UNL     1       1.383   8.643  19.949  0.00  0.00    +0.000 A 
ATOM     21  C   UNL     1       1.734   8.919  18.624  0.00  0.00    +0.000 A 
ATOM     22  C   UNL     1       2.387   7.941  17.863  0.00  0.00    +0.000 A 
ATOM     23  C   UNL     1       2.680   6.696  18.419  0.00  0.00    +0.000 A 
ATOM     24  C   UNL     1       2.401   6.459  19.763  0.00  0.00    +0.000 A 
ATOM     25  C   UNL     1       1.748   7.421  20.529  0.00  0.00    +0.000 A 
ATOM     26  O   UNL     1       2.745   5.286  20.376  0.00  0.00    +0.000 OA
ATOM     27  C   UNL     1       2.537   4.219  19.455  0.00  0.00    +0.000 C 
ATOM     28  C   UNL     1       3.277   4.432  18.138  0.00  0.00    +0.000 C 
ATOM     29  O   UNL     1       3.203   5.751  17.584  0.00  0.00    +0.000 OA
ENDBRANCH  18  20
ENDBRANCH  17  18
ENDBRANCH  11  17
TORSDOF 5
ENDMDL
