MODEL 1
REMARK VINA RESULT:      -7.1      0.000      0.000
REMARK  Name = 
REMARK  11 active torsions:
REMARK  status: ('A' for Active; 'I' for Inactive)
REMARK    1  A    between atoms: O_1  and  C_2
REMARK    2  A    between atoms: C_2  and  C_3
REMARK    3  A    between atoms: C_3  and  N_4
REMARK    4  A    between atoms: N_7  and  C_8
REMARK    5  A    between atoms: C_8  and  C_9
REMARK    6  A    between atoms: C_9  and  C_10
REMARK    7  A    between atoms: C_10  and  C_11
REMARK    8  A    between atoms: C_11  and  O_12
REMARK    9  A    between atoms: O_12  and  C_13
REMARK   10  A    between atoms: C_18  and  C_19
REMARK   11  A    between atoms: C_20  and  C_21
REMARK                            x       y       z     vdW  Elec       q    Type
REMARK                         _______ _______ _______ _____ _____    ______ ____
ROOT
ATOM      1  O   UNL     1       6.230   6.793  17.241  0.00  0.00    +0.000 OA
ENDROOT
BRANCH   1   2
ATOM      2  C   UNL     1       6.213   5.807  16.280  0.00  0.00    +0.000 A 
ATOM      3  C   UNL     1       7.026   5.844  15.133  0.00  0.00    +0.000 A 
ATOM      4  C   UNL     1       6.969   4.827  14.181  0.00  0.00    +0.000 A 
ATOM      5  C   UNL     1       6.109   3.760  14.348  0.00  0.00    +0.000 A 
ATOM      6  C   UNL     1       5.292   3.704  15.483  0.00  0.00    +0.000 A 
ATOM      7  C   UNL     1       5.326   4.720  16.456  0.00  0.00    +0.000 A 
BRANCH   7   8
ATOM      8  C   UNL     1       4.520   4.470  17.669  0.00  0.00    +0.000 C 
ATOM      9  C   UNL     1       4.066   3.278  18.084  0.00  0.00    +0.000 C 
BRANCH   9  10
ATOM     10  C   UNL     1       3.103   3.100  19.186  0.00  0.00    +0.000 A 
ATOM     11  C   UNL     1       1.757   3.396  18.931  0.00  0.00    +0.000 A 
ATOM     12  C   UNL     1       0.804   3.345  19.952  0.00  0.00    +0.000 A 
ATOM     13  C   UNL     1       1.185   2.990  21.242  0.00  0.00    +0.000 A 
ATOM     14  C   UNL     1       2.512   2.657  21.505  0.00  0.00    +0.000 A 
ATOM     15  C   UNL     1       3.463   2.697  20.480  0.00  0.00    +0.000 A 
ENDBRANCH   9  10
ENDBRANCH   7   8
ENDBRANCH   1   2
BRANCH   1  16
ATOM     16  C   UNL     1       7.471   7.040  17.907  0.00  0.00    +0.000 C 
BRANCH  16  17
ATOM     17  C   UNL     1       7.949   8.444  17.545  0.00  0.00    +0.000 C 
BRANCH  17  18
ATOM     18  C   UNL     1       8.722   9.078  18.704  0.00  0.00    +0.000 C 
BRANCH  18  19
ATOM     19  C   UNL     1       9.129  10.522  18.379  0.00  0.00    +0.000 C 
BRANCH  19  23
ATOM     20  N   UNL     1       9.845  14.049  19.538  0.00  0.00    +0.000 NA
ATOM     21  C   UNL     1      10.378  13.420  18.309  0.00  0.00    +0.000 C 
ATOM     22  C   UNL     1      11.033  12.027  18.512  0.00  0.00    +0.000 C 
ATOM     23  N   UNL     1      10.199  11.045  19.248  0.00  0.00    +0.000 NA
ATOM     24  C   UNL     1       9.694  11.695  20.478  0.00  0.00    +0.000 C 
ATOM     25  C   UNL     1       8.995  13.054  20.233  0.00  0.00    +0.000 C 
BRANCH  20  26
ATOM     26  C   UNL     1      10.905  14.528  20.449  0.00  0.00    +0.000 C 
BRANCH  26  27
ATOM     27  C   UNL     1      10.401  15.284  21.685  0.00  0.00    +0.000 C 
BRANCH  27  28
ATOM     28  O   UNL     1       9.891  16.555  21.286  0.00  0.00    +0.000 OA
ATOM     29  H   UNL     1      10.237  17.206  21.920  0.00  0.00    +0.000 HD
ENDBRANCH  27  28
ENDBRANCH  26  27
ENDBRANCH  20  26
ENDBRANCH  19  23
ENDBRANCH  18  19
ENDBRANCH  17  18
ENDBRANCH  16  17
ENDBRANCH   1  16
TORSDOF 11
ENDMDL
MODEL 2
REMARK VINA RESULT:      -7.1      3.125      3.592
REMARK  Name = 
REMARK  11 active torsions:
REMARK  status: ('A' for Active; 'I' for Inactive)
REMARK    1  A    between atoms: O_1  and  C_2
REMARK    2  A    between atoms: C_2  and  C_3
REMARK    3  A    between atoms: C_3  and  N_4
REMARK    4  A    between atoms: N_7  and  C_8
REMARK    5  A    between atoms: C_8  and  C_9
REMARK    6  A    between atoms: C_9  and  C_10
REMARK    7  A    between atoms: C_10  and  C_11
REMARK    8  A    between atoms: C_11  and  O_12
REMARK    9  A    between atoms: O_12  and  C_13
REMARK   10  A    between atoms: C_18  and  C_19
REMARK   11  A    between atoms: C_20  and  C_21
REMARK                            x       y       z     vdW  Elec       q    Type
REMARK                         _______ _______ _______ _____ _____    ______ ____
ROOT
ATOM      1  O   UNL     1       6.764   7.905  17.077  0.00  0.00    +0.000 OA
ENDROOT
BRANCH   1   2
ATOM      2  C   UNL     1       6.272   6.640  16.842  0.00  0.00    +0.000 A 
ATOM      3  C   UNL     1       7.080   5.574  16.410  0.00  0.00    +0.000 A 
ATOM      4  C   UNL     1       6.537   4.311  16.177  0.00  0.00    +0.000 A 
ATOM      5  C   UNL     1       5.189   4.084  16.367  0.00  0.00    +0.000 A 
ATOM      6  C   UNL     1       4.367   5.133  16.796  0.00  0.00    +0.000 A 
ATOM      7  C   UNL     1       4.888   6.418  17.034  0.00  0.00    +0.000 A 
BRANCH   7   8
ATOM      8  C   UNL     1       3.945   7.394  17.618  0.00  0.00    +0.000 C 
ATOM      9  C   UNL     1       3.030   7.137  18.565  0.00  0.00    +0.000 C 
BRANCH   9  10
ATOM     10  C   UNL     1       1.979   8.087  18.975  0.00  0.00    +0.000 A 
ATOM     11  C   UNL     1       1.446   8.934  17.994  0.00  0.00    +0.000 A 
ATOM     12  C   UNL     1       0.519   9.925  18.328  0.00  0.00    +0.000 A 
ATOM     13  C   UNL     1       0.108  10.077  19.648  0.00  0.00    +0.000 A 
ATOM     14  C   UNL     1       0.600   9.220  20.630  0.00  0.00    +0.000 A 
ATOM     15  C   UNL     1       1.519   8.221  20.293  0.00  0.00    +0.000 A 
ENDBRANCH   9  10
ENDBRANCH   7   8
ENDBRANCH   1   2
BRANCH   1  16
ATOM     16  C   UNL     1       7.963   8.011  17.849  0.00  0.00    +0.000 C 
BRANCH  16  17
ATOM     17  C   UNL     1       8.421   9.467  17.844  0.00  0.00    +0.000 C 
BRANCH  17  18
ATOM     18  C   UNL     1       8.998   9.868  19.204  0.00  0.00    +0.000 C 
BRANCH  18  19
ATOM     19  C   UNL     1      10.074  10.952  19.055  0.00  0.00    +0.000 C 
BRANCH  19  23
ATOM     20  N   UNL     1      10.876  14.645  18.912  0.00  0.00    +0.000 NA
ATOM     21  C   UNL     1       9.657  14.049  19.504  0.00  0.00    +0.000 C 
ATOM     22  C   UNL     1       8.910  13.036  18.595  0.00  0.00    +0.000 C 
ATOM     23  N   UNL     1       9.760  11.961  18.027  0.00  0.00    +0.000 NA
ATOM     24  C   UNL     1      10.961  12.585  17.429  0.00  0.00    +0.000 C 
ATOM     25  C   UNL     1      11.715  13.544  18.381  0.00  0.00    +0.000 C 
BRANCH  20  26
ATOM     26  C   UNL     1      10.582  15.616  17.838  0.00  0.00    +0.000 C 
BRANCH  26  27
ATOM     27  C   UNL     1      10.010  16.955  18.319  0.00  0.00    +0.000 C 
BRANCH  27  28
ATOM     28  O   UNL     1       8.614  17.001  18.035  0.00  0.00    +0.000 OA
ATOM     29  H   UNL     1       8.424  16.251  17.445  0.00  0.00    +0.000 HD
ENDBRANCH  27  28
ENDBRANCH  26  27
ENDBRANCH  20  26
ENDBRANCH  19  23
ENDBRANCH  18  19
ENDBRANCH  17  18
ENDBRANCH  16  17
ENDBRANCH   1  16
TORSDOF 11
ENDMDL
MODEL 3
REMARK VINA RESULT:      -7.0      3.468     10.313
REMARK  Name = 
REMARK  11 active torsions:
REMARK  status: ('A' for Active; 'I' for Inactive)
REMARK    1  A    between atoms: O_1  and  C_2
REMARK    2  A    between atoms: C_2  and  C_3
REMARK    3  A    between atoms: C_3  and  N_4
REMARK    4  A    between atoms: N_7  and  C_8
REMARK    5  A    between atoms: C_8  and  C_9
REMARK    6  A    between atoms: C_9  and  C_10
REMARK    7  A    between atoms: C_10  and  C_11
REMARK    8  A    between atoms: C_11  and  O_12
REMARK    9  A    between atoms: O_12  and  C_13
REMARK   10  A    between atoms: C_18  and  C_19
REMARK   11  A    between atoms: C_20  and  C_21
REMARK                            x       y       z     vdW  Elec       q    Type
REMARK                         _______ _______ _______ _____ _____    ______ ____
ROOT
ATOM      1  O   UNL     1       8.873  10.886  18.744  0.00  0.00    +0.000 OA
ENDROOT
BRANCH   1   2
ATOM      2  C   UNL     1      10.004  11.671  18.702  0.00  0.00    +0.000 A 
ATOM      3  C   UNL     1      10.673  11.983  17.506  0.00  0.00    +0.000 A 
ATOM      4  C   UNL     1      11.821  12.776  17.512  0.00  0.00    +0.000 A 
ATOM      5  C   UNL     1      12.323  13.269  18.699  0.00  0.00    +0.000 A 
ATOM      6  C   UNL     1      11.672  12.968  19.901  0.00  0.00    +0.000 A 
ATOM      7  C   UNL     1      10.516  12.168  19.923  0.00  0.00    +0.000 A 
BRANCH   7   8
ATOM      8  C   UNL     1       9.848  12.045  21.236  0.00  0.00    +0.000 C 
ATOM      9  C   UNL     1       8.890  12.854  21.713  0.00  0.00    +0.000 C 
BRANCH   9  10
ATOM     10  C   UNL     1       8.393  12.816  23.100  0.00  0.00    +0.000 A 
ATOM     11  C   UNL     1       7.810  11.625  23.552  0.00  0.00    +0.000 A 
ATOM     12  C   UNL     1       7.230  11.545  24.821  0.00  0.00    +0.000 A 
ATOM     13  C   UNL     1       7.232  12.657  25.658  0.00  0.00    +0.000 A 
ATOM     14  C   UNL     1       7.839  13.838  25.239  0.00  0.00    +0.000 A 
ATOM     15  C   UNL     1       8.430  13.914  23.973  0.00  0.00    +0.000 A 
ENDBRANCH   9  10
ENDBRANCH   7   8
ENDBRANCH   1   2
BRANCH   1  16
ATOM     16  C   UNL     1       9.057   9.475  18.891  0.00  0.00    +0.000 C 
BRANCH  16  17
ATOM     17  C   UNL     1       8.143   8.757  17.902  0.00  0.00    +0.000 C 
BRANCH  17  18
ATOM     18  C   UNL     1       7.938   7.295  18.304  0.00  0.00    +0.000 C 
BRANCH  18  19
ATOM     19  C   UNL     1       7.272   6.495  17.176  0.00  0.00    +0.000 C 
BRANCH  19  23
ATOM     20  N   UNL     1       4.089   4.454  17.268  0.00  0.00    +0.000 NA
ATOM     21  C   UNL     1       4.660   5.213  18.403  0.00  0.00    +0.000 C 
ATOM     22  C   UNL     1       6.163   4.945  18.685  0.00  0.00    +0.000 C 
ATOM     23  N   UNL     1       7.054   5.074  17.506  0.00  0.00    +0.000 NA
ATOM     24  C   UNL     1       6.468   4.295  16.393  0.00  0.00    +0.000 C 
ATOM     25  C   UNL     1       4.985   4.629  16.100  0.00  0.00    +0.000 C 
BRANCH  20  26
ATOM     26  C   UNL     1       3.918   3.016  17.560  0.00  0.00    +0.000 C 
BRANCH  26  27
ATOM     27  C   UNL     1       3.394   2.702  18.967  0.00  0.00    +0.000 C 
BRANCH  27  28
ATOM     28  O   UNL     1       2.084   2.146  18.870  0.00  0.00    +0.000 OA
ATOM     29  H   UNL     1       1.570   2.742  18.298  0.00  0.00    +0.000 HD
ENDBRANCH  27  28
ENDBRANCH  26  27
ENDBRANCH  20  26
ENDBRANCH  19  23
ENDBRANCH  18  19
ENDBRANCH  17  18
ENDBRANCH  16  17
ENDBRANCH   1  16
TORSDOF 11
ENDMDL
MODEL 4
REMARK VINA RESULT:      -7.0      3.740     10.122
REMARK  Name = 
REMARK  11 active torsions:
REMARK  status: ('A' for Active; 'I' for Inactive)
REMARK    1  A    between atoms: O_1  and  C_2
REMARK    2  A    between atoms: C_2  and  C_3
REMARK    3  A    between atoms: C_3  and  N_4
REMARK    4  A    between atoms: N_7  and  C_8
REMARK    5  A    between atoms: C_8  and  C_9
REMARK    6  A    between atoms: C_9  and  C_10
REMARK    7  A    between atoms: C_10  and  C_11
REMARK    8  A    between atoms: C_11  and  O_12
REMARK    9  A    between atoms: O_12  and  C_13
REMARK   10  A    between atoms: C_18  and  C_19
REMARK   11  A    between atoms: C_20  and  C_21
REMARK                            x       y       z     vdW  Elec       q    Type
REMARK                         _______ _______ _______ _____ _____    ______ ____
ROOT
ATOM      1  O   UNL     1       8.879  10.096  19.103  0.00  0.00    +0.000 OA
ENDROOT
BRANCH   1   2
ATOM      2  C   UNL     1       9.879  11.030  19.259  0.00  0.00    +0.000 A 
ATOM      3  C   UNL     1      10.820  11.316  18.254  0.00  0.00    +0.000 A 
ATOM      4  C   UNL     1      11.821  12.265  18.459  0.00  0.00    +0.000 A 
ATOM      5  C   UNL     1      11.907  12.943  19.658  0.00  0.00    +0.000 A 
ATOM      6  C   UNL     1      10.980  12.672  20.671  0.00  0.00    +0.000 A 
ATOM      7  C   UNL     1       9.963  11.717  20.493  0.00  0.00    +0.000 A 
BRANCH   7   8
ATOM      8  C   UNL     1       8.968  11.629  21.582  0.00  0.00    +0.000 C 
ATOM      9  C   UNL     1       8.824  12.501  22.591  0.00  0.00    +0.000 C 
BRANCH   9  10
ATOM     10  C   UNL     1       7.956  12.273  23.761  0.00  0.00    +0.000 A 
ATOM     11  C   UNL     1       8.443  12.653  25.019  0.00  0.00    +0.000 A 
ATOM     12  C   UNL     1       7.719  12.379  26.183  0.00  0.00    +0.000 A 
ATOM     13  C   UNL     1       6.493  11.727  26.101  0.00  0.00    +0.000 A 
ATOM     14  C   UNL     1       5.977  11.375  24.856  0.00  0.00    +0.000 A 
ATOM     15  C   UNL     1       6.697  11.660  23.691  0.00  0.00    +0.000 A 
ENDBRANCH   9  10
ENDBRANCH   7   8
ENDBRANCH   1   2
BRANCH   1  16
ATOM     16  C   UNL     1       8.649   9.593  17.784  0.00  0.00    +0.000 C 
BRANCH  16  17
ATOM     17  C   UNL     1       7.468   8.626  17.829  0.00  0.00    +0.000 C 
BRANCH  17  18
ATOM     18  C   UNL     1       7.930   7.210  18.183  0.00  0.00    +0.000 C 
BRANCH  18  19
ATOM     19  C   UNL     1       7.229   6.161  17.309  0.00  0.00    +0.000 C 
BRANCH  19  23
ATOM     20  N   UNL     1       4.543   3.503  17.161  0.00  0.00    +0.000 NA
ATOM     21  C   UNL     1       5.169   4.163  15.993  0.00  0.00    +0.000 C 
ATOM     22  C   UNL     1       5.198   5.714  16.051  0.00  0.00    +0.000 C 
ATOM     23  N   UNL     1       5.760   6.284  17.300  0.00  0.00    +0.000 NA
ATOM     24  C   UNL     1       5.107   5.618  18.449  0.00  0.00    +0.000 C 
ATOM     25  C   UNL     1       5.147   4.072  18.390  0.00  0.00    +0.000 C 
BRANCH  20  26
ATOM     26  C   UNL     1       3.075   3.665  17.200  0.00  0.00    +0.000 C 
BRANCH  26  27
ATOM     27  C   UNL     1       2.328   2.585  17.992  0.00  0.00    +0.000 C 
BRANCH  27  28
ATOM     28  O   UNL     1       1.736   3.173  19.149  0.00  0.00    +0.000 OA
ATOM     29  H   UNL     1       1.319   4.002  18.858  0.00  0.00    +0.000 HD
ENDBRANCH  27  28
ENDBRANCH  26  27
ENDBRANCH  20  26
ENDBRANCH  19  23
ENDBRANCH  18  19
ENDBRANCH  17  18
ENDBRANCH  16  17
ENDBRANCH   1  16
TORSDOF 11
ENDMDL
MODEL 5
REMARK VINA RESULT:      -7.0      2.979      3.419
REMARK  Name = 
REMARK  11 active torsions:
REMARK  status: ('A' for Active; 'I' for Inactive)
REMARK    1  A    between atoms: O_1  and  C_2
REMARK    2  A    between atoms: C_2  and  C_3
REMARK    3  A    between atoms: C_3  and  N_4
REMARK    4  A    between atoms: N_7  and  C_8
REMARK    5  A    between atoms: C_8  and  C_9
REMARK    6  A    between atoms: C_9  and  C_10
REMARK    7  A    between atoms: C_10  and  C_11
REMARK    8  A    between atoms: C_11  and  O_12
REMARK    9  A    between atoms: O_12  and  C_13
REMARK   10  A    between atoms: C_18  and  C_19
REMARK   11  A    between atoms: C_20  and  C_21
REMARK                            x       y       z     vdW  Elec       q    Type
REMARK                         _______ _______ _______ _____ _____    ______ ____
ROOT
ATOM      1  O   UNL     1       6.815   6.985  18.072  0.00  0.00    +0.000 OA
ENDROOT
BRANCH   1   2
ATOM      2  C   UNL     1       6.412   5.953  17.253  0.00  0.00    +0.000 A 
ATOM      3  C   UNL     1       7.315   5.151  16.535  0.00  0.00    +0.000 A 
ATOM      4  C   UNL     1       6.861   4.121  15.711  0.00  0.00    +0.000 A 
ATOM      5  C   UNL     1       5.510   3.871  15.585  0.00  0.00    +0.000 A 
ATOM      6  C   UNL     1       4.594   4.659  16.291  0.00  0.00    +0.000 A 
ATOM      7  C   UNL     1       5.025   5.707  17.126  0.00  0.00    +0.000 A 
BRANCH   7   8
ATOM      8  C   UNL     1       3.969   6.367  17.921  0.00  0.00    +0.000 C 
ATOM      9  C   UNL     1       3.285   7.466  17.568  0.00  0.00    +0.000 C 
BRANCH   9  10
ATOM     10  C   UNL     1       2.385   8.204  18.473  0.00  0.00    +0.000 A 
ATOM     11  C   UNL     1       2.185   7.685  19.760  0.00  0.00    +0.000 A 
ATOM     12  C   UNL     1       1.272   8.274  20.638  0.00  0.00    +0.000 A 
ATOM     13  C   UNL     1       0.550   9.396  20.242  0.00  0.00    +0.000 A 
ATOM     14  C   UNL     1       0.762   9.946  18.980  0.00  0.00    +0.000 A 
ATOM     15  C   UNL     1       1.685   9.362  18.105  0.00  0.00    +0.000 A 
ENDBRANCH   9  10
ENDBRANCH   7   8
ENDBRANCH   1   2
BRANCH   1  16
ATOM     16  C   UNL     1       7.521   8.070  17.462  0.00  0.00    +0.000 C 
BRANCH  16  17
ATOM     17  C   UNL     1       8.433   8.707  18.507  0.00  0.00    +0.000 C 
BRANCH  17  18
ATOM     18  C   UNL     1       8.828  10.128  18.099  0.00  0.00    +0.000 C 
BRANCH  18  19
ATOM     19  C   UNL     1       9.606  10.834  19.219  0.00  0.00    +0.000 C 
BRANCH  19  23
ATOM     20  N   UNL     1       9.301  14.599  19.057  0.00  0.00    +0.000 NA
ATOM     21  C   UNL     1       8.895  13.654  17.992  0.00  0.00    +0.000 C 
ATOM     22  C   UNL     1       9.969  12.607  17.596  0.00  0.00    +0.000 C 
ATOM     23  N   UNL     1      10.555  11.851  18.730  0.00  0.00    +0.000 NA
ATOM     24  C   UNL     1      10.966  12.819  19.770  0.00  0.00    +0.000 C 
ATOM     25  C   UNL     1       9.853  13.812  20.185  0.00  0.00    +0.000 C 
BRANCH  20  26
ATOM     26  C   UNL     1      10.297  15.591  18.601  0.00  0.00    +0.000 C 
BRANCH  26  27
ATOM     27  C   UNL     1       9.767  16.621  17.595  0.00  0.00    +0.000 C 
BRANCH  27  28
ATOM     28  O   UNL     1      10.795  16.940  16.660  0.00  0.00    +0.000 OA
ATOM     29  H   UNL     1      11.601  17.106  17.178  0.00  0.00    +0.000 HD
ENDBRANCH  27  28
ENDBRANCH  26  27
ENDBRANCH  20  26
ENDBRANCH  19  23
ENDBRANCH  18  19
ENDBRANCH  17  18
ENDBRANCH  16  17
ENDBRANCH   1  16
TORSDOF 11
ENDMDL
MODEL 6
REMARK VINA RESULT:      -7.0      3.606     10.144
REMARK  Name = 
REMARK  11 active torsions:
REMARK  status: ('A' for Active; 'I' for Inactive)
REMARK    1  A    between atoms: O_1  and  C_2
REMARK    2  A    between atoms: C_2  and  C_3
REMARK    3  A    between atoms: C_3  and  N_4
REMARK    4  A    between atoms: N_7  and  C_8
REMARK    5  A    between atoms: C_8  and  C_9
REMARK    6  A    between atoms: C_9  and  C_10
REMARK    7  A    between atoms: C_10  and  C_11
REMARK    8  A    between atoms: C_11  and  O_12
REMARK    9  A    between atoms: O_12  and  C_13
REMARK   10  A    between atoms: C_18  and  C_19
REMARK   11  A    between atoms: C_20  and  C_21
REMARK                            x       y       z     vdW  Elec       q    Type
REMARK                         _______ _______ _______ _____ _____    ______ ____
ROOT
ATOM      1  O   UNL     1       8.806  10.536  19.112  0.00  0.00    +0.000 OA
ENDROOT
BRANCH   1   2
ATOM      2  C   UNL     1       9.932  11.322  19.006  0.00  0.00    +0.000 A 
ATOM      3  C   UNL     1      10.580  11.566  17.783  0.00  0.00    +0.000 A 
ATOM      4  C   UNL     1      11.723  12.362  17.723  0.00  0.00    +0.000 A 
ATOM      5  C   UNL     1      12.242  12.927  18.871  0.00  0.00    +0.000 A 
ATOM      6  C   UNL     1      11.612  12.696  20.099  0.00  0.00    +0.000 A 
ATOM      7  C   UNL     1      10.460  11.893  20.187  0.00  0.00    +0.000 A 
BRANCH   7   8
ATOM      8  C   UNL     1       9.813  11.845  21.515  0.00  0.00    +0.000 C 
ATOM      9  C   UNL     1       8.494  11.892  21.753  0.00  0.00    +0.000 C 
BRANCH   9  10
ATOM     10  C   UNL     1       7.902  12.042  23.095  0.00  0.00    +0.000 A 
ATOM     11  C   UNL     1       8.749  12.430  24.142  0.00  0.00    +0.000 A 
ATOM     12  C   UNL     1       8.282  12.497  25.457  0.00  0.00    +0.000 A 
ATOM     13  C   UNL     1       6.956  12.184  25.740  0.00  0.00    +0.000 A 
ATOM     14  C   UNL     1       6.091  11.832  24.707  0.00  0.00    +0.000 A 
ATOM     15  C   UNL     1       6.557  11.776  23.389  0.00  0.00    +0.000 A 
ENDBRANCH   9  10
ENDBRANCH   7   8
ENDBRANCH   1   2
BRANCH   1  16
ATOM     16  C   UNL     1       8.946   9.144  18.816  0.00  0.00    +0.000 C 
BRANCH  16  17
ATOM     17  C   UNL     1       7.907   8.761  17.765  0.00  0.00    +0.000 C 
BRANCH  17  18
ATOM     18  C   UNL     1       7.672   7.249  17.749  0.00  0.00    +0.000 C 
BRANCH  18  19
ATOM     19  C   UNL     1       6.289   6.906  17.178  0.00  0.00    +0.000 C 
BRANCH  19  23
ATOM     20  N   UNL     1       3.986   4.309  18.678  0.00  0.00    +0.000 NA
ATOM     21  C   UNL     1       5.355   4.620  19.145  0.00  0.00    +0.000 C 
ATOM     22  C   UNL     1       6.442   4.636  18.036  0.00  0.00    +0.000 C 
ATOM     23  N   UNL     1       6.119   5.477  16.857  0.00  0.00    +0.000 NA
ATOM     24  C   UNL     1       4.753   5.134  16.402  0.00  0.00    +0.000 C 
ATOM     25  C   UNL     1       3.684   5.184  17.521  0.00  0.00    +0.000 C 
BRANCH  20  26
ATOM     26  C   UNL     1       3.812   2.892  18.296  0.00  0.00    +0.000 C 
BRANCH  26  27
ATOM     27  C   UNL     1       2.537   2.231  18.834  0.00  0.00    +0.000 C 
BRANCH  27  28
ATOM     28  O   UNL     1       1.442   2.552  17.977  0.00  0.00    +0.000 OA
ATOM     29  H   UNL     1       0.901   3.207  18.451  0.00  0.00    +0.000 HD
ENDBRANCH  27  28
ENDBRANCH  26  27
ENDBRANCH  20  26
ENDBRANCH  19  23
ENDBRANCH  18  19
ENDBRANCH  17  18
ENDBRANCH  16  17
ENDBRANCH   1  16
TORSDOF 11
ENDMDL
MODEL 7
REMARK VINA RESULT:      -7.0      2.891      3.281
REMARK  Name = 
REMARK  11 active torsions:
REMARK  status: ('A' for Active; 'I' for Inactive)
REMARK    1  A    between atoms: O_1  and  C_2
REMARK    2  A    between atoms: C_2  and  C_3
REMARK    3  A    between atoms: C_3  and  N_4
REMARK    4  A    between atoms: N_7  and  C_8
REMARK    5  A    between atoms: C_8  and  C_9
REMARK    6  A    between atoms: C_9  and  C_10
REMARK    7  A    between atoms: C_10  and  C_11
REMARK    8  A    between atoms: C_11  and  O_12
REMARK    9  A    between atoms: O_12  and  C_13
REMARK   10  A    between atoms: C_18  and  C_19
REMARK   11  A    between atoms: C_20  and  C_21
REMARK                            x       y       z     vdW  Elec       q    Type
REMARK                         _______ _______ _______ _____ _____    ______ ____
ROOT
ATOM      1  O   UNL     1       6.479   7.598  17.514  0.00  0.00    +0.000 OA
ENDROOT
BRANCH   1   2
ATOM      2  C   UNL     1       6.177   6.361  16.990  0.00  0.00    +0.000 A 
ATOM      3  C   UNL     1       7.097   5.601  16.248  0.00  0.00    +0.000 A 
ATOM      4  C   UNL     1       6.745   4.356  15.729  0.00  0.00    +0.000 A 
ATOM      5  C   UNL     1       5.478   3.846  15.933  0.00  0.00    +0.000 A 
ATOM      6  C   UNL     1       4.547   4.588  16.669  0.00  0.00    +0.000 A 
ATOM      7  C   UNL     1       4.875   5.849  17.200  0.00  0.00    +0.000 A 
BRANCH   7   8
ATOM      8  C   UNL     1       3.852   6.462  18.073  0.00  0.00    +0.000 C 
ATOM      9  C   UNL     1       3.027   7.465  17.737  0.00  0.00    +0.000 C 
BRANCH   9  10
ATOM     10  C   UNL     1       2.162   8.177  18.696  0.00  0.00    +0.000 A 
ATOM     11  C   UNL     1       2.036   7.640  19.984  0.00  0.00    +0.000 A 
ATOM     12  C   UNL     1       1.159   8.204  20.915  0.00  0.00    +0.000 A 
ATOM     13  C   UNL     1       0.400   9.318  20.569  0.00  0.00    +0.000 A 
ATOM     14  C   UNL     1       0.540   9.886  19.305  0.00  0.00    +0.000 A 
ATOM     15  C   UNL     1       1.427   9.328  18.378  0.00  0.00    +0.000 A 
ENDBRANCH   9  10
ENDBRANCH   7   8
ENDBRANCH   1   2
BRANCH   1  16
ATOM     16  C   UNL     1       7.860   7.900  17.734  0.00  0.00    +0.000 C 
BRANCH  16  17
ATOM     17  C   UNL     1       8.026   9.416  17.791  0.00  0.00    +0.000 C 
BRANCH  17  18
ATOM     18  C   UNL     1       8.974   9.824  18.921  0.00  0.00    +0.000 C 
BRANCH  18  19
ATOM     19  C   UNL     1      10.065  10.778  18.416  0.00  0.00    +0.000 C 
BRANCH  19  23
ATOM     20  N   UNL     1       9.942  14.501  17.765  0.00  0.00    +0.000 NA
ATOM     21  C   UNL     1      11.132  13.637  17.604  0.00  0.00    +0.000 C 
ATOM     22  C   UNL     1      11.457  12.730  18.822  0.00  0.00    +0.000 C 
ATOM     23  N   UNL     1      10.319  11.917  19.318  0.00  0.00    +0.000 NA
ATOM     24  C   UNL     1       9.150  12.808  19.484  0.00  0.00    +0.000 C 
ATOM     25  C   UNL     1       8.818  13.655  18.231  0.00  0.00    +0.000 C 
BRANCH  20  26
ATOM     26  C   UNL     1      10.159  15.616  18.710  0.00  0.00    +0.000 C 
BRANCH  26  27
ATOM     27  C   UNL     1       9.277  16.847  18.470  0.00  0.00    +0.000 C 
BRANCH  27  28
ATOM     28  O   UNL     1       8.933  17.433  19.724  0.00  0.00    +0.000 OA
ATOM     29  H   UNL     1       8.546  16.724  20.266  0.00  0.00    +0.000 HD
ENDBRANCH  27  28
ENDBRANCH  26  27
ENDBRANCH  20  26
ENDBRANCH  19  23
ENDBRANCH  18  19
ENDBRANCH  17  18
ENDBRANCH  16  17
ENDBRANCH   1  16
TORSDOF 11
ENDMDL
MODEL 8
REMARK VINA RESULT:      -6.9      3.728      9.953
REMARK  Name = 
REMARK  11 active torsions:
REMARK  status: ('A' for Active; 'I' for Inactive)
REMARK    1  A    between atoms: O_1  and  C_2
REMARK    2  A    between atoms: C_2  and  C_3
REMARK    3  A    between atoms: C_3  and  N_4
REMARK    4  A    between atoms: N_7  and  C_8
REMARK    5  A    between atoms: C_8  and  C_9
REMARK    6  A    between atoms: C_9  and  C_10
REMARK    7  A    between atoms: C_10  and  C_11
REMARK    8  A    between atoms: C_11  and  O_12
REMARK    9  A    between atoms: O_12  and  C_13
REMARK   10  A    between atoms: C_18  and  C_19
REMARK   11  A    between atoms: C_20  and  C_21
REMARK                            x       y       z     vdW  Elec       q    Type
REMARK                         _______ _______ _______ _____ _____    ______ ____
ROOT
ATOM      1  O   UNL     1       8.736   9.662  19.249  0.00  0.00    +0.000 OA
ENDROOT
BRANCH   1   2
ATOM      2  C   UNL     1       9.596  10.734  19.156  0.00  0.00    +0.000 A 
ATOM      3  C   UNL     1      10.323  11.031  17.991  0.00  0.00    +0.000 A 
ATOM      4  C   UNL     1      11.190  12.123  17.945  0.00  0.00    +0.000 A 
ATOM      5  C   UNL     1      11.350  12.934  19.050  0.00  0.00    +0.000 A 
ATOM      6  C   UNL     1      10.635  12.655  20.220  0.00  0.00    +0.000 A 
ATOM      7  C   UNL     1       9.759  11.558  20.295  0.00  0.00    +0.000 A 
BRANCH   7   8
ATOM      8  C   UNL     1       8.961  11.458  21.535  0.00  0.00    +0.000 C 
ATOM      9  C   UNL     1       8.503  12.488  22.263  0.00  0.00    +0.000 C 
BRANCH   9  10
ATOM     10  C   UNL     1       7.885  12.346  23.594  0.00  0.00    +0.000 A 
ATOM     11  C   UNL     1       8.521  12.967  24.678  0.00  0.00    +0.000 A 
ATOM     12  C   UNL     1       8.049  12.795  25.982  0.00  0.00    +0.000 A 
ATOM     13  C   UNL     1       6.929  12.005  26.218  0.00  0.00    +0.000 A 
ATOM     14  C   UNL     1       6.263  11.410  25.149  0.00  0.00    +0.000 A 
ATOM     15  C   UNL     1       6.729  11.591  23.842  0.00  0.00    +0.000 A 
ENDBRANCH   9  10
ENDBRANCH   7   8
ENDBRANCH   1   2
BRANCH   1  16
ATOM     16  C   UNL     1       8.319   9.046  18.027  0.00  0.00    +0.000 C 
BRANCH  16  17
ATOM     17  C   UNL     1       8.145   7.549  18.269  0.00  0.00    +0.000 C 
BRANCH  17  18
ATOM     18  C   UNL     1       7.357   6.896  17.131  0.00  0.00    +0.000 C 
BRANCH  18  19
ATOM     19  C   UNL     1       5.845   7.072  17.328  0.00  0.00    +0.000 C 
BRANCH  19  23
ATOM     20  N   UNL     1       4.111   4.614  19.621  0.00  0.00    +0.000 NA
ATOM     21  C   UNL     1       5.510   4.514  19.149  0.00  0.00    +0.000 C 
ATOM     22  C   UNL     1       5.701   4.662  17.616  0.00  0.00    +0.000 C 
ATOM     23  N   UNL     1       5.063   5.861  17.018  0.00  0.00    +0.000 NA
ATOM     24  C   UNL     1       3.663   5.927  17.493  0.00  0.00    +0.000 C 
ATOM     25  C   UNL     1       3.512   5.835  19.031  0.00  0.00    +0.000 C 
BRANCH  20  26
ATOM     26  C   UNL     1       3.296   3.434  19.268  0.00  0.00    +0.000 C 
BRANCH  26  27
ATOM     27  C   UNL     1       2.137   3.139  20.229  0.00  0.00    +0.000 C 
BRANCH  27  28
ATOM     28  O   UNL     1       2.660   2.875  21.530  0.00  0.00    +0.000 OA
ATOM     29  H   UNL     1       2.107   3.372  22.158  0.00  0.00    +0.000 HD
ENDBRANCH  27  28
ENDBRANCH  26  27
ENDBRANCH  20  26
ENDBRANCH  19  23
ENDBRANCH  18  19
ENDBRANCH  17  18
ENDBRANCH  16  17
ENDBRANCH   1  16
TORSDOF 11
ENDMDL
MODEL 9
REMARK VINA RESULT:      -6.9      6.177      8.679
REMARK  Name = 
REMARK  11 active torsions:
REMARK  status: ('A' for Active; 'I' for Inactive)
REMARK    1  A    between atoms: O_1  and  C_2
REMARK    2  A    between atoms: C_2  and  C_3
REMARK    3  A    between atoms: C_3  and  N_4
REMARK    4  A    between atoms: N_7  and  C_8
REMARK    5  A    between atoms: C_8  and  C_9
REMARK    6  A    between atoms: C_9  and  C_10
REMARK    7  A    between atoms: C_10  and  C_11
REMARK    8  A    between atoms: C_11  and  O_12
REMARK    9  A    between atoms: O_12  and  C_13
REMARK   10  A    between atoms: C_18  and  C_19
REMARK   11  A    between atoms: C_20  and  C_21
REMARK                            x       y       z     vdW  Elec       q    Type
REMARK                         _______ _______ _______ _____ _____    ______ ____
ROOT
ATOM      1  O   UNL     1       1.844   5.941  18.747  0.00  0.00    +0.000 OA
ENDROOT
BRANCH   1   2
ATOM      2  C   UNL     1       2.100   4.835  19.527  0.00  0.00    +0.000 A 
ATOM      3  C   UNL     1       1.203   4.365  20.502  0.00  0.00    +0.000 A 
ATOM      4  C   UNL     1       1.508   3.244  21.275  0.00  0.00    +0.000 A 
ATOM      5  C   UNL     1       2.701   2.575  21.096  0.00  0.00    +0.000 A 
ATOM      6  C   UNL     1       3.608   3.028  20.131  0.00  0.00    +0.000 A 
ATOM      7  C   UNL     1       3.328   4.158  19.341  0.00  0.00    +0.000 A 
BRANCH   7   8
ATOM      8  C   UNL     1       4.301   4.444  18.266  0.00  0.00    +0.000 C 
ATOM      9  C   UNL     1       4.152   4.144  16.967  0.00  0.00    +0.000 C 
BRANCH   9  10
ATOM     10  C   UNL     1       5.226   4.267  15.964  0.00  0.00    +0.000 A 
ATOM     11  C   UNL     1       6.396   4.940  16.341  0.00  0.00    +0.000 A 
ATOM     12  C   UNL     1       7.416   5.181  15.416  0.00  0.00    +0.000 A 
ATOM     13  C   UNL     1       7.280   4.744  14.102  0.00  0.00    +0.000 A 
ATOM     14  C   UNL     1       6.140   4.042  13.720  0.00  0.00    +0.000 A 
ATOM     15  C   UNL     1       5.124   3.792  14.649  0.00  0.00    +0.000 A 
ENDBRANCH   9  10
ENDBRANCH   7   8
ENDBRANCH   1   2
BRANCH   1  16
ATOM     16  C   UNL     1       2.331   7.202  19.216  0.00  0.00    +0.000 C 
BRANCH  16  17
ATOM     17  C   UNL     1       2.595   8.101  18.011  0.00  0.00    +0.000 C 
BRANCH  17  18
ATOM     18  C   UNL     1       1.448   9.093  17.802  0.00  0.00    +0.000 C 
BRANCH  18  19
ATOM     19  C   UNL     1       1.182   9.913  19.072  0.00  0.00    +0.000 C 
BRANCH  19  23
ATOM     20  N   UNL     1      -1.295  12.649  19.894  0.00  0.00    +0.000 NA
ATOM     21  C   UNL     1      -0.340  12.037  20.845  0.00  0.00    +0.000 C 
ATOM     22  C   UNL     1      -0.345  10.484  20.875  0.00  0.00    +0.000 C 
ATOM     23  N   UNL     1      -0.210   9.832  19.549  0.00  0.00    +0.000 NA
ATOM     24  C   UNL     1      -1.186  10.452  18.626  0.00  0.00    +0.000 C 
ATOM     25  C   UNL     1      -1.114  11.997  18.575  0.00  0.00    +0.000 C 
BRANCH  20  26
ATOM     26  C   UNL     1      -2.702  12.526  20.328  0.00  0.00    +0.000 C 
BRANCH  26  27
ATOM     27  C   UNL     1      -2.944  12.800  21.817  0.00  0.00    +0.000 C 
BRANCH  27  28
ATOM     28  O   UNL     1      -4.258  12.372  22.169  0.00  0.00    +0.000 OA
ATOM     29  H   UNL     1      -4.797  12.434  21.361  0.00  0.00    +0.000 HD
ENDBRANCH  27  28
ENDBRANCH  26  27
ENDBRANCH  20  26
ENDBRANCH  19  23
ENDBRANCH  18  19
ENDBRANCH  17  18
ENDBRANCH  16  17
ENDBRANCH   1  16
TORSDOF 11
ENDMDL
