MODEL 1
REMARK VINA RESULT:      -7.2      0.000      0.000
REMARK  Name = 
REMARK  4 active torsions:
REMARK  status: ('A' for Active; 'I' for Inactive)
REMARK    1  A    between atoms: O_1  and  C_2
REMARK    2  A    between atoms: C_10  and  C_11
REMARK    3  A    between atoms: C_11  and  N_12
REMARK    4  A    between atoms: N_12  and  C_13
REMARK                            x       y       z     vdW  Elec       q    Type
REMARK                         _______ _______ _______ _____ _____    ______ ____
ROOT
ATOM      1  C   UNL     1       3.750   2.876  18.121  0.00  0.00    +0.000 A 
ATOM      2  C   UNL     1       2.993   2.916  19.306  0.00  0.00    +0.000 A 
ATOM      3  C   UNL     1       2.503   4.158  19.746  0.00  0.00    +0.000 A 
ATOM      4  C   UNL     1       1.738   4.619  20.851  0.00  0.00    +0.000 A 
ATOM      5  C   UNL     1       1.605   5.979  20.691  0.00  0.00    +0.000 A 
ATOM      6  O   UNL     1       2.228   6.390  19.557  0.00  0.00    +0.000 OA
ATOM      7  C   UNL     1       2.776   5.284  18.981  0.00  0.00    +0.000 A 
ATOM      8  C   UNL     1       3.515   5.268  17.798  0.00  0.00    +0.000 A 
ATOM      9  C   UNL     1       4.033   4.028  17.370  0.00  0.00    +0.000 A 
ENDROOT
BRANCH   1  10
ATOM     10  O   UNL     1       4.234   1.672  17.683  0.00  0.00    +0.000 OA
ATOM     11  H   UNL     1       3.494   1.044  17.603  0.00  0.00    +0.000 HD
ENDBRANCH   1  10
BRANCH   9  12
ATOM     12  C   UNL     1       4.872   3.991  16.104  0.00  0.00    +0.000 C 
BRANCH  12  13
ATOM     13  N   UNL     1       6.282   3.841  16.446  0.00  0.00    +0.000 N 
ATOM     14  H   UNL     1       6.436   2.942  16.897  0.00  0.00    +0.000 HD
BRANCH  13  15
ATOM     15  C   UNL     1       6.936   4.868  17.147  0.00  0.00    +0.000 A 
ATOM     16  C   UNL     1       6.912   6.163  16.607  0.00  0.00    +0.000 A 
ATOM     17  C   UNL     1       7.468   7.254  17.283  0.00  0.00    +0.000 A 
ATOM     18  C   UNL     1       8.033   7.076  18.541  0.00  0.00    +0.000 A 
ATOM     19  C   UNL     1       8.031   5.808  19.116  0.00  0.00    +0.000 A 
ATOM     20  C   UNL     1       7.478   4.717  18.430  0.00  0.00    +0.000 A 
ENDBRANCH  13  15
ENDBRANCH  12  13
ENDBRANCH   9  12
TORSDOF 4
ENDMDL
MODEL 2
REMARK VINA RESULT:      -7.2      2.021      5.325
REMARK  Name = 
REMARK  4 active torsions:
REMARK  status: ('A' for Active; 'I' for Inactive)
REMARK    1  A    between atoms: O_1  and  C_2
REMARK    2  A    between atoms: C_10  and  C_11
REMARK    3  A    between atoms: C_11  and  N_12
REMARK    4  A    between atoms: N_12  and  C_13
REMARK                            x       y       z     vdW  Elec       q    Type
REMARK                         _______ _______ _______ _____ _____    ______ ____
ROOT
ATOM      1  C   UNL     1       5.706   4.290  18.513  0.00  0.00    +0.000 A 
ATOM      2  C   UNL     1       6.813   5.020  18.984  0.00  0.00    +0.000 A 
ATOM      3  C   UNL     1       7.130   6.236  18.354  0.00  0.00    +0.000 A 
ATOM      4  C   UNL     1       8.131   7.232  18.507  0.00  0.00    +0.000 A 
ATOM      5  C   UNL     1       7.877   8.188  17.549  0.00  0.00    +0.000 A 
ATOM      6  O   UNL     1       6.781   7.855  16.820  0.00  0.00    +0.000 OA
ATOM      7  C   UNL     1       6.326   6.668  17.307  0.00  0.00    +0.000 A 
ATOM      8  C   UNL     1       5.218   5.967  16.830  0.00  0.00    +0.000 A 
ATOM      9  C   UNL     1       4.915   4.732  17.441  0.00  0.00    +0.000 A 
ENDROOT
BRANCH   1  10
ATOM     10  O   UNL     1       5.388   3.103  19.119  0.00  0.00    +0.000 OA
ATOM     11  H   UNL     1       5.463   2.386  18.466  0.00  0.00    +0.000 HD
ENDBRANCH   1  10
BRANCH   9  12
ATOM     12  C   UNL     1       3.735   3.933  16.915  0.00  0.00    +0.000 C 
BRANCH  12  13
ATOM     13  N   UNL     1       2.493   4.452  17.477  0.00  0.00    +0.000 N 
ATOM     14  H   UNL     1       2.435   5.456  17.323  0.00  0.00    +0.000 HD
BRANCH  13  15
ATOM     15  C   UNL     1       2.147   4.132  18.800  0.00  0.00    +0.000 A 
ATOM     16  C   UNL     1       1.768   2.811  19.088  0.00  0.00    +0.000 A 
ATOM     17  C   UNL     1       1.488   2.392  20.394  0.00  0.00    +0.000 A 
ATOM     18  C   UNL     1       1.618   3.285  21.451  0.00  0.00    +0.000 A 
ATOM     19  C   UNL     1       2.032   4.590  21.195  0.00  0.00    +0.000 A 
ATOM     20  C   UNL     1       2.305   5.006  19.884  0.00  0.00    +0.000 A 
ENDBRANCH  13  15
ENDBRANCH  12  13
ENDBRANCH   9  12
TORSDOF 4
ENDMDL
MODEL 3
REMARK VINA RESULT:      -7.1      1.137      2.103
REMARK  Name = 
REMARK  4 active torsions:
REMARK  status: ('A' for Active; 'I' for Inactive)
REMARK    1  A    between atoms: O_1  and  C_2
REMARK    2  A    between atoms: C_10  and  C_11
REMARK    3  A    between atoms: C_11  and  N_12
REMARK    4  A    between atoms: N_12  and  C_13
REMARK                            x       y       z     vdW  Elec       q    Type
REMARK                         _______ _______ _______ _____ _____    ______ ____
ROOT
ATOM      1  C   UNL     1       3.361   5.538  17.794  0.00  0.00    +0.000 A 
ATOM      2  C   UNL     1       2.466   5.619  18.877  0.00  0.00    +0.000 A 
ATOM      3  C   UNL     1       2.072   4.427  19.509  0.00  0.00    +0.000 A 
ATOM      4  C   UNL     1       1.212   4.080  20.585  0.00  0.00    +0.000 A 
ATOM      5  C   UNL     1       1.263   2.709  20.698  0.00  0.00    +0.000 A 
ATOM      6  O   UNL     1       2.103   2.185  19.769  0.00  0.00    +0.000 OA
ATOM      7  C   UNL     1       2.595   3.228  19.045  0.00  0.00    +0.000 A 
ATOM      8  C   UNL     1       3.491   3.124  17.980  0.00  0.00    +0.000 A 
ATOM      9  C   UNL     1       3.865   4.315  17.325  0.00  0.00    +0.000 A 
ENDROOT
BRANCH   1  10
ATOM     10  O   UNL     1       3.752   6.693  17.169  0.00  0.00    +0.000 OA
ATOM     11  H   UNL     1       3.119   7.399  17.387  0.00  0.00    +0.000 HD
ENDBRANCH   1  10
BRANCH   9  12
ATOM     12  C   UNL     1       4.811   4.224  16.139  0.00  0.00    +0.000 C 
BRANCH  12  13
ATOM     13  N   UNL     1       6.166   3.949  16.605  0.00  0.00    +0.000 N 
ATOM     14  H   UNL     1       6.182   3.079  17.132  0.00  0.00    +0.000 HD
BRANCH  13  15
ATOM     15  C   UNL     1       6.882   4.952  17.279  0.00  0.00    +0.000 A 
ATOM     16  C   UNL     1       6.964   6.223  16.690  0.00  0.00    +0.000 A 
ATOM     17  C   UNL     1       7.587   7.297  17.335  0.00  0.00    +0.000 A 
ATOM     18  C   UNL     1       8.115   7.128  18.610  0.00  0.00    +0.000 A 
ATOM     19  C   UNL     1       8.010   5.887  19.232  0.00  0.00    +0.000 A 
ATOM     20  C   UNL     1       7.389   4.813  18.578  0.00  0.00    +0.000 A 
ENDBRANCH  13  15
ENDBRANCH  12  13
ENDBRANCH   9  12
TORSDOF 4
ENDMDL
MODEL 4
REMARK VINA RESULT:      -7.0      2.033      5.385
REMARK  Name = 
REMARK  4 active torsions:
REMARK  status: ('A' for Active; 'I' for Inactive)
REMARK    1  A    between atoms: O_1  and  C_2
REMARK    2  A    between atoms: C_10  and  C_11
REMARK    3  A    between atoms: C_11  and  N_12
REMARK    4  A    between atoms: N_12  and  C_13
REMARK                            x       y       z     vdW  Elec       q    Type
REMARK                         _______ _______ _______ _____ _____    ______ ____
ROOT
ATOM      1  C   UNL     1       5.882   4.416  18.473  0.00  0.00    +0.000 A 
ATOM      2  C   UNL     1       6.965   5.161  18.974  0.00  0.00    +0.000 A 
ATOM      3  C   UNL     1       7.267   6.393  18.367  0.00  0.00    +0.000 A 
ATOM      4  C   UNL     1       8.243   7.408  18.551  0.00  0.00    +0.000 A 
ATOM      5  C   UNL     1       7.987   8.371  17.602  0.00  0.00    +0.000 A 
ATOM      6  O   UNL     1       6.912   8.025  16.849  0.00  0.00    +0.000 OA
ATOM      7  C   UNL     1       6.473   6.822  17.312  0.00  0.00    +0.000 A 
ATOM      8  C   UNL     1       5.389   6.105  16.805  0.00  0.00    +0.000 A 
ATOM      9  C   UNL     1       5.102   4.855  17.392  0.00  0.00    +0.000 A 
ENDROOT
BRANCH   1  10
ATOM     10  O   UNL     1       5.578   3.214  19.056  0.00  0.00    +0.000 OA
ATOM     11  H   UNL     1       4.942   3.365  19.777  0.00  0.00    +0.000 HD
ENDBRANCH   1  10
BRANCH   9  12
ATOM     12  C   UNL     1       3.948   4.040  16.834  0.00  0.00    +0.000 C 
BRANCH  12  13
ATOM     13  N   UNL     1       2.690   4.498  17.412  0.00  0.00    +0.000 N 
ATOM     14  H   UNL     1       2.647   5.514  17.388  0.00  0.00    +0.000 HD
BRANCH  13  15
ATOM     15  C   UNL     1       2.288   4.012  18.667  0.00  0.00    +0.000 A 
ATOM     16  C   UNL     1       2.384   4.868  19.775  0.00  0.00    +0.000 A 
ATOM     17  C   UNL     1       1.929   4.488  21.042  0.00  0.00    +0.000 A 
ATOM     18  C   UNL     1       1.331   3.246  21.220  0.00  0.00    +0.000 A 
ATOM     19  C   UNL     1       1.187   2.395  20.128  0.00  0.00    +0.000 A 
ATOM     20  C   UNL     1       1.651   2.779  18.861  0.00  0.00    +0.000 A 
ENDBRANCH  13  15
ENDBRANCH  12  13
ENDBRANCH   9  12
TORSDOF 4
ENDMDL
MODEL 5
REMARK VINA RESULT:      -7.0      0.264      1.161
REMARK  Name = 
REMARK  4 active torsions:
REMARK  status: ('A' for Active; 'I' for Inactive)
REMARK    1  A    between atoms: O_1  and  C_2
REMARK    2  A    between atoms: C_10  and  C_11
REMARK    3  A    between atoms: C_11  and  N_12
REMARK    4  A    between atoms: N_12  and  C_13
REMARK                            x       y       z     vdW  Elec       q    Type
REMARK                         _______ _______ _______ _____ _____    ______ ____
ROOT
ATOM      1  C   UNL     1       3.732   2.641  18.132  0.00  0.00    +0.000 A 
ATOM      2  C   UNL     1       2.965   2.604  19.310  0.00  0.00    +0.000 A 
ATOM      3  C   UNL     1       2.429   3.808  19.798  0.00  0.00    +0.000 A 
ATOM      4  C   UNL     1       1.640   4.194  20.914  0.00  0.00    +0.000 A 
ATOM      5  C   UNL     1       1.461   5.555  20.812  0.00  0.00    +0.000 A 
ATOM      6  O   UNL     1       2.079   6.036  19.703  0.00  0.00    +0.000 OA
ATOM      7  C   UNL     1       2.668   4.975  19.085  0.00  0.00    +0.000 A 
ATOM      8  C   UNL     1       3.417   5.036  17.910  0.00  0.00    +0.000 A 
ATOM      9  C   UNL     1       3.982   3.834  17.434  0.00  0.00    +0.000 A 
ENDROOT
BRANCH   1  10
ATOM     10  O   UNL     1       4.261   1.474  17.647  0.00  0.00    +0.000 OA
ATOM     11  H   UNL     1       4.103   1.430  16.688  0.00  0.00    +0.000 HD
ENDBRANCH   1  10
BRANCH   9  12
ATOM     12  C   UNL     1       4.832   3.880  16.176  0.00  0.00    +0.000 C 
BRANCH  12  13
ATOM     13  N   UNL     1       6.247   3.888  16.532  0.00  0.00    +0.000 N 
ATOM     14  H   UNL     1       6.488   3.025  17.014  0.00  0.00    +0.000 HD
BRANCH  13  15
ATOM     15  C   UNL     1       6.784   5.000  17.201  0.00  0.00    +0.000 A 
ATOM     16  C   UNL     1       7.399   4.794  18.446  0.00  0.00    +0.000 A 
ATOM     17  C   UNL     1       8.030   5.834  19.138  0.00  0.00    +0.000 A 
ATOM     18  C   UNL     1       8.090   7.104  18.576  0.00  0.00    +0.000 A 
ATOM     19  C   UNL     1       7.524   7.323  17.323  0.00  0.00    +0.000 A 
ATOM     20  C   UNL     1       6.887   6.278  16.637  0.00  0.00    +0.000 A 
ENDBRANCH  13  15
ENDBRANCH  12  13
ENDBRANCH   9  12
TORSDOF 4
ENDMDL
MODEL 6
REMARK VINA RESULT:      -6.9      1.141      2.399
REMARK  Name = 
REMARK  4 active torsions:
REMARK  status: ('A' for Active; 'I' for Inactive)
REMARK    1  A    between atoms: O_1  and  C_2
REMARK    2  A    between atoms: C_10  and  C_11
REMARK    3  A    between atoms: C_11  and  N_12
REMARK    4  A    between atoms: N_12  and  C_13
REMARK                            x       y       z     vdW  Elec       q    Type
REMARK                         _______ _______ _______ _____ _____    ______ ____
ROOT
ATOM      1  C   UNL     1       3.281   5.482  17.906  0.00  0.00    +0.000 A 
ATOM      2  C   UNL     1       2.417   5.550  19.015  0.00  0.00    +0.000 A 
ATOM      3  C   UNL     1       2.049   4.352  19.650  0.00  0.00    +0.000 A 
ATOM      4  C   UNL     1       1.223   3.992  20.749  0.00  0.00    +0.000 A 
ATOM      5  C   UNL     1       1.285   2.621  20.851  0.00  0.00    +0.000 A 
ATOM      6  O   UNL     1       2.102   2.108  19.895  0.00  0.00    +0.000 OA
ATOM      7  C   UNL     1       2.566   3.158  19.164  0.00  0.00    +0.000 A 
ATOM      8  C   UNL     1       3.431   3.067  18.073  0.00  0.00    +0.000 A 
ATOM      9  C   UNL     1       3.780   4.265  17.415  0.00  0.00    +0.000 A 
ENDROOT
BRANCH   1  10
ATOM     10  O   UNL     1       3.647   6.643  17.278  0.00  0.00    +0.000 OA
ATOM     11  H   UNL     1       3.688   7.358  17.937  0.00  0.00    +0.000 HD
ENDBRANCH   1  10
BRANCH   9  12
ATOM     12  C   UNL     1       4.691   4.188  16.202  0.00  0.00    +0.000 C 
BRANCH  12  13
ATOM     13  N   UNL     1       6.080   4.057  16.632  0.00  0.00    +0.000 N 
ATOM     14  H   UNL     1       6.201   3.191  17.153  0.00  0.00    +0.000 HD
BRANCH  13  15
ATOM     15  C   UNL     1       6.701   5.128  17.295  0.00  0.00    +0.000 A 
ATOM     16  C   UNL     1       7.299   4.884  18.541  0.00  0.00    +0.000 A 
ATOM     17  C   UNL     1       8.009   5.876  19.226  0.00  0.00    +0.000 A 
ATOM     18  C   UNL     1       8.166   7.134  18.655  0.00  0.00    +0.000 A 
ATOM     19  C   UNL     1       7.618   7.388  17.401  0.00  0.00    +0.000 A 
ATOM     20  C   UNL     1       6.902   6.391  16.723  0.00  0.00    +0.000 A 
ENDBRANCH  13  15
ENDBRANCH  12  13
ENDBRANCH   9  12
TORSDOF 4
ENDMDL
MODEL 7
REMARK VINA RESULT:      -6.8      1.964      3.507
REMARK  Name = 
REMARK  4 active torsions:
REMARK  status: ('A' for Active; 'I' for Inactive)
REMARK    1  A    between atoms: O_1  and  C_2
REMARK    2  A    between atoms: C_10  and  C_11
REMARK    3  A    between atoms: C_11  and  N_12
REMARK    4  A    between atoms: N_12  and  C_13
REMARK                            x       y       z     vdW  Elec       q    Type
REMARK                         _______ _______ _______ _____ _____    ______ ____
ROOT
ATOM      1  C   UNL     1       2.263   6.270  19.811  0.00  0.00    +0.000 A 
ATOM      2  C   UNL     1       1.703   5.194  20.525  0.00  0.00    +0.000 A 
ATOM      3  C   UNL     1       1.403   4.012  19.826  0.00  0.00    +0.000 A 
ATOM      4  C   UNL     1       0.842   2.749  20.154  0.00  0.00    +0.000 A 
ATOM      5  C   UNL     1       0.815   2.020  18.986  0.00  0.00    +0.000 A 
ATOM      6  O   UNL     1       1.330   2.745  17.960  0.00  0.00    +0.000 OA
ATOM      7  C   UNL     1       1.687   3.956  18.468  0.00  0.00    +0.000 A 
ATOM      8  C   UNL     1       2.251   5.005  17.742  0.00  0.00    +0.000 A 
ATOM      9  C   UNL     1       2.526   6.204  18.434  0.00  0.00    +0.000 A 
ENDROOT
BRANCH   1  10
ATOM     10  O   UNL     1       2.559   7.427  20.482  0.00  0.00    +0.000 OA
ATOM     11  H   UNL     1       1.749   7.959  20.567  0.00  0.00    +0.000 HD
ENDBRANCH   1  10
BRANCH   9  12
ATOM     12  C   UNL     1       3.107   7.373  17.657  0.00  0.00    +0.000 C 
BRANCH  12  13
ATOM     13  N   UNL     1       4.554   7.420  17.838  0.00  0.00    +0.000 N 
ATOM     14  H   UNL     1       4.888   8.372  17.711  0.00  0.00    +0.000 HD
BRANCH  13  15
ATOM     15  C   UNL     1       5.366   6.509  17.143  0.00  0.00    +0.000 A 
ATOM     16  C   UNL     1       6.276   5.732  17.878  0.00  0.00    +0.000 A 
ATOM     17  C   UNL     1       7.061   4.746  17.271  0.00  0.00    +0.000 A 
ATOM     18  C   UNL     1       6.926   4.491  15.911  0.00  0.00    +0.000 A 
ATOM     19  C   UNL     1       6.001   5.220  15.169  0.00  0.00    +0.000 A 
ATOM     20  C   UNL     1       5.221   6.212  15.782  0.00  0.00    +0.000 A 
ENDBRANCH  13  15
ENDBRANCH  12  13
ENDBRANCH   9  12
TORSDOF 4
ENDMDL
MODEL 8
REMARK VINA RESULT:      -6.8      2.485      3.622
REMARK  Name = 
REMARK  4 active torsions:
REMARK  status: ('A' for Active; 'I' for Inactive)
REMARK    1  A    between atoms: O_1  and  C_2
REMARK    2  A    between atoms: C_10  and  C_11
REMARK    3  A    between atoms: C_11  and  N_12
REMARK    4  A    between atoms: N_12  and  C_13
REMARK                            x       y       z     vdW  Elec       q    Type
REMARK                         _______ _______ _______ _____ _____    ______ ____
ROOT
ATOM      1  C   UNL     1       5.929   4.486  18.264  0.00  0.00    +0.000 A 
ATOM      2  C   UNL     1       5.040   3.698  19.019  0.00  0.00    +0.000 A 
ATOM      3  C   UNL     1       3.660   3.908  18.861  0.00  0.00    +0.000 A 
ATOM      4  C   UNL     1       2.474   3.359  19.419  0.00  0.00    +0.000 A 
ATOM      5  C   UNL     1       1.423   4.022  18.828  0.00  0.00    +0.000 A 
ATOM      6  O   UNL     1       1.877   4.939  17.936  0.00  0.00    +0.000 OA
ATOM      7  C   UNL     1       3.237   4.872  17.955  0.00  0.00    +0.000 A 
ATOM      8  C   UNL     1       4.098   5.657  17.188  0.00  0.00    +0.000 A 
ATOM      9  C   UNL     1       5.485   5.470  17.367  0.00  0.00    +0.000 A 
ENDROOT
BRANCH   1  10
ATOM     10  O   UNL     1       7.277   4.291  18.410  0.00  0.00    +0.000 OA
ATOM     11  H   UNL     1       7.751   4.923  17.843  0.00  0.00    +0.000 HD
ENDBRANCH   1  10
BRANCH   9  12
ATOM     12  C   UNL     1       6.442   6.338  16.569  0.00  0.00    +0.000 C 
BRANCH  12  13
ATOM     13  N   UNL     1       7.387   5.497  15.841  0.00  0.00    +0.000 N 
ATOM     14  H   UNL     1       8.291   5.960  15.785  0.00  0.00    +0.000 HD
BRANCH  13  15
ATOM     15  C   UNL     1       7.021   4.967  14.593  0.00  0.00    +0.000 A 
ATOM     16  C   UNL     1       7.785   5.319  13.470  0.00  0.00    +0.000 A 
ATOM     17  C   UNL     1       7.536   4.770  12.207  0.00  0.00    +0.000 A 
ATOM     18  C   UNL     1       6.531   3.822  12.049  0.00  0.00    +0.000 A 
ATOM     19  C   UNL     1       5.787   3.426  13.157  0.00  0.00    +0.000 A 
ATOM     20  C   UNL     1       6.037   3.985  14.419  0.00  0.00    +0.000 A 
ENDBRANCH  13  15
ENDBRANCH  12  13
ENDBRANCH   9  12
TORSDOF 4
ENDMDL
MODEL 9
REMARK VINA RESULT:      -6.8      2.538      3.703
REMARK  Name = 
REMARK  4 active torsions:
REMARK  status: ('A' for Active; 'I' for Inactive)
REMARK    1  A    between atoms: O_1  and  C_2
REMARK    2  A    between atoms: C_10  and  C_11
REMARK    3  A    between atoms: C_11  and  N_12
REMARK    4  A    between atoms: N_12  and  C_13
REMARK                            x       y       z     vdW  Elec       q    Type
REMARK                         _______ _______ _______ _____ _____    ______ ____
ROOT
ATOM      1  C   UNL     1       5.274   4.172  18.579  0.00  0.00    +0.000 A 
ATOM      2  C   UNL     1       4.529   3.316  19.410  0.00  0.00    +0.000 A 
ATOM      3  C   UNL     1       3.189   3.056  19.074  0.00  0.00    +0.000 A 
ATOM      4  C   UNL     1       2.129   2.291  19.628  0.00  0.00    +0.000 A 
ATOM      5  C   UNL     1       1.045   2.468  18.798  0.00  0.00    +0.000 A 
ATOM      6  O   UNL     1       1.366   3.284  17.762  0.00  0.00    +0.000 OA
ATOM      7  C   UNL     1       2.669   3.643  17.928  0.00  0.00    +0.000 A 
ATOM      8  C   UNL     1       3.391   4.486  17.083  0.00  0.00    +0.000 A 
ATOM      9  C   UNL     1       4.727   4.774  17.435  0.00  0.00    +0.000 A 
ENDROOT
BRANCH   1  10
ATOM     10  O   UNL     1       6.580   4.434  18.897  0.00  0.00    +0.000 OA
ATOM     11  H   UNL     1       6.953   5.036  18.230  0.00  0.00    +0.000 HD
ENDBRANCH   1  10
BRANCH   9  12
ATOM     12  C   UNL     1       5.523   5.718  16.550  0.00  0.00    +0.000 C 
BRANCH  12  13
ATOM     13  N   UNL     1       6.736   5.057  16.082  0.00  0.00    +0.000 N 
ATOM     14  H   UNL     1       7.555   5.566  16.404  0.00  0.00    +0.000 HD
BRANCH  13  15
ATOM     15  C   UNL     1       6.860   4.722  14.723  0.00  0.00    +0.000 A 
ATOM     16  C   UNL     1       5.965   3.786  14.183  0.00  0.00    +0.000 A 
ATOM     17  C   UNL     1       5.970   3.461  12.822  0.00  0.00    +0.000 A 
ATOM     18  C   UNL     1       6.855   4.099  11.960  0.00  0.00    +0.000 A 
ATOM     19  C   UNL     1       7.724   5.062  12.465  0.00  0.00    +0.000 A 
ATOM     20  C   UNL     1       7.719   5.378  13.832  0.00  0.00    +0.000 A 
ENDBRANCH  13  15
ENDBRANCH  12  13
ENDBRANCH   9  12
TORSDOF 4
ENDMDL
