MODEL 1
REMARK VINA RESULT:      -8.6      0.000      0.000
REMARK  Name = 
REMARK  9 active torsions:
REMARK  status: ('A' for Active; 'I' for Inactive)
REMARK    1  A    between atoms: C_1  and  C_2
REMARK    2  A    between atoms: C_2  and  C_3
REMARK    3  A    between atoms: C_3  and  C_4
REMARK    4  A    between atoms: N_6  and  C_7
REMARK    5  A    between atoms: C_12  and  C_13
REMARK    6  A    between atoms: N_19  and  C_20
REMARK    7  A    between atoms: C_21  and  C_22
REMARK    8  A    between atoms: C_26  and  C_27
REMARK    9  A    between atoms: C_30  and  C_31
REMARK                            x       y       z     vdW  Elec       q    Type
REMARK                         _______ _______ _______ _____ _____    ______ ____
ROOT
ATOM      1  C   UNL     1       0.654  10.188  20.066  0.00  0.00    +0.000 C 
ATOM      2  C   UNL     1      -0.882  10.203  20.086  0.00  0.00    +0.000 C 
ATOM      3  N   UNL     1      -1.268  11.226  19.138  0.00  0.00    +0.000 N 
ATOM      4  C   UNL     1      -0.258  12.166  18.962  0.00  0.00    +0.000 C 
ATOM      5  O   UNL     1      -0.326  13.230  18.366  0.00  0.00    +0.000 OA
ATOM      6  C   UNL     1       1.021  11.635  19.602  0.00  0.00    +0.000 C 
ATOM      7  C   UNL     1       1.507  12.617  20.660  0.00  0.00    +0.000 C 
ENDROOT
BRANCH   3   8
ATOM      8  C   UNL     1      -2.549  11.266  18.514  0.00  0.00    +0.000 A 
ATOM      9  C   UNL     1      -3.617  11.983  19.110  0.00  0.00    +0.000 A 
ATOM     10  C   UNL     1      -3.560  12.735  20.408  0.00  0.00    +0.000 C 
ATOM     11  C   UNL     1      -4.828  12.156  18.407  0.00  0.00    +0.000 A 
ATOM     12  C   UNL     1      -5.025  11.592  17.158  0.00  0.00    +0.000 A 
ATOM     13  C   UNL     1      -4.016  10.824  16.599  0.00  0.00    +0.000 A 
ATOM     14  C   UNL     1      -2.786  10.641  17.263  0.00  0.00    +0.000 A 
ATOM     15  C   UNL     1      -1.810   9.691  16.613  0.00  0.00    +0.000 C 
ENDBRANCH   3   8
BRANCH   1  16
ATOM     16  C   UNL     1       1.218   9.167  19.035  0.00  0.00    +0.000 C 
ATOM     17  O   UNL     1       1.011   9.309  17.830  0.00  0.00    +0.000 OA
ATOM     18  N   UNL     1       1.877   8.065  19.548  0.00  0.00    +0.000 N 
ATOM     19  H   UNL     1       1.770   7.881  20.534  0.00  0.00    +0.000 HD
BRANCH  18  20
ATOM     20  C   UNL     1       2.496   7.049  18.782  0.00  0.00    +0.000 A 
ATOM     21  C   UNL     1       3.563   7.292  17.919  0.00  0.00    +0.000 A 
ATOM     22  C   UNL     1       4.141   6.246  17.200  0.00  0.00    +0.000 A 
ATOM     23 CL   UNL     1       5.452   6.567  16.132  0.00  0.00    +0.000 Cl
ATOM     24  C   UNL     1       3.674   4.943  17.341  0.00  0.00    +0.000 A 
ATOM     25  C   UNL     1       2.611   4.672  18.211  0.00  0.00    +0.000 A 
ATOM     26  C   UNL     1       2.030   5.734  18.926  0.00  0.00    +0.000 A 
BRANCH  25  27
ATOM     27  C   UNL     1       2.089   3.269  18.389  0.00  0.00    +0.000 C 
ATOM     28  F   UNL     1       2.583   2.383  17.480  0.00  0.00    +0.000 F 
ATOM     29  F   UNL     1       2.388   2.757  19.613  0.00  0.00    +0.000 F 
ATOM     30  F   UNL     1       0.733   3.203  18.277  0.00  0.00    +0.000 F 
ENDBRANCH  25  27
ENDBRANCH  18  20
ENDBRANCH   1  16
BRANCH   1  32
ATOM     31  C   UNL     1       0.223   9.476  22.559  0.00  0.00    +0.000 C 
ATOM     32  C   UNL     1       1.238   9.838  21.470  0.00  0.00    +0.000 C 
ENDBRANCH   1  32
TORSDOF 5
ENDMDL
MODEL 2
REMARK VINA RESULT:      -8.6      0.197      1.584
REMARK  Name = 
REMARK  9 active torsions:
REMARK  status: ('A' for Active; 'I' for Inactive)
REMARK    1  A    between atoms: C_1  and  C_2
REMARK    2  A    between atoms: C_2  and  C_3
REMARK    3  A    between atoms: C_3  and  C_4
REMARK    4  A    between atoms: N_6  and  C_7
REMARK    5  A    between atoms: C_12  and  C_13
REMARK    6  A    between atoms: N_19  and  C_20
REMARK    7  A    between atoms: C_21  and  C_22
REMARK    8  A    between atoms: C_26  and  C_27
REMARK    9  A    between atoms: C_30  and  C_31
REMARK                            x       y       z     vdW  Elec       q    Type
REMARK                         _______ _______ _______ _____ _____    ______ ____
ROOT
ATOM      1  C   UNL     1       0.702  10.172  20.145  0.00  0.00    +0.000 C 
ATOM      2  C   UNL     1      -0.833  10.223  20.177  0.00  0.00    +0.000 C 
ATOM      3  N   UNL     1      -1.203  11.259  19.237  0.00  0.00    +0.000 N 
ATOM      4  C   UNL     1      -0.173  12.176  19.057  0.00  0.00    +0.000 C 
ATOM      5  O   UNL     1      -0.220  13.244  18.466  0.00  0.00    +0.000 OA
ATOM      6  C   UNL     1       1.098  11.612  19.685  0.00  0.00    +0.000 C 
ATOM      7  C   UNL     1       1.616  12.578  20.743  0.00  0.00    +0.000 C 
ENDROOT
BRANCH   3   8
ATOM      8  C   UNL     1      -2.487  11.331  18.623  0.00  0.00    +0.000 A 
ATOM      9  C   UNL     1      -2.748  10.633  17.417  0.00  0.00    +0.000 A 
ATOM     10  C   UNL     1      -1.766   9.793  16.653  0.00  0.00    +0.000 C 
ATOM     11  C   UNL     1      -4.062  10.573  16.907  0.00  0.00    +0.000 A 
ATOM     12  C   UNL     1      -5.108  11.231  17.531  0.00  0.00    +0.000 A 
ATOM     13  C   UNL     1      -4.852  11.979  18.668  0.00  0.00    +0.000 A 
ATOM     14  C   UNL     1      -3.556  12.051  19.216  0.00  0.00    +0.000 A 
ATOM     15  C   UNL     1      -3.375  12.989  20.385  0.00  0.00    +0.000 C 
ENDBRANCH   3   8
BRANCH   1  16
ATOM     16  C   UNL     1       1.234   9.143  19.105  0.00  0.00    +0.000 C 
ATOM     17  O   UNL     1       1.008   9.287  17.904  0.00  0.00    +0.000 OA
ATOM     18  N   UNL     1       1.888   8.033  19.608  0.00  0.00    +0.000 N 
ATOM     19  H   UNL     1       1.796   7.851  20.596  0.00  0.00    +0.000 HD
BRANCH  18  20
ATOM     20  C   UNL     1       2.480   7.009  18.832  0.00  0.00    +0.000 A 
ATOM     21  C   UNL     1       3.521   7.241  17.935  0.00  0.00    +0.000 A 
ATOM     22  C   UNL     1       4.073   6.187  17.208  0.00  0.00    +0.000 A 
ATOM     23 CL   UNL     1       5.353   6.494  16.098  0.00  0.00    +0.000 Cl
ATOM     24  C   UNL     1       3.607   4.886  17.374  0.00  0.00    +0.000 A 
ATOM     25  C   UNL     1       2.570   4.627  18.278  0.00  0.00    +0.000 A 
ATOM     26  C   UNL     1       2.014   5.696  19.001  0.00  0.00    +0.000 A 
BRANCH  25  27
ATOM     27  C   UNL     1       2.049   3.227  18.483  0.00  0.00    +0.000 C 
ATOM     28  F   UNL     1       2.313   2.387  17.444  0.00  0.00    +0.000 F 
ATOM     29  F   UNL     1       2.578   2.635  19.588  0.00  0.00    +0.000 F 
ATOM     30  F   UNL     1       0.698   3.198  18.654  0.00  0.00    +0.000 F 
ENDBRANCH  25  27
ENDBRANCH  18  20
ENDBRANCH   1  16
BRANCH   1  32
ATOM     31  C   UNL     1       0.274   9.556  22.664  0.00  0.00    +0.000 C 
ATOM     32  C   UNL     1       1.288   9.803  21.543  0.00  0.00    +0.000 C 
ENDBRANCH   1  32
TORSDOF 5
ENDMDL
MODEL 3
REMARK VINA RESULT:      -8.5      2.019      2.486
REMARK  Name = 
REMARK  9 active torsions:
REMARK  status: ('A' for Active; 'I' for Inactive)
REMARK    1  A    between atoms: C_1  and  C_2
REMARK    2  A    between atoms: C_2  and  C_3
REMARK    3  A    between atoms: C_3  and  C_4
REMARK    4  A    between atoms: N_6  and  C_7
REMARK    5  A    between atoms: C_12  and  C_13
REMARK    6  A    between atoms: N_19  and  C_20
REMARK    7  A    between atoms: C_21  and  C_22
REMARK    8  A    between atoms: C_26  and  C_27
REMARK    9  A    between atoms: C_30  and  C_31
REMARK                            x       y       z     vdW  Elec       q    Type
REMARK                         _______ _______ _______ _____ _____    ______ ____
ROOT
ATOM      1  C   UNL     1       0.708  10.191  20.054  0.00  0.00    +0.000 C 
ATOM      2  C   UNL     1      -0.827  10.238  20.106  0.00  0.00    +0.000 C 
ATOM      3  N   UNL     1      -1.214  11.225  19.122  0.00  0.00    +0.000 N 
ATOM      4  C   UNL     1      -0.190  12.135  18.882  0.00  0.00    +0.000 C 
ATOM      5  O   UNL     1      -0.250  13.173  18.240  0.00  0.00    +0.000 OA
ATOM      6  C   UNL     1       1.092  11.607  19.518  0.00  0.00    +0.000 C 
ATOM      7  C   UNL     1       1.621  12.626  20.519  0.00  0.00    +0.000 C 
ENDROOT
BRANCH   3   8
ATOM      8  C   UNL     1      -2.508  11.263  18.524  0.00  0.00    +0.000 A 
ATOM      9  C   UNL     1      -3.563  11.981  19.140  0.00  0.00    +0.000 A 
ATOM     10  C   UNL     1      -3.480  12.737  20.435  0.00  0.00    +0.000 C 
ATOM     11  C   UNL     1      -4.788  12.153  18.462  0.00  0.00    +0.000 A 
ATOM     12  C   UNL     1      -5.011  11.585  17.219  0.00  0.00    +0.000 A 
ATOM     13  C   UNL     1      -4.013  10.816  16.640  0.00  0.00    +0.000 A 
ATOM     14  C   UNL     1      -2.770  10.635  17.280  0.00  0.00    +0.000 A 
ATOM     15  C   UNL     1      -1.807   9.684  16.612  0.00  0.00    +0.000 C 
ENDBRANCH   3   8
BRANCH   1  16
ATOM     16  C   UNL     1       1.229   9.113  19.058  0.00  0.00    +0.000 C 
ATOM     17  O   UNL     1       1.029   9.224  17.849  0.00  0.00    +0.000 OA
ATOM     18  N   UNL     1       1.840   8.001  19.609  0.00  0.00    +0.000 N 
ATOM     19  H   UNL     1       1.725   7.855  20.601  0.00  0.00    +0.000 HD
BRANCH  18  20
ATOM     20  C   UNL     1       2.416   6.936  18.879  0.00  0.00    +0.000 A 
ATOM     21  C   UNL     1       1.933   5.629  18.935  0.00  0.00    +0.000 A 
ATOM     22  C   UNL     1       2.535   4.622  18.180  0.00  0.00    +0.000 A 
ATOM     23 CL   UNL     1       1.930   3.013  18.269  0.00  0.00    +0.000 Cl
ATOM     24  C   UNL     1       3.615   4.904  17.350  0.00  0.00    +0.000 A 
ATOM     25  C   UNL     1       4.110   6.211  17.268  0.00  0.00    +0.000 A 
ATOM     26  C   UNL     1       3.502   7.219  18.037  0.00  0.00    +0.000 A 
BRANCH  25  27
ATOM     27  C   UNL     1       5.275   6.548  16.371  0.00  0.00    +0.000 C 
ATOM     28  F   UNL     1       6.159   7.420  16.930  0.00  0.00    +0.000 F 
ATOM     29  F   UNL     1       5.998   5.448  16.029  0.00  0.00    +0.000 F 
ATOM     30  F   UNL     1       4.878   7.115  15.199  0.00  0.00    +0.000 F 
ENDBRANCH  25  27
ENDBRANCH  18  20
ENDBRANCH   1  16
BRANCH   1  32
ATOM     31  C   UNL     1       0.323   9.540  22.571  0.00  0.00    +0.000 C 
ATOM     32  C   UNL     1       1.316   9.892  21.460  0.00  0.00    +0.000 C 
ENDBRANCH   1  32
TORSDOF 5
ENDMDL
MODEL 4
REMARK VINA RESULT:      -8.5      0.984      1.359
REMARK  Name = 
REMARK  9 active torsions:
REMARK  status: ('A' for Active; 'I' for Inactive)
REMARK    1  A    between atoms: C_1  and  C_2
REMARK    2  A    between atoms: C_2  and  C_3
REMARK    3  A    between atoms: C_3  and  C_4
REMARK    4  A    between atoms: N_6  and  C_7
REMARK    5  A    between atoms: C_12  and  C_13
REMARK    6  A    between atoms: N_19  and  C_20
REMARK    7  A    between atoms: C_21  and  C_22
REMARK    8  A    between atoms: C_26  and  C_27
REMARK    9  A    between atoms: C_30  and  C_31
REMARK                            x       y       z     vdW  Elec       q    Type
REMARK                         _______ _______ _______ _____ _____    ______ ____
ROOT
ATOM      1  C   UNL     1       0.471  10.464  20.486  0.00  0.00    +0.000 C 
ATOM      2  C   UNL     1      -1.063  10.534  20.429  0.00  0.00    +0.000 C 
ATOM      3  N   UNL     1      -1.366  11.399  19.309  0.00  0.00    +0.000 N 
ATOM      4  C   UNL     1      -0.311  12.261  19.029  0.00  0.00    +0.000 C 
ATOM      5  O   UNL     1      -0.310  13.212  18.263  0.00  0.00    +0.000 OA
ATOM      6  C   UNL     1       0.917  11.800  19.808  0.00  0.00    +0.000 C 
ATOM      7  C   UNL     1       1.400  12.927  20.711  0.00  0.00    +0.000 C 
ENDROOT
BRANCH   3   8
ATOM      8  C   UNL     1      -2.618  11.378  18.626  0.00  0.00    +0.000 A 
ATOM      9  C   UNL     1      -3.736  12.068  19.156  0.00  0.00    +0.000 A 
ATOM     10  C   UNL     1      -3.767  12.850  20.437  0.00  0.00    +0.000 C 
ATOM     11  C   UNL     1      -4.919  12.182  18.395  0.00  0.00    +0.000 A 
ATOM     12  C   UNL     1      -5.038  11.584  17.152  0.00  0.00    +0.000 A 
ATOM     13  C   UNL     1      -3.977  10.841  16.657  0.00  0.00    +0.000 A 
ATOM     14  C   UNL     1      -2.774  10.718  17.381  0.00  0.00    +0.000 A 
ATOM     15  C   UNL     1      -1.736   9.790  16.798  0.00  0.00    +0.000 C 
ENDBRANCH   3   8
BRANCH   1  16
ATOM     16  C   UNL     1       1.034   9.267  19.664  0.00  0.00    +0.000 C 
ATOM     17  O   UNL     1       1.011   9.281  18.434  0.00  0.00    +0.000 OA
ATOM     18  N   UNL     1       1.472   8.170  20.385  0.00  0.00    +0.000 N 
ATOM     19  H   UNL     1       1.210   8.122  21.358  0.00  0.00    +0.000 HD
BRANCH  18  20
ATOM     20  C   UNL     1       2.053   7.005  19.832  0.00  0.00    +0.000 A 
ATOM     21  C   UNL     1       2.893   7.029  18.720  0.00  0.00    +0.000 A 
ATOM     22  C   UNL     1       3.447   5.847  18.229  0.00  0.00    +0.000 A 
ATOM     23 CL   UNL     1       4.476   5.896  16.849  0.00  0.00    +0.000 Cl
ATOM     24  C   UNL     1       3.185   4.628  18.846  0.00  0.00    +0.000 A 
ATOM     25  C   UNL     1       2.354   4.580  19.972  0.00  0.00    +0.000 A 
ATOM     26  C   UNL     1       1.794   5.775  20.456  0.00  0.00    +0.000 A 
BRANCH  25  27
ATOM     27  C   UNL     1       2.058   3.274  20.665  0.00  0.00    +0.000 C 
ATOM     28  F   UNL     1       2.221   3.324  22.017  0.00  0.00    +0.000 F 
ATOM     29  F   UNL     1       0.780   2.856  20.456  0.00  0.00    +0.000 F 
ATOM     30  F   UNL     1       2.859   2.264  20.229  0.00  0.00    +0.000 F 
ENDBRANCH  25  27
ENDBRANCH  18  20
ENDBRANCH   1  16
BRANCH   1  32
ATOM     31  C   UNL     1      -0.050   9.889  22.996  0.00  0.00    +0.000 C 
ATOM     32  C   UNL     1       0.981  10.332  21.954  0.00  0.00    +0.000 C 
ENDBRANCH   1  32
TORSDOF 5
ENDMDL
MODEL 5
REMARK VINA RESULT:      -8.4      0.992      2.077
REMARK  Name = 
REMARK  9 active torsions:
REMARK  status: ('A' for Active; 'I' for Inactive)
REMARK    1  A    between atoms: C_1  and  C_2
REMARK    2  A    between atoms: C_2  and  C_3
REMARK    3  A    between atoms: C_3  and  C_4
REMARK    4  A    between atoms: N_6  and  C_7
REMARK    5  A    between atoms: C_12  and  C_13
REMARK    6  A    between atoms: N_19  and  C_20
REMARK    7  A    between atoms: C_21  and  C_22
REMARK    8  A    between atoms: C_26  and  C_27
REMARK    9  A    between atoms: C_30  and  C_31
REMARK                            x       y       z     vdW  Elec       q    Type
REMARK                         _______ _______ _______ _____ _____    ______ ____
ROOT
ATOM      1  C   UNL     1       0.603  10.311  20.570  0.00  0.00    +0.000 C 
ATOM      2  C   UNL     1      -0.927  10.442  20.523  0.00  0.00    +0.000 C 
ATOM      3  N   UNL     1      -1.202  11.337  19.421  0.00  0.00    +0.000 N 
ATOM      4  C   UNL     1      -0.116  12.163  19.150  0.00  0.00    +0.000 C 
ATOM      5  O   UNL     1      -0.082  13.128  18.402  0.00  0.00    +0.000 OA
ATOM      6  C   UNL     1       1.097  11.641  19.914  0.00  0.00    +0.000 C 
ATOM      7  C   UNL     1       1.628  12.732  20.835  0.00  0.00    +0.000 C 
ENDROOT
BRANCH   3   8
ATOM      8  C   UNL     1      -2.457  11.377  18.745  0.00  0.00    +0.000 A 
ATOM      9  C   UNL     1      -2.654  10.640  17.551  0.00  0.00    +0.000 A 
ATOM     10  C   UNL     1      -1.630   9.787  16.860  0.00  0.00    +0.000 C 
ATOM     11  C   UNL     1      -3.942  10.551  16.982  0.00  0.00    +0.000 A 
ATOM     12  C   UNL     1      -5.023  11.217  17.535  0.00  0.00    +0.000 A 
ATOM     13  C   UNL     1      -4.827  12.003  18.660  0.00  0.00    +0.000 A 
ATOM     14  C   UNL     1      -3.558  12.104  19.265  0.00  0.00    +0.000 A 
ATOM     15  C   UNL     1      -3.441  13.080  20.411  0.00  0.00    +0.000 C 
ENDBRANCH   3   8
BRANCH   1  16
ATOM     16  C   UNL     1       1.116   9.108  19.723  0.00  0.00    +0.000 C 
ATOM     17  O   UNL     1       1.037   9.123  18.495  0.00  0.00    +0.000 OA
ATOM     18  N   UNL     1       1.574   8.007  20.423  0.00  0.00    +0.000 N 
ATOM     19  H   UNL     1       1.357   7.961  21.407  0.00  0.00    +0.000 HD
BRANCH  18  20
ATOM     20  C   UNL     1       2.117   6.836  19.844  0.00  0.00    +0.000 A 
ATOM     21  C   UNL     1       2.949   6.857  18.725  0.00  0.00    +0.000 A 
ATOM     22  C   UNL     1       3.465   5.669  18.208  0.00  0.00    +0.000 A 
ATOM     23 CL   UNL     1       4.484   5.714  16.821  0.00  0.00    +0.000 Cl
ATOM     24  C   UNL     1       3.173   4.447  18.805  0.00  0.00    +0.000 A 
ATOM     25  C   UNL     1       2.349   4.401  19.936  0.00  0.00    +0.000 A 
ATOM     26  C   UNL     1       1.827   5.603  20.447  0.00  0.00    +0.000 A 
BRANCH  25  27
ATOM     27  C   UNL     1       2.021   3.092  20.608  0.00  0.00    +0.000 C 
ATOM     28  F   UNL     1       0.731   3.007  21.036  0.00  0.00    +0.000 F 
ATOM     29  F   UNL     1       2.214   2.026  19.785  0.00  0.00    +0.000 F 
ATOM     30  F   UNL     1       2.795   2.864  21.704  0.00  0.00    +0.000 F 
ENDBRANCH  25  27
ENDBRANCH  18  20
ENDBRANCH   1  16
BRANCH   1  32
ATOM     31  C   UNL     1       0.071   9.721  23.074  0.00  0.00    +0.000 C 
ATOM     32  C   UNL     1       1.115  10.133  22.033  0.00  0.00    +0.000 C 
ENDBRANCH   1  32
TORSDOF 5
ENDMDL
MODEL 6
REMARK VINA RESULT:      -8.4      2.027      2.962
REMARK  Name = 
REMARK  9 active torsions:
REMARK  status: ('A' for Active; 'I' for Inactive)
REMARK    1  A    between atoms: C_1  and  C_2
REMARK    2  A    between atoms: C_2  and  C_3
REMARK    3  A    between atoms: C_3  and  C_4
REMARK    4  A    between atoms: N_6  and  C_7
REMARK    5  A    between atoms: C_12  and  C_13
REMARK    6  A    between atoms: N_19  and  C_20
REMARK    7  A    between atoms: C_21  and  C_22
REMARK    8  A    between atoms: C_26  and  C_27
REMARK    9  A    between atoms: C_30  and  C_31
REMARK                            x       y       z     vdW  Elec       q    Type
REMARK                         _______ _______ _______ _____ _____    ______ ____
ROOT
ATOM      1  C   UNL     1       0.725  10.209  20.109  0.00  0.00    +0.000 C 
ATOM      2  C   UNL     1      -0.807  10.296  20.187  0.00  0.00    +0.000 C 
ATOM      3  N   UNL     1      -1.186  11.291  19.207  0.00  0.00    +0.000 N 
ATOM      4  C   UNL     1      -0.143  12.174  18.947  0.00  0.00    +0.000 C 
ATOM      5  O   UNL     1      -0.188  13.211  18.304  0.00  0.00    +0.000 OA
ATOM      6  C   UNL     1       1.136  11.615  19.563  0.00  0.00    +0.000 C 
ATOM      7  C   UNL     1       1.708  12.621  20.553  0.00  0.00    +0.000 C 
ENDROOT
BRANCH   3   8
ATOM      8  C   UNL     1      -2.488  11.361  18.632  0.00  0.00    +0.000 A 
ATOM      9  C   UNL     1      -2.785  10.655  17.439  0.00  0.00    +0.000 A 
ATOM     10  C   UNL     1      -1.828   9.808  16.651  0.00  0.00    +0.000 C 
ATOM     11  C   UNL     1      -4.115  10.593  16.969  0.00  0.00    +0.000 A 
ATOM     12  C   UNL     1      -5.141  11.257  17.620  0.00  0.00    +0.000 A 
ATOM     13  C   UNL     1      -4.850  12.012  18.744  0.00  0.00    +0.000 A 
ATOM     14  C   UNL     1      -3.537  12.086  19.252  0.00  0.00    +0.000 A 
ATOM     15  C   UNL     1      -3.320  13.031  20.408  0.00  0.00    +0.000 C 
ENDBRANCH   3   8
BRANCH   1  16
ATOM     16  C   UNL     1       1.201   9.117  19.107  0.00  0.00    +0.000 C 
ATOM     17  O   UNL     1       0.913   9.189  17.912  0.00  0.00    +0.000 OA
ATOM     18  N   UNL     1       1.877   8.035  19.641  0.00  0.00    +0.000 N 
ATOM     19  H   UNL     1       1.836   7.914  20.642  0.00  0.00    +0.000 HD
BRANCH  18  20
ATOM     20  C   UNL     1       2.426   6.963  18.900  0.00  0.00    +0.000 A 
ATOM     21  C   UNL     1       1.915   5.667  18.947  0.00  0.00    +0.000 A 
ATOM     22  C   UNL     1       2.491   4.654  18.182  0.00  0.00    +0.000 A 
ATOM     23 CL   UNL     1       1.852   3.057  18.260  0.00  0.00    +0.000 Cl
ATOM     24  C   UNL     1       3.574   4.919  17.349  0.00  0.00    +0.000 A 
ATOM     25  C   UNL     1       4.097   6.215  17.276  0.00  0.00    +0.000 A 
ATOM     26  C   UNL     1       3.515   7.229  18.056  0.00  0.00    +0.000 A 
BRANCH  25  27
ATOM     27  C   UNL     1       5.266   6.534  16.378  0.00  0.00    +0.000 C 
ATOM     28  F   UNL     1       6.022   5.446  16.059  0.00  0.00    +0.000 F 
ATOM     29  F   UNL     1       4.874   7.079  15.194  0.00  0.00    +0.000 F 
ATOM     30  F   UNL     1       6.120   7.432  16.939  0.00  0.00    +0.000 F 
ENDBRANCH  25  27
ENDBRANCH  18  20
ENDBRANCH   1  16
BRANCH   1  32
ATOM     31  C   UNL     1       0.377   9.450  22.601  0.00  0.00    +0.000 C 
ATOM     32  C   UNL     1       1.348   9.898  21.505  0.00  0.00    +0.000 C 
ENDBRANCH   1  32
TORSDOF 5
ENDMDL
MODEL 7
REMARK VINA RESULT:      -8.0      1.984      2.407
REMARK  Name = 
REMARK  9 active torsions:
REMARK  status: ('A' for Active; 'I' for Inactive)
REMARK    1  A    between atoms: C_1  and  C_2
REMARK    2  A    between atoms: C_2  and  C_3
REMARK    3  A    between atoms: C_3  and  C_4
REMARK    4  A    between atoms: N_6  and  C_7
REMARK    5  A    between atoms: C_12  and  C_13
REMARK    6  A    between atoms: N_19  and  C_20
REMARK    7  A    between atoms: C_21  and  C_22
REMARK    8  A    between atoms: C_26  and  C_27
REMARK    9  A    between atoms: C_30  and  C_31
REMARK                            x       y       z     vdW  Elec       q    Type
REMARK                         _______ _______ _______ _____ _____    ______ ____
ROOT
ATOM      1  C   UNL     1       0.454  10.394  20.523  0.00  0.00    +0.000 C 
ATOM      2  C   UNL     1      -1.079  10.469  20.446  0.00  0.00    +0.000 C 
ATOM      3  N   UNL     1      -1.365  11.333  19.321  0.00  0.00    +0.000 N 
ATOM      4  C   UNL     1      -0.305  12.192  19.054  0.00  0.00    +0.000 C 
ATOM      5  O   UNL     1      -0.291  13.143  18.288  0.00  0.00    +0.000 OA
ATOM      6  C   UNL     1       0.912  11.728  19.850  0.00  0.00    +0.000 C 
ATOM      7  C   UNL     1       1.386  12.855  20.759  0.00  0.00    +0.000 C 
ENDROOT
BRANCH   3   8
ATOM      8  C   UNL     1      -2.608  11.315  18.622  0.00  0.00    +0.000 A 
ATOM      9  C   UNL     1      -3.730  12.013  19.133  0.00  0.00    +0.000 A 
ATOM     10  C   UNL     1      -3.774  12.800  20.411  0.00  0.00    +0.000 C 
ATOM     11  C   UNL     1      -4.902  12.129  18.356  0.00  0.00    +0.000 A 
ATOM     12  C   UNL     1      -5.007  11.525  17.115  0.00  0.00    +0.000 A 
ATOM     13  C   UNL     1      -3.944  10.776  16.637  0.00  0.00    +0.000 A 
ATOM     14  C   UNL     1      -2.751  10.650  17.377  0.00  0.00    +0.000 A 
ATOM     15  C   UNL     1      -1.709   9.715  16.812  0.00  0.00    +0.000 C 
ENDBRANCH   3   8
BRANCH   1  16
ATOM     16  C   UNL     1       1.024   9.195  19.710  0.00  0.00    +0.000 C 
ATOM     17  O   UNL     1       1.046   9.221  18.479  0.00  0.00    +0.000 OA
ATOM     18  N   UNL     1       1.416   8.084  20.434  0.00  0.00    +0.000 N 
ATOM     19  H   UNL     1       1.119   8.031  21.397  0.00  0.00    +0.000 HD
BRANCH  18  20
ATOM     20  C   UNL     1       1.996   6.913  19.891  0.00  0.00    +0.000 A 
ATOM     21  C   UNL     1       1.641   5.629  20.301  0.00  0.00    +0.000 A 
ATOM     22  C   UNL     1       2.238   4.512  19.718  0.00  0.00    +0.000 A 
ATOM     23 CL   UNL     1       1.792   2.934  20.243  0.00  0.00    +0.000 Cl
ATOM     24  C   UNL     1       3.186   4.657  18.710  0.00  0.00    +0.000 A 
ATOM     25  C   UNL     1       3.551   5.936  18.273  0.00  0.00    +0.000 A 
ATOM     26  C   UNL     1       2.949   7.057  18.872  0.00  0.00    +0.000 A 
BRANCH  25  27
ATOM     27  C   UNL     1       4.570   6.124  17.179  0.00  0.00    +0.000 C 
ATOM     28  F   UNL     1       4.635   5.079  16.308  0.00  0.00    +0.000 F 
ATOM     29  F   UNL     1       4.321   7.227  16.422  0.00  0.00    +0.000 F 
ATOM     30  F   UNL     1       5.831   6.283  17.668  0.00  0.00    +0.000 F 
ENDBRANCH  25  27
ENDBRANCH  18  20
ENDBRANCH   1  16
BRANCH   1  32
ATOM     31  C   UNL     1      -0.119   9.898  23.039  0.00  0.00    +0.000 C 
ATOM     32  C   UNL     1       0.944  10.263  21.998  0.00  0.00    +0.000 C 
ENDBRANCH   1  32
TORSDOF 5
ENDMDL
MODEL 8
REMARK VINA RESULT:      -7.3      2.472      4.186
REMARK  Name = 
REMARK  9 active torsions:
REMARK  status: ('A' for Active; 'I' for Inactive)
REMARK    1  A    between atoms: C_1  and  C_2
REMARK    2  A    between atoms: C_2  and  C_3
REMARK    3  A    between atoms: C_3  and  C_4
REMARK    4  A    between atoms: N_6  and  C_7
REMARK    5  A    between atoms: C_12  and  C_13
REMARK    6  A    between atoms: N_19  and  C_20
REMARK    7  A    between atoms: C_21  and  C_22
REMARK    8  A    between atoms: C_26  and  C_27
REMARK    9  A    between atoms: C_30  and  C_31
REMARK                            x       y       z     vdW  Elec       q    Type
REMARK                         _______ _______ _______ _____ _____    ______ ____
ROOT
ATOM      1  C   UNL     1       0.207  11.056  19.313  0.00  0.00    +0.000 C 
ATOM      2  C   UNL     1       0.197  12.413  18.591  0.00  0.00    +0.000 C 
ATOM      3  N   UNL     1       1.169  13.226  19.289  0.00  0.00    +0.000 N 
ATOM      4  C   UNL     1       1.360  12.786  20.594  0.00  0.00    +0.000 C 
ATOM      5  O   UNL     1       1.980  13.345  21.486  0.00  0.00    +0.000 OA
ATOM      6  C   UNL     1       0.701  11.419  20.751  0.00  0.00    +0.000 C 
ATOM      7  C   UNL     1      -0.338  11.478  21.863  0.00  0.00    +0.000 C 
ENDROOT
BRANCH   3   8
ATOM      8  C   UNL     1       1.801  14.360  18.700  0.00  0.00    +0.000 A 
ATOM      9  C   UNL     1       1.146  15.617  18.680  0.00  0.00    +0.000 A 
ATOM     10  C   UNL     1      -0.224  15.909  19.219  0.00  0.00    +0.000 C 
ATOM     11  C   UNL     1       1.841  16.767  18.248  0.00  0.00    +0.000 A 
ATOM     12  C   UNL     1       3.145  16.691  17.787  0.00  0.00    +0.000 A 
ATOM     13  C   UNL     1       3.769  15.456  17.731  0.00  0.00    +0.000 A 
ATOM     14  C   UNL     1       3.113  14.287  18.168  0.00  0.00    +0.000 A 
ATOM     15  C   UNL     1       3.847  12.987  17.949  0.00  0.00    +0.000 C 
ENDBRANCH   3   8
BRANCH   1  16
ATOM     16  C   UNL     1       1.213  10.057  18.669  0.00  0.00    +0.000 C 
ATOM     17  O   UNL     1       1.818  10.349  17.638  0.00  0.00    +0.000 OA
ATOM     18  N   UNL     1       1.318   8.812  19.263  0.00  0.00    +0.000 N 
ATOM     19  H   UNL     1       0.603   8.555  19.926  0.00  0.00    +0.000 HD
BRANCH  18  20
ATOM     20  C   UNL     1       2.199   7.782  18.858  0.00  0.00    +0.000 A 
ATOM     21  C   UNL     1       3.096   7.922  17.800  0.00  0.00    +0.000 A 
ATOM     22  C   UNL     1       3.951   6.875  17.457  0.00  0.00    +0.000 A 
ATOM     23 CL   UNL     1       5.046   7.063  16.142  0.00  0.00    +0.000 Cl
ATOM     24  C   UNL     1       3.934   5.680  18.170  0.00  0.00    +0.000 A 
ATOM     25  C   UNL     1       3.050   5.520  19.244  0.00  0.00    +0.000 A 
ATOM     26  C   UNL     1       2.187   6.578  19.579  0.00  0.00    +0.000 A 
BRANCH  25  27
ATOM     27  C   UNL     1       3.015   4.239  20.039  0.00  0.00    +0.000 C 
ATOM     28  F   UNL     1       4.207   3.581  20.067  0.00  0.00    +0.000 F 
ATOM     29  F   UNL     1       2.670   4.447  21.339  0.00  0.00    +0.000 F 
ATOM     30  F   UNL     1       2.107   3.351  19.548  0.00  0.00    +0.000 F 
ENDBRANCH  25  27
ENDBRANCH  18  20
ENDBRANCH   1  16
BRANCH   1  32
ATOM     31  C   UNL     1      -1.828  10.127  17.935  0.00  0.00    +0.000 C 
ATOM     32  C   UNL     1      -1.207  10.398  19.308  0.00  0.00    +0.000 C 
ENDBRANCH   1  32
TORSDOF 5
ENDMDL
MODEL 9
REMARK VINA RESULT:      -7.3      2.324      4.087
REMARK  Name = 
REMARK  9 active torsions:
REMARK  status: ('A' for Active; 'I' for Inactive)
REMARK    1  A    between atoms: C_1  and  C_2
REMARK    2  A    between atoms: C_2  and  C_3
REMARK    3  A    between atoms: C_3  and  C_4
REMARK    4  A    between atoms: N_6  and  C_7
REMARK    5  A    between atoms: C_12  and  C_13
REMARK    6  A    between atoms: N_19  and  C_20
REMARK    7  A    between atoms: C_21  and  C_22
REMARK    8  A    between atoms: C_26  and  C_27
REMARK    9  A    between atoms: C_30  and  C_31
REMARK                            x       y       z     vdW  Elec       q    Type
REMARK                         _______ _______ _______ _____ _____    ______ ____
ROOT
ATOM      1  C   UNL     1       0.316  10.809  19.180  0.00  0.00    +0.000 C 
ATOM      2  C   UNL     1       0.219  12.204  18.542  0.00  0.00    +0.000 C 
ATOM      3  N   UNL     1       1.179  13.019  19.255  0.00  0.00    +0.000 N 
ATOM      4  C   UNL     1       1.436  12.512  20.524  0.00  0.00    +0.000 C 
ATOM      5  O   UNL     1       2.062  13.046  21.427  0.00  0.00    +0.000 OA
ATOM      6  C   UNL     1       0.845  11.109  20.620  0.00  0.00    +0.000 C 
ATOM      7  C   UNL     1      -0.155  11.055  21.768  0.00  0.00    +0.000 C 
ENDROOT
BRANCH   3   8
ATOM      8  C   UNL     1       1.739  14.214  18.715  0.00  0.00    +0.000 A 
ATOM      9  C   UNL     1       1.006  15.427  18.742  0.00  0.00    +0.000 A 
ATOM     10  C   UNL     1      -0.380  15.609  19.288  0.00  0.00    +0.000 C 
ATOM     11  C   UNL     1       1.628  16.634  18.360  0.00  0.00    +0.000 A 
ATOM     12  C   UNL     1       2.934  16.659  17.901  0.00  0.00    +0.000 A 
ATOM     13  C   UNL     1       3.636  15.469  17.798  0.00  0.00    +0.000 A 
ATOM     14  C   UNL     1       3.054  14.245  18.184  0.00  0.00    +0.000 A 
ATOM     15  C   UNL     1       3.869  13.003  17.916  0.00  0.00    +0.000 C 
ENDBRANCH   3   8
BRANCH   1  16
ATOM     16  C   UNL     1       1.341   9.897  18.444  0.00  0.00    +0.000 C 
ATOM     17  O   UNL     1       1.959  10.307  17.462  0.00  0.00    +0.000 OA
ATOM     18  N   UNL     1       1.449   8.594  18.896  0.00  0.00    +0.000 N 
ATOM     19  H   UNL     1       0.727   8.258  19.516  0.00  0.00    +0.000 HD
BRANCH  18  20
ATOM     20  C   UNL     1       2.347   7.623  18.393  0.00  0.00    +0.000 A 
ATOM     21  C   UNL     1       3.642   7.930  17.977  0.00  0.00    +0.000 A 
ATOM     22  C   UNL     1       4.486   6.926  17.503  0.00  0.00    +0.000 A 
ATOM     23 CL   UNL     1       6.079   7.325  16.986  0.00  0.00    +0.000 Cl
ATOM     24  C   UNL     1       4.058   5.603  17.448  0.00  0.00    +0.000 A 
ATOM     25  C   UNL     1       2.766   5.269  17.871  0.00  0.00    +0.000 A 
ATOM     26  C   UNL     1       1.919   6.288  18.342  0.00  0.00    +0.000 A 
BRANCH  25  27
ATOM     27  C   UNL     1       2.278   3.843  17.830  0.00  0.00    +0.000 C 
ATOM     28  F   UNL     1       0.931   3.722  17.994  0.00  0.00    +0.000 F 
ATOM     29  F   UNL     1       2.570   3.230  16.651  0.00  0.00    +0.000 F 
ATOM     30  F   UNL     1       2.844   3.075  18.802  0.00  0.00    +0.000 F 
ENDBRANCH  25  27
ENDBRANCH  18  20
ENDBRANCH   1  16
BRANCH   1  32
ATOM     31  C   UNL     1      -1.864  10.137  17.876  0.00  0.00    +0.000 C 
ATOM     32  C   UNL     1      -1.068  10.088  19.183  0.00  0.00    +0.000 C 
ENDBRANCH   1  32
TORSDOF 5
ENDMDL
