MODEL 1
REMARK VINA RESULT:      -8.1      0.000      0.000
REMARK  Name = 
REMARK  5 active torsions:
REMARK  status: ('A' for Active; 'I' for Inactive)
REMARK    1  A    between atoms: C_1  and  N_2
REMARK    2  A    between atoms: C_9  and  C_10
REMARK    3  A    between atoms: C_13  and  C_14
REMARK    4  A    between atoms: C_15  and  C_16
REMARK    5  A    between atoms: N_18  and  O_19
REMARK                            x       y       z     vdW  Elec       q    Type
REMARK                         _______ _______ _______ _____ _____    ______ ____
ROOT
ATOM      1  C   UNL     1       1.897   8.313  19.106  0.00  0.00    +0.000 A 
ATOM      2  C   UNL     1       2.459   8.549  17.845  0.00  0.00    +0.000 A 
ATOM      3  C   UNL     1       3.350   7.631  17.260  0.00  0.00    +0.000 A 
ATOM      4  C   UNL     1       3.703   6.434  17.907  0.00  0.00    +0.000 A 
ATOM      5  C   UNL     1       3.109   6.172  19.149  0.00  0.00    +0.000 A 
ATOM      6 CL   UNL     1       3.312   4.689  20.023  0.00  0.00    +0.000 Cl
ATOM      7  C   UNL     1       2.252   7.110  19.741  0.00  0.00    +0.000 A 
ENDROOT
BRANCH   1  16
ATOM      8  C   UNL     1      -4.993  13.505  23.667  0.00  0.00    +0.000 C 
ATOM      9  N   UNL     1      -3.722  13.465  22.946  0.00  0.00    +0.000 NA
ATOM     10  C   UNL     1      -3.922  12.941  21.568  0.00  0.00    +0.000 C 
ATOM     11  C   UNL     1      -2.595  12.739  20.783  0.00  0.00    +0.000 C 
ATOM     12  N   UNL     1      -1.740  11.869  21.590  0.00  0.00    +0.000 N 
ATOM     13  C   UNL     1      -0.814  11.053  20.976  0.00  0.00    +0.000 A 
ATOM     14  C   UNL     1      -0.428   9.892  21.635  0.00  0.00    +0.000 A 
ATOM     15  C   UNL     1       0.427   8.985  21.020  0.00  0.00    +0.000 A 
ATOM     16  C   UNL     1       0.946   9.245  19.748  0.00  0.00    +0.000 A 
ATOM     17  C   UNL     1       0.502  10.433  19.163  0.00  0.00    +0.000 A 
ATOM     18  N   UNL     1      -0.372  11.315  19.732  0.00  0.00    +0.000 NA
ATOM     19  C   UNL     1      -1.424  12.431  22.906  0.00  0.00    +0.000 C 
ATOM     20  C   UNL     1      -2.749  12.616  23.678  0.00  0.00    +0.000 C 
ENDBRANCH   1  16
BRANCH   4  21
ATOM     21  C   UNL     1       4.634   5.542  17.188  0.00  0.00    +0.000 C 
ATOM     22  C   UNL     1       5.324   5.891  16.088  0.00  0.00    +0.000 C 
BRANCH  22  23
ATOM     23  C   UNL     1       6.228   4.931  15.415  0.00  0.00    +0.000 C 
ATOM     24  O   UNL     1       7.393   4.740  15.747  0.00  0.00    +0.000 OA
ATOM     25  N   UNL     1       5.626   4.271  14.377  0.00  0.00    +0.000 N 
ATOM     26  H   UNL     1       4.686   4.429  14.041  0.00  0.00    +0.000 HD
BRANCH  25  27
ATOM     27  O   UNL     1       6.410   3.330  13.674  0.00  0.00    +0.000 OA
ATOM     28  H   UNL     1       7.231   3.296  14.211  0.00  0.00    +0.000 HD
ENDBRANCH  25  27
ENDBRANCH  22  23
ENDBRANCH   4  21
TORSDOF 4
ENDMDL
MODEL 2
REMARK VINA RESULT:      -8.0      5.547     10.845
REMARK  Name = 
REMARK  5 active torsions:
REMARK  status: ('A' for Active; 'I' for Inactive)
REMARK    1  A    between atoms: C_1  and  N_2
REMARK    2  A    between atoms: C_9  and  C_10
REMARK    3  A    between atoms: C_13  and  C_14
REMARK    4  A    between atoms: C_15  and  C_16
REMARK    5  A    between atoms: N_18  and  O_19
REMARK                            x       y       z     vdW  Elec       q    Type
REMARK                         _______ _______ _______ _____ _____    ______ ____
ROOT
ATOM      1  C   UNL     1       0.538   9.542  20.770  0.00  0.00    +0.000 A 
ATOM      2  C   UNL     1       0.117   9.195  22.060  0.00  0.00    +0.000 A 
ATOM      3  C   UNL     1      -0.722  10.042  22.805  0.00  0.00    +0.000 A 
ATOM      4  C   UNL     1      -1.185  11.263  22.286  0.00  0.00    +0.000 A 
ATOM      5  C   UNL     1      -0.802  11.594  20.978  0.00  0.00    +0.000 A 
ATOM      6 CL   UNL     1      -1.390  12.983  20.122  0.00  0.00    +0.000 Cl
ATOM      7  C   UNL     1       0.065  10.762  20.256  0.00  0.00    +0.000 A 
ENDROOT
BRANCH   1  16
ATOM      8  C   UNL     1       5.526   4.017  14.458  0.00  0.00    +0.000 C 
ATOM      9  N   UNL     1       5.412   4.613  15.788  0.00  0.00    +0.000 NA
ATOM     10  C   UNL     1       4.200   4.104  16.485  0.00  0.00    +0.000 C 
ATOM     11  C   UNL     1       3.936   4.795  17.852  0.00  0.00    +0.000 C 
ATOM     12  N   UNL     1       3.871   6.235  17.607  0.00  0.00    +0.000 N 
ATOM     13  C   UNL     1       3.105   7.039  18.423  0.00  0.00    +0.000 A 
ATOM     14  C   UNL     1       2.613   8.227  17.895  0.00  0.00    +0.000 A 
ATOM     15  C   UNL     1       1.756   9.027  18.642  0.00  0.00    +0.000 A 
ATOM     16  C   UNL     1       1.408   8.673  19.949  0.00  0.00    +0.000 A 
ATOM     17  C   UNL     1       1.947   7.464  20.393  0.00  0.00    +0.000 A 
ATOM     18  N   UNL     1       2.755   6.642  19.661  0.00  0.00    +0.000 NA
ATOM     19  C   UNL     1       5.108   6.780  17.040  0.00  0.00    +0.000 C 
ATOM     20  C   UNL     1       5.354   6.092  15.679  0.00  0.00    +0.000 C 
ENDBRANCH   1  16
BRANCH   4  21
ATOM     21  C   UNL     1      -2.073  12.060  23.155  0.00  0.00    +0.000 C 
ATOM     22  C   UNL     1      -3.388  12.236  22.941  0.00  0.00    +0.000 C 
BRANCH  22  23
ATOM     23  C   UNL     1      -4.209  13.065  23.853  0.00  0.00    +0.000 C 
ATOM     24  O   UNL     1      -3.758  13.975  24.539  0.00  0.00    +0.000 OA
ATOM     25  N   UNL     1      -5.531  12.710  23.848  0.00  0.00    +0.000 N 
ATOM     26  H   UNL     1      -5.936  11.940  23.334  0.00  0.00    +0.000 HD
BRANCH  25  27
ATOM     27  O   UNL     1      -6.396  13.449  24.687  0.00  0.00    +0.000 OA
ATOM     28  H   UNL     1      -6.065  14.367  24.574  0.00  0.00    +0.000 HD
ENDBRANCH  25  27
ENDBRANCH  22  23
ENDBRANCH   4  21
TORSDOF 4
ENDMDL
MODEL 3
REMARK VINA RESULT:      -7.9      1.401      1.967
REMARK  Name = 
REMARK  5 active torsions:
REMARK  status: ('A' for Active; 'I' for Inactive)
REMARK    1  A    between atoms: C_1  and  N_2
REMARK    2  A    between atoms: C_9  and  C_10
REMARK    3  A    between atoms: C_13  and  C_14
REMARK    4  A    between atoms: C_15  and  C_16
REMARK    5  A    between atoms: N_18  and  O_19
REMARK                            x       y       z     vdW  Elec       q    Type
REMARK                         _______ _______ _______ _____ _____    ______ ____
ROOT
ATOM      1  C   UNL     1       1.259   9.095  19.636  0.00  0.00    +0.000 A 
ATOM      2  C   UNL     1       1.744   9.291  18.336  0.00  0.00    +0.000 A 
ATOM      3  C   UNL     1       2.543   8.323  17.703  0.00  0.00    +0.000 A 
ATOM      4  C   UNL     1       2.879   7.115  18.338  0.00  0.00    +0.000 A 
ATOM      5  C   UNL     1       2.359   6.894  19.622  0.00  0.00    +0.000 A 
ATOM      6 CL   UNL     1       2.545   5.409  20.497  0.00  0.00    +0.000 Cl
ATOM      7  C   UNL     1       1.594   7.880  20.260  0.00  0.00    +0.000 A 
ENDROOT
BRANCH   1  16
ATOM      8  C   UNL     1      -4.252  16.286  23.263  0.00  0.00    +0.000 C 
ATOM      9  N   UNL     1      -3.698  14.939  23.396  0.00  0.00    +0.000 NA
ATOM     10  C   UNL     1      -2.211  14.991  23.447  0.00  0.00    +0.000 C 
ATOM     11  C   UNL     1      -1.543  13.588  23.450  0.00  0.00    +0.000 C 
ATOM     12  N   UNL     1      -2.033  12.870  22.274  0.00  0.00    +0.000 N 
ATOM     13  C   UNL     1      -1.246  11.908  21.678  0.00  0.00    +0.000 A 
ATOM     14  C   UNL     1      -1.444  11.647  20.327  0.00  0.00    +0.000 A 
ATOM     15  C   UNL     1      -0.614  10.759  19.653  0.00  0.00    +0.000 A 
ATOM     16  C   UNL     1       0.404  10.081  20.331  0.00  0.00    +0.000 A 
ATOM     17  C   UNL     1       0.529  10.406  21.682  0.00  0.00    +0.000 A 
ATOM     18  N   UNL     1      -0.247  11.309  22.353  0.00  0.00    +0.000 NA
ATOM     19  C   UNL     1      -3.488  12.693  22.271  0.00  0.00    +0.000 C 
ATOM     20  C   UNL     1      -4.139  14.095  22.259  0.00  0.00    +0.000 C 
ENDBRANCH   1  16
BRANCH   4  21
ATOM     21  C   UNL     1       3.711   6.169  17.568  0.00  0.00    +0.000 C 
ATOM     22  C   UNL     1       4.861   6.496  16.953  0.00  0.00    +0.000 C 
BRANCH  22  23
ATOM     23  C   UNL     1       5.631   5.491  16.184  0.00  0.00    +0.000 C 
ATOM     24  O   UNL     1       5.279   4.325  16.041  0.00  0.00    +0.000 OA
ATOM     25  N   UNL     1       6.781   6.000  15.646  0.00  0.00    +0.000 N 
ATOM     26  H   UNL     1       7.131   6.940  15.777  0.00  0.00    +0.000 HD
BRANCH  25  27
ATOM     27  O   UNL     1       7.583   5.116  14.891  0.00  0.00    +0.000 OA
ATOM     28  H   UNL     1       8.492   5.383  15.149  0.00  0.00    +0.000 HD
ENDBRANCH  25  27
ENDBRANCH  22  23
ENDBRANCH   4  21
TORSDOF 4
ENDMDL
MODEL 4
REMARK VINA RESULT:      -7.8      0.868      1.503
REMARK  Name = 
REMARK  5 active torsions:
REMARK  status: ('A' for Active; 'I' for Inactive)
REMARK    1  A    between atoms: C_1  and  N_2
REMARK    2  A    between atoms: C_9  and  C_10
REMARK    3  A    between atoms: C_13  and  C_14
REMARK    4  A    between atoms: C_15  and  C_16
REMARK    5  A    between atoms: N_18  and  O_19
REMARK                            x       y       z     vdW  Elec       q    Type
REMARK                         _______ _______ _______ _____ _____    ______ ____
ROOT
ATOM      1  C   UNL     1       1.914   8.398  19.110  0.00  0.00    +0.000 A 
ATOM      2  C   UNL     1       2.475   8.616  17.845  0.00  0.00    +0.000 A 
ATOM      3  C   UNL     1       3.325   7.667  17.251  0.00  0.00    +0.000 A 
ATOM      4  C   UNL     1       3.638   6.456  17.892  0.00  0.00    +0.000 A 
ATOM      5  C   UNL     1       3.043   6.213  19.138  0.00  0.00    +0.000 A 
ATOM      6 CL   UNL     1       3.197   4.720  20.006  0.00  0.00    +0.000 Cl
ATOM      7  C   UNL     1       2.227   7.181  19.739  0.00  0.00    +0.000 A 
ENDROOT
BRANCH   1  16
ATOM      8  C   UNL     1      -3.341  15.614  23.053  0.00  0.00    +0.000 C 
ATOM      9  N   UNL     1      -3.193  14.193  22.744  0.00  0.00    +0.000 NA
ATOM     10  C   UNL     1      -1.995  13.634  23.428  0.00  0.00    +0.000 C 
ATOM     11  C   UNL     1      -1.692  12.160  23.038  0.00  0.00    +0.000 C 
ATOM     12  N   UNL     1      -1.574  12.110  21.582  0.00  0.00    +0.000 N 
ATOM     13  C   UNL     1      -0.769  11.160  20.989  0.00  0.00    +0.000 A 
ATOM     14  C   UNL     1      -0.236  11.445  19.737  0.00  0.00    +0.000 A 
ATOM     15  C   UNL     1       0.658  10.566  19.137  0.00  0.00    +0.000 A 
ATOM     16  C   UNL     1       1.004   9.364  19.762  0.00  0.00    +0.000 A 
ATOM     17  C   UNL     1       0.422   9.164  21.015  0.00  0.00    +0.000 A 
ATOM     18  N   UNL     1      -0.424  10.035  21.642  0.00  0.00    +0.000 NA
ATOM     19  C   UNL     1      -2.793  12.533  20.889  0.00  0.00    +0.000 C 
ATOM     20  C   UNL     1      -3.077  14.002  21.277  0.00  0.00    +0.000 C 
ENDBRANCH   1  16
BRANCH   4  21
ATOM     21  C   UNL     1       4.530   5.531  17.164  0.00  0.00    +0.000 C 
ATOM     22  C   UNL     1       5.403   5.908  16.214  0.00  0.00    +0.000 C 
BRANCH  22  23
ATOM     23  C   UNL     1       6.252   4.915  15.517  0.00  0.00    +0.000 C 
ATOM     24  O   UNL     1       7.411   4.668  15.831  0.00  0.00    +0.000 OA
ATOM     25  N   UNL     1       5.606   4.296  14.481  0.00  0.00    +0.000 N 
ATOM     26  H   UNL     1       4.669   4.501  14.161  0.00  0.00    +0.000 HD
BRANCH  25  27
ATOM     27  O   UNL     1       6.336   3.328  13.757  0.00  0.00    +0.000 OA
ATOM     28  H   UNL     1       5.629   2.856  13.264  0.00  0.00    +0.000 HD
ENDBRANCH  25  27
ENDBRANCH  22  23
ENDBRANCH   4  21
TORSDOF 4
ENDMDL
MODEL 5
REMARK VINA RESULT:      -7.7      1.527      1.704
REMARK  Name = 
REMARK  5 active torsions:
REMARK  status: ('A' for Active; 'I' for Inactive)
REMARK    1  A    between atoms: C_1  and  N_2
REMARK    2  A    between atoms: C_9  and  C_10
REMARK    3  A    between atoms: C_13  and  C_14
REMARK    4  A    between atoms: C_15  and  C_16
REMARK    5  A    between atoms: N_18  and  O_19
REMARK                            x       y       z     vdW  Elec       q    Type
REMARK                         _______ _______ _______ _____ _____    ______ ____
ROOT
ATOM      1  C   UNL     1       1.191   9.021  19.541  0.00  0.00    +0.000 A 
ATOM      2  C   UNL     1       1.783   9.142  18.277  0.00  0.00    +0.000 A 
ATOM      3  C   UNL     1       2.637   8.145  17.774  0.00  0.00    +0.000 A 
ATOM      4  C   UNL     1       2.924   6.982  18.508  0.00  0.00    +0.000 A 
ATOM      5  C   UNL     1       2.299   6.835  19.755  0.00  0.00    +0.000 A 
ATOM      6 CL   UNL     1       2.418   5.408  20.733  0.00  0.00    +0.000 Cl
ATOM      7  C   UNL     1       1.478   7.850  20.265  0.00  0.00    +0.000 A 
ENDROOT
BRANCH   1  16
ATOM      8  C   UNL     1      -5.295  14.868  23.898  0.00  0.00    +0.000 C 
ATOM      9  N   UNL     1      -4.173  14.705  22.974  0.00  0.00    +0.000 NA
ATOM     10  C   UNL     1      -4.556  13.819  21.842  0.00  0.00    +0.000 C 
ATOM     11  C   UNL     1      -3.374  13.486  20.889  0.00  0.00    +0.000 C 
ATOM     12  N   UNL     1      -2.305  12.912  21.706  0.00  0.00    +0.000 N 
ATOM     13  C   UNL     1      -1.421  12.012  21.149  0.00  0.00    +0.000 A 
ATOM     14  C   UNL     1      -0.806  11.094  21.993  0.00  0.00    +0.000 A 
ATOM     15  C   UNL     1       0.018  10.103  21.473  0.00  0.00    +0.000 A 
ATOM     16  C   UNL     1       0.276  10.039  20.100  0.00  0.00    +0.000 A 
ATOM     17  C   UNL     1      -0.386  10.999  19.332  0.00  0.00    +0.000 A 
ATOM     18  N   UNL     1      -1.234  11.953  19.818  0.00  0.00    +0.000 NA
ATOM     19  C   UNL     1      -1.823  13.824  22.747  0.00  0.00    +0.000 C 
ATOM     20  C   UNL     1      -3.004  14.138  23.692  0.00  0.00    +0.000 C 
ENDBRANCH   1  16
BRANCH   4  21
ATOM     21  C   UNL     1       3.823   5.999  17.870  0.00  0.00    +0.000 C 
ATOM     22  C   UNL     1       5.118   5.837  18.188  0.00  0.00    +0.000 C 
BRANCH  22  23
ATOM     23  C   UNL     1       5.959   4.838  17.488  0.00  0.00    +0.000 C 
ATOM     24  O   UNL     1       5.519   4.005  16.704  0.00  0.00    +0.000 OA
ATOM     25  N   UNL     1       7.286   4.943  17.807  0.00  0.00    +0.000 N 
ATOM     26  H   UNL     1       7.685   5.583  18.481  0.00  0.00    +0.000 HD
BRANCH  25  27
ATOM     27  O   UNL     1       8.169   4.033  17.186  0.00  0.00    +0.000 OA
ATOM     28  H   UNL     1       8.458   3.471  17.938  0.00  0.00    +0.000 HD
ENDBRANCH  25  27
ENDBRANCH  22  23
ENDBRANCH   4  21
TORSDOF 4
ENDMDL
MODEL 6
REMARK VINA RESULT:      -7.5      5.743     10.874
REMARK  Name = 
REMARK  5 active torsions:
REMARK  status: ('A' for Active; 'I' for Inactive)
REMARK    1  A    between atoms: C_1  and  N_2
REMARK    2  A    between atoms: C_9  and  C_10
REMARK    3  A    between atoms: C_13  and  C_14
REMARK    4  A    between atoms: C_15  and  C_16
REMARK    5  A    between atoms: N_18  and  O_19
REMARK                            x       y       z     vdW  Elec       q    Type
REMARK                         _______ _______ _______ _____ _____    ______ ____
ROOT
ATOM      1  C   UNL     1       0.056  10.059  20.934  0.00  0.00    +0.000 A 
ATOM      2  C   UNL     1      -0.137   9.912  22.313  0.00  0.00    +0.000 A 
ATOM      3  C   UNL     1      -0.999  10.767  23.024  0.00  0.00    +0.000 A 
ATOM      4  C   UNL     1      -1.711  11.794  22.381  0.00  0.00    +0.000 A 
ATOM      5  C   UNL     1      -1.556  11.917  20.993  0.00  0.00    +0.000 A 
ATOM      6 CL   UNL     1      -2.460  13.025  20.015  0.00  0.00    +0.000 Cl
ATOM      7  C   UNL     1      -0.667  11.084  20.299  0.00  0.00    +0.000 A 
ENDROOT
BRANCH   1  16
ATOM      8  C   UNL     1       6.574   4.144  16.719  0.00  0.00    +0.000 C 
ATOM      9  N   UNL     1       5.308   4.872  16.647  0.00  0.00    +0.000 NA
ATOM     10  C   UNL     1       5.542   6.337  16.765  0.00  0.00    +0.000 C 
ATOM     11  C   UNL     1       4.232   7.169  16.835  0.00  0.00    +0.000 C 
ATOM     12  N   UNL     1       3.441   6.643  17.946  0.00  0.00    +0.000 N 
ATOM     13  C   UNL     1       2.573   7.471  18.626  0.00  0.00    +0.000 A 
ATOM     14  C   UNL     1       2.269   7.156  19.946  0.00  0.00    +0.000 A 
ATOM     15  C   UNL     1       1.478   8.008  20.708  0.00  0.00    +0.000 A 
ATOM     16  C   UNL     1       0.941   9.172  20.149  0.00  0.00    +0.000 A 
ATOM     17  C   UNL     1       1.300   9.406  18.820  0.00  0.00    +0.000 A 
ATOM     18  N   UNL     1       2.112   8.605  18.068  0.00  0.00    +0.000 NA
ATOM     19  C   UNL     1       3.087   5.230  17.784  0.00  0.00    +0.000 C 
ATOM     20  C   UNL     1       4.398   4.414  17.726  0.00  0.00    +0.000 C 
ENDBRANCH   1  16
BRANCH   4  21
ATOM     21  C   UNL     1      -2.596  12.618  23.229  0.00  0.00    +0.000 C 
ATOM     22  C   UNL     1      -2.279  13.835  23.700  0.00  0.00    +0.000 C 
BRANCH  22  23
ATOM     23  C   UNL     1      -3.218  14.593  24.559  0.00  0.00    +0.000 C 
ATOM     24  O   UNL     1      -2.967  14.933  25.710  0.00  0.00    +0.000 OA
ATOM     25  N   UNL     1      -4.401  14.877  23.932  0.00  0.00    +0.000 N 
ATOM     26  H   UNL     1      -4.667  14.578  23.004  0.00  0.00    +0.000 HD
BRANCH  25  27
ATOM     27  O   UNL     1      -5.361  15.601  24.673  0.00  0.00    +0.000 OA
ATOM     28  H   UNL     1      -4.853  15.873  25.469  0.00  0.00    +0.000 HD
ENDBRANCH  25  27
ENDBRANCH  22  23
ENDBRANCH   4  21
TORSDOF 4
ENDMDL
MODEL 7
REMARK VINA RESULT:      -7.4      1.449      1.699
REMARK  Name = 
REMARK  5 active torsions:
REMARK  status: ('A' for Active; 'I' for Inactive)
REMARK    1  A    between atoms: C_1  and  N_2
REMARK    2  A    between atoms: C_9  and  C_10
REMARK    3  A    between atoms: C_13  and  C_14
REMARK    4  A    between atoms: C_15  and  C_16
REMARK    5  A    between atoms: N_18  and  O_19
REMARK                            x       y       z     vdW  Elec       q    Type
REMARK                         _______ _______ _______ _____ _____    ______ ____
ROOT
ATOM      1  C   UNL     1       1.081   9.386  19.417  0.00  0.00    +0.000 A 
ATOM      2  C   UNL     1       1.675   9.504  18.154  0.00  0.00    +0.000 A 
ATOM      3  C   UNL     1       2.524   8.503  17.651  0.00  0.00    +0.000 A 
ATOM      4  C   UNL     1       2.803   7.338  18.385  0.00  0.00    +0.000 A 
ATOM      5  C   UNL     1       2.176   7.194  19.631  0.00  0.00    +0.000 A 
ATOM      6 CL   UNL     1       2.286   5.766  20.608  0.00  0.00    +0.000 Cl
ATOM      7  C   UNL     1       1.361   8.214  20.141  0.00  0.00    +0.000 A 
ENDROOT
BRANCH   1  16
ATOM      8  C   UNL     1      -4.903  15.507  24.104  0.00  0.00    +0.000 C 
ATOM      9  N   UNL     1      -4.132  15.175  22.906  0.00  0.00    +0.000 NA
ATOM     10  C   UNL     1      -4.626  13.906  22.306  0.00  0.00    +0.000 C 
ATOM     11  C   UNL     1      -3.767  13.415  21.107  0.00  0.00    +0.000 C 
ATOM     12  N   UNL     1      -2.386  13.307  21.575  0.00  0.00    +0.000 N 
ATOM     13  C   UNL     1      -1.534  12.390  20.998  0.00  0.00    +0.000 A 
ATOM     14  C   UNL     1      -0.473  11.915  21.760  0.00  0.00    +0.000 A 
ATOM     15  C   UNL     1       0.359  10.918  21.264  0.00  0.00    +0.000 A 
ATOM     16  C   UNL     1       0.170  10.409  19.975  0.00  0.00    +0.000 A 
ATOM     17  C   UNL     1      -0.918  10.945  19.285  0.00  0.00    +0.000 A 
ATOM     18  N   UNL     1      -1.774  11.892  19.771  0.00  0.00    +0.000 NA
ATOM     19  C   UNL     1      -1.838  14.580  22.050  0.00  0.00    +0.000 C 
ATOM     20  C   UNL     1      -2.693  15.052  23.247  0.00  0.00    +0.000 C 
ENDBRANCH   1  16
BRANCH   4  21
ATOM     21  C   UNL     1       3.697   6.350  17.748  0.00  0.00    +0.000 C 
ATOM     22  C   UNL     1       4.635   6.653  16.834  0.00  0.00    +0.000 C 
BRANCH  22  23
ATOM     23  C   UNL     1       5.482   5.601  16.228  0.00  0.00    +0.000 C 
ATOM     24  O   UNL     1       6.395   5.828  15.442  0.00  0.00    +0.000 OA
ATOM     25  N   UNL     1       5.142   4.341  16.641  0.00  0.00    +0.000 N 
ATOM     26  H   UNL     1       4.370   4.105  17.250  0.00  0.00    +0.000 HD
BRANCH  25  27
ATOM     27  O   UNL     1       5.898   3.269  16.118  0.00  0.00    +0.000 OA
ATOM     28  H   UNL     1       5.349   2.974  15.358  0.00  0.00    +0.000 HD
ENDBRANCH  25  27
ENDBRANCH  22  23
ENDBRANCH   4  21
TORSDOF 4
ENDMDL
MODEL 8
REMARK VINA RESULT:      -7.4      2.789      3.441
REMARK  Name = 
REMARK  5 active torsions:
REMARK  status: ('A' for Active; 'I' for Inactive)
REMARK    1  A    between atoms: C_1  and  N_2
REMARK    2  A    between atoms: C_9  and  C_10
REMARK    3  A    between atoms: C_13  and  C_14
REMARK    4  A    between atoms: C_15  and  C_16
REMARK    5  A    between atoms: N_18  and  O_19
REMARK                            x       y       z     vdW  Elec       q    Type
REMARK                         _______ _______ _______ _____ _____    ______ ____
ROOT
ATOM      1  C   UNL     1       1.135   8.411  20.510  0.00  0.00    +0.000 A 
ATOM      2  C   UNL     1       1.124   7.231  21.265  0.00  0.00    +0.000 A 
ATOM      3  C   UNL     1       1.817   6.085  20.837  0.00  0.00    +0.000 A 
ATOM      4  C   UNL     1       2.560   6.076  19.644  0.00  0.00    +0.000 A 
ATOM      5  C   UNL     1       2.611   7.268  18.907  0.00  0.00    +0.000 A 
ATOM      6 CL   UNL     1       3.589   7.487  17.493  0.00  0.00    +0.000 Cl
ATOM      7  C   UNL     1       1.886   8.394  19.321  0.00  0.00    +0.000 A 
ENDROOT
BRANCH   1  16
ATOM      8  C   UNL     1      -2.921  17.079  22.423  0.00  0.00    +0.000 C 
ATOM      9  N   UNL     1      -2.829  15.646  22.701  0.00  0.00    +0.000 NA
ATOM     10  C   UNL     1      -1.466  15.296  23.186  0.00  0.00    +0.000 C 
ATOM     11  C   UNL     1      -1.249  13.768  23.373  0.00  0.00    +0.000 C 
ATOM     12  N   UNL     1      -1.568  13.124  22.099  0.00  0.00    +0.000 N 
ATOM     13  C   UNL     1      -0.948  11.943  21.752  0.00  0.00    +0.000 A 
ATOM     14  C   UNL     1      -0.820  11.645  20.400  0.00  0.00    +0.000 A 
ATOM     15  C   UNL     1      -0.119  10.517  19.991  0.00  0.00    +0.000 A 
ATOM     16  C   UNL     1       0.431   9.641  20.932  0.00  0.00    +0.000 A 
ATOM     17  C   UNL     1       0.255  10.021  22.263  0.00  0.00    +0.000 A 
ATOM     18  N   UNL     1      -0.392  11.148  22.685  0.00  0.00    +0.000 NA
ATOM     19  C   UNL     1      -2.950  13.350  21.669  0.00  0.00    +0.000 C 
ATOM     20  C   UNL     1      -3.149  14.870  21.477  0.00  0.00    +0.000 C 
ENDBRANCH   1  16
BRANCH   4  21
ATOM     21  C   UNL     1       3.258   4.820  19.307  0.00  0.00    +0.000 C 
ATOM     22  C   UNL     1       3.226   3.707  20.060  0.00  0.00    +0.000 C 
BRANCH  22  23
ATOM     23  C   UNL     1       3.968   2.490  19.660  0.00  0.00    +0.000 C 
ATOM     24  O   UNL     1       4.996   2.106  20.207  0.00  0.00    +0.000 OA
ATOM     25  N   UNL     1       3.384   1.832  18.611  0.00  0.00    +0.000 N 
ATOM     26  H   UNL     1       2.565   2.136  18.103  0.00  0.00    +0.000 HD
BRANCH  25  27
ATOM     27  O   UNL     1       4.019   0.654  18.159  0.00  0.00    +0.000 OA
ATOM     28  H   UNL     1       4.267   0.211  19.001  0.00  0.00    +0.000 HD
ENDBRANCH  25  27
ENDBRANCH  22  23
ENDBRANCH   4  21
TORSDOF 4
ENDMDL
MODEL 9
REMARK VINA RESULT:      -7.4      2.627      2.974
REMARK  Name = 
REMARK  5 active torsions:
REMARK  status: ('A' for Active; 'I' for Inactive)
REMARK    1  A    between atoms: C_1  and  N_2
REMARK    2  A    between atoms: C_9  and  C_10
REMARK    3  A    between atoms: C_13  and  C_14
REMARK    4  A    between atoms: C_15  and  C_16
REMARK    5  A    between atoms: N_18  and  O_19
REMARK                            x       y       z     vdW  Elec       q    Type
REMARK                         _______ _______ _______ _____ _____    ______ ____
ROOT
ATOM      1  C   UNL     1       1.108   8.200  20.519  0.00  0.00    +0.000 A 
ATOM      2  C   UNL     1       1.163   7.034  21.293  0.00  0.00    +0.000 A 
ATOM      3  C   UNL     1       1.938   5.931  20.895  0.00  0.00    +0.000 A 
ATOM      4  C   UNL     1       2.699   5.953  19.714  0.00  0.00    +0.000 A 
ATOM      5  C   UNL     1       2.683   7.135  18.958  0.00  0.00    +0.000 A 
ATOM      6 CL   UNL     1       3.668   7.397  17.556  0.00  0.00    +0.000 Cl
ATOM      7  C   UNL     1       1.879   8.216  19.343  0.00  0.00    +0.000 A 
ENDROOT
BRANCH   1  16
ATOM      8  C   UNL     1      -4.703  15.310  23.825  0.00  0.00    +0.000 C 
ATOM      9  N   UNL     1      -3.570  14.896  22.998  0.00  0.00    +0.000 NA
ATOM     10  C   UNL     1      -4.017  13.950  21.940  0.00  0.00    +0.000 C 
ATOM     11  C   UNL     1      -2.846  13.358  21.105  0.00  0.00    +0.000 C 
ATOM     12  N   UNL     1      -1.911  12.740  22.044  0.00  0.00    +0.000 N 
ATOM     13  C   UNL     1      -1.136  11.674  21.640  0.00  0.00    +0.000 A 
ATOM     14  C   UNL     1      -0.698  10.781  22.611  0.00  0.00    +0.000 A 
ATOM     15  C   UNL     1       0.003   9.636  22.250  0.00  0.00    +0.000 A 
ATOM     16  C   UNL     1       0.318   9.387  20.910  0.00  0.00    +0.000 A 
ATOM     17  C   UNL     1      -0.163  10.337  20.007  0.00  0.00    +0.000 A 
ATOM     18  N   UNL     1      -0.892  11.444  20.337  0.00  0.00    +0.000 NA
ATOM     19  C   UNL     1      -1.358  13.688  23.015  0.00  0.00    +0.000 C 
ATOM     20  C   UNL     1      -2.530  14.260  23.844  0.00  0.00    +0.000 C 
ENDBRANCH   1  16
BRANCH   4  21
ATOM     21  C   UNL     1       3.485   4.741  19.408  0.00  0.00    +0.000 C 
ATOM     22  C   UNL     1       3.223   3.521  19.906  0.00  0.00    +0.000 C 
BRANCH  22  23
ATOM     23  C   UNL     1       4.070   2.356  19.562  0.00  0.00    +0.000 C 
ATOM     24  O   UNL     1       5.086   2.046  20.174  0.00  0.00    +0.000 OA
ATOM     25  N   UNL     1       3.598   1.654  18.486  0.00  0.00    +0.000 N 
ATOM     26  H   UNL     1       2.793   1.899  17.926  0.00  0.00    +0.000 HD
BRANCH  25  27
ATOM     27  O   UNL     1       4.339   0.521  18.084  0.00  0.00    +0.000 OA
ATOM     28  H   UNL     1       4.220   0.526  17.108  0.00  0.00    +0.000 HD
ENDBRANCH  25  27
ENDBRANCH  22  23
ENDBRANCH   4  21
TORSDOF 4
ENDMDL
