MODEL 1
REMARK VINA RESULT:      -6.3      0.000      0.000
REMARK  Name = 
REMARK  9 active torsions:
REMARK  status: ('A' for Active; 'I' for Inactive)
REMARK    1  A    between atoms: C_1  and  O_2
REMARK    2  A    between atoms: O_2  and  C_3
REMARK    3  A    between atoms: C_5  and  C_6
REMARK    4  A    between atoms: C_14  and  C_15
REMARK    5  A    between atoms: C_17  and  C_18
REMARK    6  A    between atoms: C_29  and  O_30
REMARK    7  A    between atoms: O_30  and  C_31
REMARK    8  A    between atoms: C_32  and  O_33
REMARK    9  A    between atoms: O_33  and  C_34
REMARK                            x       y       z     vdW  Elec       q    Type
REMARK                         _______ _______ _______ _____ _____    ______ ____
ROOT
ATOM      1  C   UNL     1      -1.025  12.809  19.880  0.00  0.00    +0.000 C 
ATOM      2  C   UNL     1      -0.360  11.420  19.489  0.00  0.00    +0.000 A 
ATOM      3  C   UNL     1       0.625  11.285  18.471  0.00  0.00    +0.000 A 
ATOM      4  C   UNL     1       1.391  10.111  18.432  0.00  0.00    +0.000 A 
ATOM      5  C   UNL     1       1.232   9.098  19.355  0.00  0.00    +0.000 A 
ATOM      6  C   UNL     1       0.338   9.197  20.376  0.00  0.00    +0.000 A 
ATOM      7  C   UNL     1      -0.406  10.385  20.449  0.00  0.00    +0.000 A 
ATOM      8  C   UNL     1      -0.983  10.677  21.746  0.00  0.00    +0.000 C 
ATOM      9  C   UNL     1      -0.813  11.934  22.171  0.00  0.00    +0.000 C 
ATOM     10  C   UNL     1      -0.354  13.091  21.275  0.00  0.00    +0.000 C 
ATOM     11  O   UNL     1       2.103   8.067  19.181  0.00  0.00    +0.000 OA
ATOM     12  C   UNL     1       2.598   8.404  17.877  0.00  0.00    +0.000 C 
ATOM     13  O   UNL     1       2.393   9.803  17.555  0.00  0.00    +0.000 OA
ENDROOT
BRANCH  10  14
ATOM     14  C   UNL     1       1.092  13.546  20.916  0.00  0.00    +0.000 C 
ATOM     15  O   UNL     1       2.047  12.778  21.130  0.00  0.00    +0.000 OA
ATOM     16  N   UNL     1       1.345  14.708  20.254  0.00  0.00    +0.000 N 
ATOM     17  C   UNL     1       0.410  15.703  19.791  0.00  0.00    +0.000 C 
ATOM     18  C   UNL     1       1.115  16.313  18.590  0.00  0.00    +0.000 C 
ATOM     19  C   UNL     1       2.580  16.288  18.996  0.00  0.00    +0.000 C 
ATOM     20  C   UNL     1       2.701  15.006  19.805  0.00  0.00    +0.000 C 
ENDBRANCH  10  14
BRANCH   1  23
ATOM     21  C   UNL     1      -4.493  14.208  21.116  0.00  0.00    +0.000 A 
ATOM     22  C   UNL     1      -3.107  14.023  20.872  0.00  0.00    +0.000 A 
ATOM     23  C   UNL     1      -2.572  12.996  20.032  0.00  0.00    +0.000 A 
ATOM     24  C   UNL     1      -3.506  12.206  19.376  0.00  0.00    +0.000 A 
ATOM     25  C   UNL     1      -4.895  12.415  19.556  0.00  0.00    +0.000 A 
ATOM     26  C   UNL     1      -5.413  13.391  20.448  0.00  0.00    +0.000 A 
BRANCH  21  28
ATOM     27  C   UNL     1      -4.970  14.861  23.397  0.00  0.00    +0.000 C 
ATOM     28  O   UNL     1      -4.982  15.132  22.001  0.00  0.00    +0.000 OA
ENDBRANCH  21  28
BRANCH  25  29
ATOM     29  O   UNL     1      -5.660  11.529  18.822  0.00  0.00    +0.000 OA
ATOM     30  C   UNL     1      -5.016  10.935  17.695  0.00  0.00    +0.000 C 
ENDBRANCH  25  29
BRANCH  26  31
ATOM     31  O   UNL     1      -6.775  13.440  20.518  0.00  0.00    +0.000 OA
ATOM     32  C   UNL     1      -7.603  12.802  21.470  0.00  0.00    +0.000 C 
ENDBRANCH  26  31
ENDBRANCH   1  23
BRANCH   9  33
ATOM     33  C   UNL     1      -1.495  12.163  23.456  0.00  0.00    +0.000 C 
ATOM     34  O   UNL     1      -2.685  11.900  23.604  0.00  0.00    +0.000 OA
ENDBRANCH   9  33
TORSDOF 6
ENDMDL
MODEL 2
REMARK VINA RESULT:      -6.1      1.675      2.059
REMARK  Name = 
REMARK  9 active torsions:
REMARK  status: ('A' for Active; 'I' for Inactive)
REMARK    1  A    between atoms: C_1  and  O_2
REMARK    2  A    between atoms: O_2  and  C_3
REMARK    3  A    between atoms: C_5  and  C_6
REMARK    4  A    between atoms: C_14  and  C_15
REMARK    5  A    between atoms: C_17  and  C_18
REMARK    6  A    between atoms: C_29  and  O_30
REMARK    7  A    between atoms: O_30  and  C_31
REMARK    8  A    between atoms: C_32  and  O_33
REMARK    9  A    between atoms: O_33  and  C_34
REMARK                            x       y       z     vdW  Elec       q    Type
REMARK                         _______ _______ _______ _____ _____    ______ ____
ROOT
ATOM      1  C   UNL     1      -2.125  13.318  20.142  0.00  0.00    +0.000 C 
ATOM      2  C   UNL     1      -1.358  11.933  20.007  0.00  0.00    +0.000 A 
ATOM      3  C   UNL     1      -0.783  11.474  18.790  0.00  0.00    +0.000 A 
ATOM      4  C   UNL     1       0.152  10.430  18.843  0.00  0.00    +0.000 A 
ATOM      5  C   UNL     1       0.543   9.853  20.033  0.00  0.00    +0.000 A 
ATOM      6  C   UNL     1       0.060  10.285  21.229  0.00  0.00    +0.000 A 
ATOM      7  C   UNL     1      -0.847  11.356  21.192  0.00  0.00    +0.000 A 
ATOM      8  C   UNL     1      -0.985  12.095  22.430  0.00  0.00    +0.000 C 
ATOM      9  C   UNL     1      -0.950  13.426  22.302  0.00  0.00    +0.000 C 
ATOM     10  C   UNL     1      -1.088  14.167  20.966  0.00  0.00    +0.000 C 
ATOM     11  O   UNL     1       1.497   8.894  19.881  0.00  0.00    +0.000 OA
ATOM     12  C   UNL     1       1.425   8.724  18.457  0.00  0.00    +0.000 C 
ATOM     13  O   UNL     1       0.829   9.869  17.796  0.00  0.00    +0.000 OA
ENDROOT
BRANCH  10  14
ATOM     14  C   UNL     1       0.011  14.537  19.927  0.00  0.00    +0.000 C 
ATOM     15  O   UNL     1      -0.314  15.090  18.860  0.00  0.00    +0.000 OA
ATOM     16  N   UNL     1       1.340  14.397  20.191  0.00  0.00    +0.000 N 
ATOM     17  C   UNL     1       1.971  13.899  21.387  0.00  0.00    +0.000 C 
ATOM     18  C   UNL     1       3.312  14.616  21.398  0.00  0.00    +0.000 C 
ATOM     19  C   UNL     1       3.671  14.707  19.923  0.00  0.00    +0.000 C 
ATOM     20  C   UNL     1       2.325  14.907  19.243  0.00  0.00    +0.000 C 
ENDBRANCH  10  14
BRANCH   1  23
ATOM     21  C   UNL     1      -5.130  14.835  22.186  0.00  0.00    +0.000 A 
ATOM     22  C   UNL     1      -3.911  14.664  21.480  0.00  0.00    +0.000 A 
ATOM     23  C   UNL     1      -3.525  13.450  20.831  0.00  0.00    +0.000 A 
ATOM     24  C   UNL     1      -4.465  12.429  20.853  0.00  0.00    +0.000 A 
ATOM     25  C   UNL     1      -5.714  12.600  21.497  0.00  0.00    +0.000 A 
ATOM     26  C   UNL     1      -6.057  13.785  22.199  0.00  0.00    +0.000 A 
BRANCH  21  28
ATOM     27  C   UNL     1      -4.878  16.193  24.173  0.00  0.00    +0.000 C 
ATOM     28  O   UNL     1      -5.440  15.971  22.885  0.00  0.00    +0.000 OA
ENDBRANCH  21  28
BRANCH  25  29
ATOM     29  O   UNL     1      -6.509  11.473  21.413  0.00  0.00    +0.000 OA
ATOM     30  C   UNL     1      -7.270  11.336  20.213  0.00  0.00    +0.000 C 
ENDBRANCH  25  29
BRANCH  26  31
ATOM     31  O   UNL     1      -7.291  13.771  22.783  0.00  0.00    +0.000 OA
ATOM     32  C   UNL     1      -7.588  13.516  24.142  0.00  0.00    +0.000 C 
ENDBRANCH  26  31
ENDBRANCH   1  23
BRANCH   9  33
ATOM     33  C   UNL     1      -1.175  14.096  23.594  0.00  0.00    +0.000 C 
ATOM     34  O   UNL     1      -0.479  15.041  23.955  0.00  0.00    +0.000 OA
ENDBRANCH   9  33
TORSDOF 6
ENDMDL
MODEL 3
REMARK VINA RESULT:      -6.1      0.538      2.244
REMARK  Name = 
REMARK  9 active torsions:
REMARK  status: ('A' for Active; 'I' for Inactive)
REMARK    1  A    between atoms: C_1  and  O_2
REMARK    2  A    between atoms: O_2  and  C_3
REMARK    3  A    between atoms: C_5  and  C_6
REMARK    4  A    between atoms: C_14  and  C_15
REMARK    5  A    between atoms: C_17  and  C_18
REMARK    6  A    between atoms: C_29  and  O_30
REMARK    7  A    between atoms: O_30  and  C_31
REMARK    8  A    between atoms: C_32  and  O_33
REMARK    9  A    between atoms: O_33  and  C_34
REMARK                            x       y       z     vdW  Elec       q    Type
REMARK                         _______ _______ _______ _____ _____    ______ ____
ROOT
ATOM      1  C   UNL     1      -1.158  12.919  19.959  0.00  0.00    +0.000 C 
ATOM      2  C   UNL     1      -0.491  11.530  19.572  0.00  0.00    +0.000 A 
ATOM      3  C   UNL     1       0.477  11.389  18.539  0.00  0.00    +0.000 A 
ATOM      4  C   UNL     1       1.249  10.219  18.501  0.00  0.00    +0.000 A 
ATOM      5  C   UNL     1       1.112   9.216  19.437  0.00  0.00    +0.000 A 
ATOM      6  C   UNL     1       0.235   9.320  20.472  0.00  0.00    +0.000 A 
ATOM      7  C   UNL     1      -0.515  10.505  20.545  0.00  0.00    +0.000 A 
ATOM      8  C   UNL     1      -1.071  10.808  21.847  0.00  0.00    +0.000 C 
ATOM      9  C   UNL     1      -0.902  12.070  22.256  0.00  0.00    +0.000 C 
ATOM     10  C   UNL     1      -0.466  13.220  21.339  0.00  0.00    +0.000 C 
ATOM     11  O   UNL     1       1.986   8.188  19.260  0.00  0.00    +0.000 OA
ATOM     12  C   UNL     1       2.457   8.513  17.943  0.00  0.00    +0.000 C 
ATOM     13  O   UNL     1       2.238   9.907  17.610  0.00  0.00    +0.000 OA
ENDROOT
BRANCH  10  14
ATOM     14  C   UNL     1       0.971  13.680  20.951  0.00  0.00    +0.000 C 
ATOM     15  O   UNL     1       1.937  12.928  21.176  0.00  0.00    +0.000 OA
ATOM     16  N   UNL     1       1.205  14.825  20.253  0.00  0.00    +0.000 N 
ATOM     17  C   UNL     1       0.254  15.796  19.772  0.00  0.00    +0.000 C 
ATOM     18  C   UNL     1       0.939  16.379  18.546  0.00  0.00    +0.000 C 
ATOM     19  C   UNL     1       2.409  16.381  18.936  0.00  0.00    +0.000 C 
ATOM     20  C   UNL     1       2.552  15.123  19.780  0.00  0.00    +0.000 C 
ENDBRANCH  10  14
BRANCH   1  23
ATOM     21  C   UNL     1      -5.033  12.336  19.569  0.00  0.00    +0.000 A 
ATOM     22  C   UNL     1      -3.622  12.196  19.514  0.00  0.00    +0.000 A 
ATOM     23  C   UNL     1      -2.703  13.099  20.136  0.00  0.00    +0.000 A 
ATOM     24  C   UNL     1      -3.273  14.113  20.892  0.00  0.00    +0.000 A 
ATOM     25  C   UNL     1      -4.680  14.233  21.012  0.00  0.00    +0.000 A 
ATOM     26  C   UNL     1      -5.581  13.374  20.332  0.00  0.00    +0.000 A 
BRANCH  21  28
ATOM     27  C   UNL     1      -6.232  11.808  17.534  0.00  0.00    +0.000 C 
ATOM     28  O   UNL     1      -5.895  11.519  18.885  0.00  0.00    +0.000 OA
ENDBRANCH  21  28
BRANCH  25  29
ATOM     29  O   UNL     1      -5.051  15.304  21.802  0.00  0.00    +0.000 OA
ATOM     30  C   UNL     1      -4.455  15.360  23.098  0.00  0.00    +0.000 C 
ENDBRANCH  25  29
BRANCH  26  31
ATOM     31  O   UNL     1      -6.903  13.647  20.539  0.00  0.00    +0.000 OA
ATOM     32  C   UNL     1      -7.746  14.441  19.728  0.00  0.00    +0.000 C 
ENDBRANCH  26  31
ENDBRANCH   1  23
BRANCH   9  33
ATOM     33  C   UNL     1      -1.563  12.310  23.549  0.00  0.00    +0.000 C 
ATOM     34  O   UNL     1      -2.768  12.122  23.696  0.00  0.00    +0.000 OA
ENDBRANCH   9  33
TORSDOF 6
ENDMDL
MODEL 4
REMARK VINA RESULT:      -6.1      1.627      2.864
REMARK  Name = 
REMARK  9 active torsions:
REMARK  status: ('A' for Active; 'I' for Inactive)
REMARK    1  A    between atoms: C_1  and  O_2
REMARK    2  A    between atoms: O_2  and  C_3
REMARK    3  A    between atoms: C_5  and  C_6
REMARK    4  A    between atoms: C_14  and  C_15
REMARK    5  A    between atoms: C_17  and  C_18
REMARK    6  A    between atoms: C_29  and  O_30
REMARK    7  A    between atoms: O_30  and  C_31
REMARK    8  A    between atoms: C_32  and  O_33
REMARK    9  A    between atoms: O_33  and  C_34
REMARK                            x       y       z     vdW  Elec       q    Type
REMARK                         _______ _______ _______ _____ _____    ______ ____
ROOT
ATOM      1  C   UNL     1      -2.033  13.146  20.007  0.00  0.00    +0.000 C 
ATOM      2  C   UNL     1      -1.251  11.765  19.928  0.00  0.00    +0.000 A 
ATOM      3  C   UNL     1      -0.691  11.252  18.724  0.00  0.00    +0.000 A 
ATOM      4  C   UNL     1       0.259  10.225  18.813  0.00  0.00    +0.000 A 
ATOM      5  C   UNL     1       0.678   9.712  20.023  0.00  0.00    +0.000 A 
ATOM      6  C   UNL     1       0.210  10.199  21.205  0.00  0.00    +0.000 A 
ATOM      7  C   UNL     1      -0.711  11.255  21.130  0.00  0.00    +0.000 A 
ATOM      8  C   UNL     1      -0.838  12.054  22.332  0.00  0.00    +0.000 C 
ATOM      9  C   UNL     1      -0.822  13.377  22.137  0.00  0.00    +0.000 C 
ATOM     10  C   UNL     1      -0.994  14.048  20.768  0.00  0.00    +0.000 C 
ATOM     11  O   UNL     1       1.642   8.760  19.902  0.00  0.00    +0.000 OA
ATOM     12  C   UNL     1       1.547   8.516  18.491  0.00  0.00    +0.000 C 
ATOM     13  O   UNL     1       0.924   9.620  17.784  0.00  0.00    +0.000 OA
ENDROOT
BRANCH  10  14
ATOM     14  C   UNL     1       0.082  14.379  19.691  0.00  0.00    +0.000 C 
ATOM     15  O   UNL     1      -0.268  14.880  18.607  0.00  0.00    +0.000 OA
ATOM     16  N   UNL     1       1.417  14.261  19.936  0.00  0.00    +0.000 N 
ATOM     17  C   UNL     1       2.076  13.822  21.141  0.00  0.00    +0.000 C 
ATOM     18  C   UNL     1       3.410  14.549  21.093  0.00  0.00    +0.000 C 
ATOM     19  C   UNL     1       3.740  14.576  19.608  0.00  0.00    +0.000 C 
ATOM     20  C   UNL     1       2.379  14.735  18.947  0.00  0.00    +0.000 C 
ENDBRANCH  10  14
BRANCH   1  23
ATOM     21  C   UNL     1      -5.691  12.329  21.217  0.00  0.00    +0.000 A 
ATOM     22  C   UNL     1      -4.387  12.240  20.664  0.00  0.00    +0.000 A 
ATOM     23  C   UNL     1      -3.423  13.295  20.713  0.00  0.00    +0.000 A 
ATOM     24  C   UNL     1      -3.802  14.426  21.422  0.00  0.00    +0.000 A 
ATOM     25  C   UNL     1      -5.076  14.510  22.037  0.00  0.00    +0.000 A 
ATOM     26  C   UNL     1      -6.050  13.485  21.919  0.00  0.00    +0.000 A 
BRANCH  21  28
ATOM     27  C   UNL     1      -7.043  10.931  19.776  0.00  0.00    +0.000 C 
ATOM     28  O   UNL     1      -6.635  11.346  21.074  0.00  0.00    +0.000 OA
ENDBRANCH  21  28
BRANCH  25  29
ATOM     29  O   UNL     1      -5.266  15.712  22.691  0.00  0.00    +0.000 OA
ATOM     30  C   UNL     1      -4.680  15.815  23.988  0.00  0.00    +0.000 C 
ENDBRANCH  25  29
BRANCH  26  31
ATOM     31  O   UNL     1      -7.233  13.741  22.553  0.00  0.00    +0.000 OA
ATOM     32  C   UNL     1      -7.623  13.300  23.838  0.00  0.00    +0.000 C 
ENDBRANCH  26  31
ENDBRANCH   1  23
BRANCH   9  33
ATOM     33  C   UNL     1      -1.034  14.109  23.397  0.00  0.00    +0.000 C 
ATOM     34  O   UNL     1      -0.373  15.105  23.678  0.00  0.00    +0.000 OA
ENDBRANCH   9  33
TORSDOF 6
ENDMDL
MODEL 5
REMARK VINA RESULT:      -6.1      2.747      4.904
REMARK  Name = 
REMARK  9 active torsions:
REMARK  status: ('A' for Active; 'I' for Inactive)
REMARK    1  A    between atoms: C_1  and  O_2
REMARK    2  A    between atoms: O_2  and  C_3
REMARK    3  A    between atoms: C_5  and  C_6
REMARK    4  A    between atoms: C_14  and  C_15
REMARK    5  A    between atoms: C_17  and  C_18
REMARK    6  A    between atoms: C_29  and  O_30
REMARK    7  A    between atoms: O_30  and  C_31
REMARK    8  A    between atoms: C_32  and  O_33
REMARK    9  A    between atoms: O_33  and  C_34
REMARK                            x       y       z     vdW  Elec       q    Type
REMARK                         _______ _______ _______ _____ _____    ______ ____
ROOT
ATOM      1  C   UNL     1      -2.679  14.483  21.897  0.00  0.00    +0.000 C 
ATOM      2  C   UNL     1      -1.552  14.724  20.802  0.00  0.00    +0.000 A 
ATOM      3  C   UNL     1      -1.034  16.011  20.485  0.00  0.00    +0.000 A 
ATOM      4  C   UNL     1       0.173  16.090  19.776  0.00  0.00    +0.000 A 
ATOM      5  C   UNL     1       0.877  14.967  19.395  0.00  0.00    +0.000 A 
ATOM      6  C   UNL     1       0.451  13.715  19.714  0.00  0.00    +0.000 A 
ATOM      7  C   UNL     1      -0.735  13.624  20.459  0.00  0.00    +0.000 A 
ATOM      8  C   UNL     1      -0.924  12.379  21.175  0.00  0.00    +0.000 C 
ATOM      9  C   UNL     1      -1.313  12.512  22.448  0.00  0.00    +0.000 C 
ATOM     10  C   UNL     1      -1.849  13.815  23.053  0.00  0.00    +0.000 C 
ATOM     11  O   UNL     1       2.049  15.252  18.763  0.00  0.00    +0.000 OA
ATOM     12  C   UNL     1       1.841  16.651  18.517  0.00  0.00    +0.000 C 
ATOM     13  O   UNL     1       0.841  17.222  19.399  0.00  0.00    +0.000 OA
ENDROOT
BRANCH  10  14
ATOM     14  C   UNL     1      -1.065  15.000  23.692  0.00  0.00    +0.000 C 
ATOM     15  O   UNL     1       0.121  15.196  23.368  0.00  0.00    +0.000 OA
ATOM     16  N   UNL     1      -1.664  15.916  24.501  0.00  0.00    +0.000 N 
ATOM     17  C   UNL     1      -3.040  15.979  24.926  0.00  0.00    +0.000 C 
ATOM     18  C   UNL     1      -3.268  17.464  25.154  0.00  0.00    +0.000 C 
ATOM     19  C   UNL     1      -1.930  17.944  25.694  0.00  0.00    +0.000 C 
ATOM     20  C   UNL     1      -0.919  17.091  24.941  0.00  0.00    +0.000 C 
ENDBRANCH  10  14
BRANCH   1  23
ATOM     21  C   UNL     1      -5.424  12.410  19.980  0.00  0.00    +0.000 A 
ATOM     22  C   UNL     1      -4.258  13.148  20.311  0.00  0.00    +0.000 A 
ATOM     23  C   UNL     1      -3.946  13.603  21.630  0.00  0.00    +0.000 A 
ATOM     24  C   UNL     1      -4.827  13.210  22.628  0.00  0.00    +0.000 A 
ATOM     25  C   UNL     1      -5.963  12.418  22.329  0.00  0.00    +0.000 A 
ATOM     26  C   UNL     1      -6.300  12.033  21.005  0.00  0.00    +0.000 A 
BRANCH  21  28
ATOM     27  C   UNL     1      -4.966  11.125  17.980  0.00  0.00    +0.000 C 
ATOM     28  O   UNL     1      -5.756  12.067  18.696  0.00  0.00    +0.000 OA
ENDBRANCH  21  28
BRANCH  25  29
ATOM     29  O   UNL     1      -6.716  12.133  23.451  0.00  0.00    +0.000 OA
ATOM     30  C   UNL     1      -7.538  13.194  23.936  0.00  0.00    +0.000 C 
ENDBRANCH  25  29
BRANCH  26  31
ATOM     31  O   UNL     1      -7.442  11.293  20.895  0.00  0.00    +0.000 OA
ATOM     32  C   UNL     1      -7.540   9.921  20.566  0.00  0.00    +0.000 C 
ENDBRANCH  26  31
ENDBRANCH   1  23
BRANCH   9  33
ATOM     33  C   UNL     1      -1.556  11.201  23.074  0.00  0.00    +0.000 C 
ATOM     34  O   UNL     1      -0.628  10.490  23.450  0.00  0.00    +0.000 OA
ENDBRANCH   9  33
TORSDOF 6
ENDMDL
MODEL 6
REMARK VINA RESULT:      -6.1      1.723      2.181
REMARK  Name = 
REMARK  9 active torsions:
REMARK  status: ('A' for Active; 'I' for Inactive)
REMARK    1  A    between atoms: C_1  and  O_2
REMARK    2  A    between atoms: O_2  and  C_3
REMARK    3  A    between atoms: C_5  and  C_6
REMARK    4  A    between atoms: C_14  and  C_15
REMARK    5  A    between atoms: C_17  and  C_18
REMARK    6  A    between atoms: C_29  and  O_30
REMARK    7  A    between atoms: O_30  and  C_31
REMARK    8  A    between atoms: C_32  and  O_33
REMARK    9  A    between atoms: O_33  and  C_34
REMARK                            x       y       z     vdW  Elec       q    Type
REMARK                         _______ _______ _______ _____ _____    ______ ____
ROOT
ATOM      1  C   UNL     1      -2.109  13.733  20.633  0.00  0.00    +0.000 C 
ATOM      2  C   UNL     1      -1.396  12.322  20.472  0.00  0.00    +0.000 A 
ATOM      3  C   UNL     1      -0.714  11.922  19.289  0.00  0.00    +0.000 A 
ATOM      4  C   UNL     1       0.161  10.829  19.359  0.00  0.00    +0.000 A 
ATOM      5  C   UNL     1       0.394  10.146  20.535  0.00  0.00    +0.000 A 
ATOM      6  C   UNL     1      -0.196  10.517  21.704  0.00  0.00    +0.000 A 
ATOM      7  C   UNL     1      -1.043  11.635  21.655  0.00  0.00    +0.000 A 
ATOM      8  C   UNL     1      -1.281  12.289  22.926  0.00  0.00    +0.000 C 
ATOM      9  C   UNL     1      -1.171  13.622  22.906  0.00  0.00    +0.000 C 
ATOM     10  C   UNL     1      -1.129  14.463  21.624  0.00  0.00    +0.000 C 
ATOM     11  O   UNL     1       1.314   9.152  20.409  0.00  0.00    +0.000 OA
ATOM     12  C   UNL     1       1.388   9.088  18.977  0.00  0.00    +0.000 C 
ATOM     13  O   UNL     1       0.921  10.309  18.348  0.00  0.00    +0.000 OA
ENDROOT
BRANCH  10  14
ATOM     14  C   UNL     1       0.092  14.848  20.737  0.00  0.00    +0.000 C 
ATOM     15  O   UNL     1       1.098  14.115  20.727  0.00  0.00    +0.000 OA
ATOM     16  N   UNL     1       0.058  15.894  19.866  0.00  0.00    +0.000 N 
ATOM     17  C   UNL     1      -1.022  16.813  19.605  0.00  0.00    +0.000 C 
ATOM     18  C   UNL     1      -0.786  17.227  18.161  0.00  0.00    +0.000 C 
ATOM     19  C   UNL     1       0.730  17.254  18.049  0.00  0.00    +0.000 C 
ATOM     20  C   UNL     1       1.172  16.109  18.949  0.00  0.00    +0.000 C 
ENDBRANCH  10  14
BRANCH   1  23
ATOM     21  C   UNL     1      -5.327  15.361  22.215  0.00  0.00    +0.000 A 
ATOM     22  C   UNL     1      -4.045  15.156  21.642  0.00  0.00    +0.000 A 
ATOM     23  C   UNL     1      -3.567  13.890  21.179  0.00  0.00    +0.000 A 
ATOM     24  C   UNL     1      -4.475  12.842  21.245  0.00  0.00    +0.000 A 
ATOM     25  C   UNL     1      -5.782  13.039  21.755  0.00  0.00    +0.000 A 
ATOM     26  C   UNL     1      -6.220  14.284  22.277  0.00  0.00    +0.000 A 
BRANCH  21  28
ATOM     27  C   UNL     1      -6.195  17.596  21.887  0.00  0.00    +0.000 C 
ATOM     28  O   UNL     1      -5.731  16.559  22.743  0.00  0.00    +0.000 OA
ENDBRANCH  21  28
BRANCH  25  29
ATOM     29  O   UNL     1      -6.533  11.879  21.741  0.00  0.00    +0.000 OA
ATOM     30  C   UNL     1      -6.838  11.350  20.451  0.00  0.00    +0.000 C 
ENDBRANCH  25  29
BRANCH  26  31
ATOM     31  O   UNL     1      -7.500  14.290  22.752  0.00  0.00    +0.000 OA
ATOM     32  C   UNL     1      -7.913  14.108  24.092  0.00  0.00    +0.000 C 
ENDBRANCH  26  31
ENDBRANCH   1  23
BRANCH   9  33
ATOM     33  C   UNL     1      -1.504  14.208  24.215  0.00  0.00    +0.000 C 
ATOM     34  O   UNL     1      -0.772  15.035  24.751  0.00  0.00    +0.000 OA
ENDBRANCH   9  33
TORSDOF 6
ENDMDL
MODEL 7
REMARK VINA RESULT:      -6.1      2.305      3.973
REMARK  Name = 
REMARK  9 active torsions:
REMARK  status: ('A' for Active; 'I' for Inactive)
REMARK    1  A    between atoms: C_1  and  O_2
REMARK    2  A    between atoms: O_2  and  C_3
REMARK    3  A    between atoms: C_5  and  C_6
REMARK    4  A    between atoms: C_14  and  C_15
REMARK    5  A    between atoms: C_17  and  C_18
REMARK    6  A    between atoms: C_29  and  O_30
REMARK    7  A    between atoms: O_30  and  C_31
REMARK    8  A    between atoms: C_32  and  O_33
REMARK    9  A    between atoms: O_33  and  C_34
REMARK                            x       y       z     vdW  Elec       q    Type
REMARK                         _______ _______ _______ _____ _____    ______ ____
ROOT
ATOM      1  C   UNL     1      -2.030  14.097  20.904  0.00  0.00    +0.000 C 
ATOM      2  C   UNL     1      -0.756  13.913  19.973  0.00  0.00    +0.000 A 
ATOM      3  C   UNL     1      -0.038  15.003  19.405  0.00  0.00    +0.000 A 
ATOM      4  C   UNL     1       1.246  14.766  18.897  0.00  0.00    +0.000 A 
ATOM      5  C   UNL     1       1.839  13.522  18.945  0.00  0.00    +0.000 A 
ATOM      6  C   UNL     1       1.217  12.457  19.518  0.00  0.00    +0.000 A 
ATOM      7  C   UNL     1      -0.053  12.690  20.068  0.00  0.00    +0.000 A 
ATOM      8  C   UNL     1      -0.490  11.723  21.054  0.00  0.00    +0.000 C 
ATOM      9  C   UNL     1      -1.012  12.247  22.169  0.00  0.00    +0.000 C 
ATOM     10  C   UNL     1      -1.443  13.712  22.311  0.00  0.00    +0.000 C 
ATOM     11  O   UNL     1       3.106  13.508  18.449  0.00  0.00    +0.000 OA
ATOM     12  C   UNL     1       3.115  14.791  17.807  0.00  0.00    +0.000 C 
ATOM     13  O   UNL     1       2.098  15.678  18.338  0.00  0.00    +0.000 OA
ENDROOT
BRANCH  10  14
ATOM     14  C   UNL     1      -0.595  14.953  22.722  0.00  0.00    +0.000 C 
ATOM     15  O   UNL     1       0.647  14.875  22.720  0.00  0.00    +0.000 OA
ATOM     16  N   UNL     1      -1.156  16.170  22.962  0.00  0.00    +0.000 N 
ATOM     17  C   UNL     1      -2.547  16.546  22.911  0.00  0.00    +0.000 C 
ATOM     18  C   UNL     1      -2.497  18.022  22.553  0.00  0.00    +0.000 C 
ATOM     19  C   UNL     1      -1.252  18.514  23.275  0.00  0.00    +0.000 C 
ATOM     20  C   UNL     1      -0.301  17.330  23.186  0.00  0.00    +0.000 C 
ENDBRANCH  10  14
BRANCH   1  23
ATOM     21  C   UNL     1      -4.855  11.990  19.147  0.00  0.00    +0.000 A 
ATOM     22  C   UNL     1      -3.644  12.669  19.438  0.00  0.00    +0.000 A 
ATOM     23  C   UNL     1      -3.359  13.297  20.691  0.00  0.00    +0.000 A 
ATOM     24  C   UNL     1      -4.323  13.141  21.677  0.00  0.00    +0.000 A 
ATOM     25  C   UNL     1      -5.512  12.412  21.427  0.00  0.00    +0.000 A 
ATOM     26  C   UNL     1      -5.815  11.855  20.157  0.00  0.00    +0.000 A 
BRANCH  21  28
ATOM     27  C   UNL     1      -4.106  11.090  17.029  0.00  0.00    +0.000 C 
ATOM     28  O   UNL     1      -5.152  11.481  17.910  0.00  0.00    +0.000 OA
ENDBRANCH  21  28
BRANCH  25  29
ATOM     29  O   UNL     1      -6.345  12.371  22.528  0.00  0.00    +0.000 OA
ATOM     30  C   UNL     1      -6.244  13.474  23.428  0.00  0.00    +0.000 C 
ENDBRANCH  25  29
BRANCH  26  31
ATOM     31  O   UNL     1      -7.014  11.207  20.085  0.00  0.00    +0.000 OA
ATOM     32  C   UNL     1      -7.237   9.813  20.176  0.00  0.00    +0.000 C 
ENDBRANCH  26  31
ENDBRANCH   1  23
BRANCH   9  33
ATOM     33  C   UNL     1      -1.499  11.197  23.079  0.00  0.00    +0.000 C 
ATOM     34  O   UNL     1      -0.759  10.303  23.480  0.00  0.00    +0.000 OA
ENDBRANCH   9  33
TORSDOF 6
ENDMDL
MODEL 8
REMARK VINA RESULT:      -5.9      2.300      3.434
REMARK  Name = 
REMARK  9 active torsions:
REMARK  status: ('A' for Active; 'I' for Inactive)
REMARK    1  A    between atoms: C_1  and  O_2
REMARK    2  A    between atoms: O_2  and  C_3
REMARK    3  A    between atoms: C_5  and  C_6
REMARK    4  A    between atoms: C_14  and  C_15
REMARK    5  A    between atoms: C_17  and  C_18
REMARK    6  A    between atoms: C_29  and  O_30
REMARK    7  A    between atoms: O_30  and  C_31
REMARK    8  A    between atoms: C_32  and  O_33
REMARK    9  A    between atoms: O_33  and  C_34
REMARK                            x       y       z     vdW  Elec       q    Type
REMARK                         _______ _______ _______ _____ _____    ______ ____
ROOT
ATOM      1  C   UNL     1      -2.161  14.149  20.935  0.00  0.00    +0.000 C 
ATOM      2  C   UNL     1      -0.883  13.940  20.015  0.00  0.00    +0.000 A 
ATOM      3  C   UNL     1      -0.138  15.017  19.457  0.00  0.00    +0.000 A 
ATOM      4  C   UNL     1       1.146  14.754  18.959  0.00  0.00    +0.000 A 
ATOM      5  C   UNL     1       1.713  13.498  19.009  0.00  0.00    +0.000 A 
ATOM      6  C   UNL     1       1.063  12.445  19.574  0.00  0.00    +0.000 A 
ATOM      7  C   UNL     1      -0.206  12.703  20.113  0.00  0.00    +0.000 A 
ATOM      8  C   UNL     1      -0.672  11.743  21.093  0.00  0.00    +0.000 C 
ATOM      9  C   UNL     1      -1.193  12.275  22.204  0.00  0.00    +0.000 C 
ATOM     10  C   UNL     1      -1.594  13.748  22.347  0.00  0.00    +0.000 C 
ATOM     11  O   UNL     1       2.984  13.458  18.524  0.00  0.00    +0.000 OA
ATOM     12  C   UNL     1       3.025  14.743  17.885  0.00  0.00    +0.000 C 
ATOM     13  O   UNL     1       2.021  15.650  18.410  0.00  0.00    +0.000 OA
ENDROOT
BRANCH  10  14
ATOM     14  C   UNL     1      -0.725  14.970  22.768  0.00  0.00    +0.000 C 
ATOM     15  O   UNL     1       0.516  14.872  22.759  0.00  0.00    +0.000 OA
ATOM     16  N   UNL     1      -1.265  16.193  23.025  0.00  0.00    +0.000 N 
ATOM     17  C   UNL     1      -2.650  16.592  22.986  0.00  0.00    +0.000 C 
ATOM     18  C   UNL     1      -2.577  18.072  22.646  0.00  0.00    +0.000 C 
ATOM     19  C   UNL     1      -1.321  18.535  23.367  0.00  0.00    +0.000 C 
ATOM     20  C   UNL     1      -0.390  17.336  23.260  0.00  0.00    +0.000 C 
ENDBRANCH  10  14
BRANCH   1  23
ATOM     21  C   UNL     1      -5.794  12.759  21.548  0.00  0.00    +0.000 A 
ATOM     22  C   UNL     1      -4.577  13.481  21.649  0.00  0.00    +0.000 A 
ATOM     23  C   UNL     1      -3.504  13.377  20.708  0.00  0.00    +0.000 A 
ATOM     24  C   UNL     1      -3.744  12.567  19.607  0.00  0.00    +0.000 A 
ATOM     25  C   UNL     1      -4.977  11.887  19.455  0.00  0.00    +0.000 A 
ATOM     26  C   UNL     1      -6.006  11.942  20.431  0.00  0.00    +0.000 A 
BRANCH  21  28
ATOM     27  C   UNL     1      -6.419  12.721  23.886  0.00  0.00    +0.000 C 
ATOM     28  O   UNL     1      -6.770  12.795  22.509  0.00  0.00    +0.000 OA
ENDBRANCH  21  28
BRANCH  25  29
ATOM     29  O   UNL     1      -5.022  11.132  18.300  0.00  0.00    +0.000 OA
ATOM     30  C   UNL     1      -5.034  11.865  17.075  0.00  0.00    +0.000 C 
ENDBRANCH  25  29
BRANCH  26  31
ATOM     31  O   UNL     1      -7.117  11.205  20.137  0.00  0.00    +0.000 OA
ATOM     32  C   UNL     1      -7.437   9.915  20.620  0.00  0.00    +0.000 C 
ENDBRANCH  26  31
ENDBRANCH   1  23
BRANCH   9  33
ATOM     33  C   UNL     1      -1.710  11.233  23.107  0.00  0.00    +0.000 C 
ATOM     34  O   UNL     1      -0.993  10.320  23.508  0.00  0.00    +0.000 OA
ENDBRANCH   9  33
TORSDOF 6
ENDMDL
MODEL 9
REMARK VINA RESULT:      -5.9      1.229      2.490
REMARK  Name = 
REMARK  9 active torsions:
REMARK  status: ('A' for Active; 'I' for Inactive)
REMARK    1  A    between atoms: C_1  and  O_2
REMARK    2  A    between atoms: O_2  and  C_3
REMARK    3  A    between atoms: C_5  and  C_6
REMARK    4  A    between atoms: C_14  and  C_15
REMARK    5  A    between atoms: C_17  and  C_18
REMARK    6  A    between atoms: C_29  and  O_30
REMARK    7  A    between atoms: O_30  and  C_31
REMARK    8  A    between atoms: C_32  and  O_33
REMARK    9  A    between atoms: O_33  and  C_34
REMARK                            x       y       z     vdW  Elec       q    Type
REMARK                         _______ _______ _______ _____ _____    ______ ____
ROOT
ATOM      1  C   UNL     1      -1.057  12.900  20.295  0.00  0.00    +0.000 C 
ATOM      2  C   UNL     1      -0.601  11.385  20.432  0.00  0.00    +0.000 A 
ATOM      3  C   UNL     1       0.316  10.761  19.539  0.00  0.00    +0.000 A 
ATOM      4  C   UNL     1       0.915   9.556  19.930  0.00  0.00    +0.000 A 
ATOM      5  C   UNL     1       0.660   8.969  21.151  0.00  0.00    +0.000 A 
ATOM      6  C   UNL     1      -0.172   9.546  22.061  0.00  0.00    +0.000 A 
ATOM      7  C   UNL     1      -0.746  10.774  21.698  0.00  0.00    +0.000 A 
ATOM      8  C   UNL     1      -1.226  11.584  22.799  0.00  0.00    +0.000 C 
ATOM      9  C   UNL     1      -0.872  12.873  22.750  0.00  0.00    +0.000 C 
ATOM     10  C   UNL     1      -0.300  13.562  21.505  0.00  0.00    +0.000 C 
ATOM     11  O   UNL     1       1.377   7.832  21.365  0.00  0.00    +0.000 OA
ATOM     12  C   UNL     1       1.859   7.612  20.032  0.00  0.00    +0.000 C 
ATOM     13  O   UNL     1       1.831   8.821  19.230  0.00  0.00    +0.000 OA
ENDROOT
BRANCH  10  14
ATOM     14  C   UNL     1       1.179  13.654  21.022  0.00  0.00    +0.000 C 
ATOM     15  O   UNL     1       1.967  12.726  21.279  0.00  0.00    +0.000 OA
ATOM     16  N   UNL     1       1.618  14.656  20.213  0.00  0.00    +0.000 N 
ATOM     17  C   UNL     1       0.879  15.774  19.680  0.00  0.00    +0.000 C 
ATOM     18  C   UNL     1       1.604  16.085  18.381  0.00  0.00    +0.000 C 
ATOM     19  C   UNL     1       3.058  15.789  18.714  0.00  0.00    +0.000 C 
ATOM     20  C   UNL     1       2.969  14.605  19.665  0.00  0.00    +0.000 C 
ENDBRANCH  10  14
BRANCH   1  23
ATOM     21  C   UNL     1      -4.975  12.808  19.903  0.00  0.00    +0.000 A 
ATOM     22  C   UNL     1      -3.601  12.455  19.945  0.00  0.00    +0.000 A 
ATOM     23  C   UNL     1      -2.558  13.343  20.355  0.00  0.00    +0.000 A 
ATOM     24  C   UNL     1      -2.970  14.590  20.803  0.00  0.00    +0.000 A 
ATOM     25  C   UNL     1      -4.342  14.941  20.830  0.00  0.00    +0.000 A 
ATOM     26  C   UNL     1      -5.361  14.076  20.353  0.00  0.00    +0.000 A 
BRANCH  21  28
ATOM     27  C   UNL     1      -5.624  10.991  18.442  0.00  0.00    +0.000 C 
ATOM     28  O   UNL     1      -5.949  11.978  19.413  0.00  0.00    +0.000 OA
ENDBRANCH  21  28
BRANCH  25  29
ATOM     29  O   UNL     1      -4.549  16.222  21.304  0.00  0.00    +0.000 OA
ATOM     30  C   UNL     1      -4.258  17.279  20.391  0.00  0.00    +0.000 C 
ENDBRANCH  25  29
BRANCH  26  31
ATOM     31  O   UNL     1      -6.627  14.583  20.428  0.00  0.00    +0.000 OA
ATOM     32  C   UNL     1      -7.574  14.360  21.454  0.00  0.00    +0.000 C 
ENDBRANCH  26  31
ENDBRANCH   1  23
BRANCH   9  33
ATOM     33  C   UNL     1      -1.466  13.636  23.861  0.00  0.00    +0.000 C 
ATOM     34  O   UNL     1      -0.934  14.655  24.293  0.00  0.00    +0.000 OA
ENDBRANCH   9  33
TORSDOF 6
ENDMDL
