MODEL 1
REMARK VINA RESULT:      -7.9      0.000      0.000
REMARK  Name = 
REMARK  14 active torsions:
REMARK  status: ('A' for Active; 'I' for Inactive)
REMARK    1  A    between atoms: C_1  and  N_2
REMARK    2  A    between atoms: N_2  and  C_3
REMARK    3  A    between atoms: N_2  and  C_4
REMARK    4  A    between atoms: C_7  and  C_8
REMARK    5  A    between atoms: N_10  and  C_11
REMARK    6  A    between atoms: C_11  and  C_12
REMARK    7  A    between atoms: C_12  and  C_13
REMARK    8  A    between atoms: C_13  and  C_14
REMARK    9  A    between atoms: C_14  and  C_15
REMARK   10  A    between atoms: C_15  and  C_16
REMARK   11  A    between atoms: C_16  and  C_17
REMARK   12  A    between atoms: C_17  and  C_18
REMARK   13  A    between atoms: C_18  and  N_19
REMARK   14  A    between atoms: N_19  and  C_20
REMARK                            x       y       z     vdW  Elec       q    Type
REMARK                         _______ _______ _______ _____ _____    ______ ____
ROOT
ATOM      1  C   UNL     1       7.646   8.046  18.079  0.00  0.00    +0.000 C 
ENDROOT
BRANCH   1   2
ATOM      2  C   UNL     1       8.870   8.811  18.621  0.00  0.00    +0.000 C 
BRANCH   2   3
ATOM      3  C   UNL     1       8.847  10.333  18.335  0.00  0.00    +0.000 C 
BRANCH   3   4
ATOM      4  C   UNL     1       9.329  11.126  19.563  0.00  0.00    +0.000 C 
BRANCH   4   5
ATOM      5  C   UNL     1      10.613  11.924  19.316  0.00  0.00    +0.000 C 
BRANCH   5   6
ATOM      6  C   UNL     1      10.416  13.381  19.704  0.00  0.00    +0.000 C 
BRANCH   6   9
ATOM      7  C   UNL     1       8.688  14.649  18.433  0.00  0.00    +0.000 C 
ATOM      8  O   UNL     1       9.497  15.049  17.605  0.00  0.00    +0.000 OA
ATOM      9  N   UNL     1       9.017  13.809  19.476  0.00  0.00    +0.000 N 
ATOM     10  H   UNL     1       8.361  13.542  20.210  0.00  0.00    +0.000 HD
BRANCH   7  14
ATOM     11  C   UNL     1       4.527  16.026  18.272  0.00  0.00    +0.000 A 
ATOM     12  C   UNL     1       5.573  16.804  18.755  0.00  0.00    +0.000 A 
ATOM     13  C   UNL     1       6.919  16.361  18.793  0.00  0.00    +0.000 A 
ATOM     14  C   UNL     1       7.246  15.074  18.348  0.00  0.00    +0.000 A 
ATOM     15  C   UNL     1       6.218  14.251  17.840  0.00  0.00    +0.000 A 
ATOM     16  C   UNL     1       4.885  14.725  17.843  0.00  0.00    +0.000 A 
BRANCH  11  18
ATOM     17  C   UNL     1       2.688  17.220  17.106  0.00  0.00    +0.000 C 
ATOM     18  N   UNL     1       3.205  16.463  18.242  0.00  0.00    +0.000 N 
ATOM     19  C   UNL     1       2.239  15.990  19.228  0.00  0.00    +0.000 C 
ENDBRANCH  11  18
ENDBRANCH   7  14
ENDBRANCH   6   9
ENDBRANCH   5   6
ENDBRANCH   4   5
ENDBRANCH   3   4
ENDBRANCH   2   3
ENDBRANCH   1   2
BRANCH   1  20
ATOM     20  C   UNL     1       7.759   6.480  18.105  0.00  0.00    +0.000 C 
BRANCH  20  21
ATOM     21  C   UNL     1       6.985   5.767  19.261  0.00  0.00    +0.000 C 
BRANCH  21  22
ATOM     22  N   UNL     1       6.299   4.475  18.870  0.00  0.00    +0.000 N 
ATOM     23  H   UNL     1       6.468   3.756  19.580  0.00  0.00    +0.000 HD
BRANCH  22  24
ATOM     24  C   UNL     1       4.859   4.580  18.717  0.00  0.00    +0.000 A 
ATOM     25  C   UNL     1       3.939   3.709  19.366  0.00  0.00    +0.000 A 
ATOM     26  C   UNL     1       2.940   3.343  18.491  0.00  0.00    +0.000 A 
ATOM     27  N   UNL     1       3.085   3.354  17.161  0.00  0.00    +0.000 NA
ATOM     28  C   UNL     1       3.974   4.243  16.697  0.00  0.00    +0.000 A 
ATOM     29  C   UNL     1       4.877   4.038  15.647  0.00  0.00    +0.000 A 
ATOM     30  C   UNL     1       5.683   5.075  15.217  0.00  0.00    +0.000 A 
ATOM     31  C   UNL     1       5.251   6.330  15.547  0.00  0.00    +0.000 A 
ATOM     32  C   UNL     1       4.553   6.441  16.741  0.00  0.00    +0.000 A 
ATOM     33  C   UNL     1       4.353   5.279  17.506  0.00  0.00    +0.000 A 
ATOM     34  C   UNL     1       1.542   3.100  18.945  0.00  0.00    +0.000 C 
ATOM     35  C   UNL     1       1.198   2.873  20.396  0.00  0.00    +0.000 C 
ATOM     36  C   UNL     1       2.425   2.589  21.234  0.00  0.00    +0.000 C 
ATOM     37  C   UNL     1       3.847   3.056  20.697  0.00  0.00    +0.000 C 
ENDBRANCH  22  24
ENDBRANCH  21  22
ENDBRANCH  20  21
ENDBRANCH   1  20
TORSDOF 12
ENDMDL
MODEL 2
REMARK VINA RESULT:      -7.8      1.432      1.537
REMARK  Name = 
REMARK  14 active torsions:
REMARK  status: ('A' for Active; 'I' for Inactive)
REMARK    1  A    between atoms: C_1  and  N_2
REMARK    2  A    between atoms: N_2  and  C_3
REMARK    3  A    between atoms: N_2  and  C_4
REMARK    4  A    between atoms: C_7  and  C_8
REMARK    5  A    between atoms: N_10  and  C_11
REMARK    6  A    between atoms: C_11  and  C_12
REMARK    7  A    between atoms: C_12  and  C_13
REMARK    8  A    between atoms: C_13  and  C_14
REMARK    9  A    between atoms: C_14  and  C_15
REMARK   10  A    between atoms: C_15  and  C_16
REMARK   11  A    between atoms: C_16  and  C_17
REMARK   12  A    between atoms: C_17  and  C_18
REMARK   13  A    between atoms: C_18  and  N_19
REMARK   14  A    between atoms: N_19  and  C_20
REMARK                            x       y       z     vdW  Elec       q    Type
REMARK                         _______ _______ _______ _____ _____    ______ ____
ROOT
ATOM      1  C   UNL     1       7.777   7.679  17.998  0.00  0.00    +0.000 C 
ENDROOT
BRANCH   1   2
ATOM      2  C   UNL     1       8.683   8.623  18.812  0.00  0.00    +0.000 C 
BRANCH   2   3
ATOM      3  C   UNL     1       8.785  10.059  18.239  0.00  0.00    +0.000 C 
BRANCH   3   4
ATOM      4  C   UNL     1       9.921  10.841  18.922  0.00  0.00    +0.000 C 
BRANCH   4   5
ATOM      5  C   UNL     1       9.606  11.253  20.364  0.00  0.00    +0.000 C 
BRANCH   5   6
ATOM      6  C   UNL     1       9.860  12.740  20.558  0.00  0.00    +0.000 C 
BRANCH   6   9
ATOM      7  C   UNL     1       7.828  14.050  21.161  0.00  0.00    +0.000 C 
ATOM      8  O   UNL     1       8.031  13.935  22.363  0.00  0.00    +0.000 OA
ATOM      9  N   UNL     1       8.667  13.537  20.194  0.00  0.00    +0.000 N 
ATOM     10  H   UNL     1       8.455  13.563  19.196  0.00  0.00    +0.000 HD
BRANCH   7  14
ATOM     11  C   UNL     1       4.348  16.197  19.573  0.00  0.00    +0.000 A 
ATOM     12  C   UNL     1       5.434  15.815  18.794  0.00  0.00    +0.000 A 
ATOM     13  C   UNL     1       6.551  15.109  19.306  0.00  0.00    +0.000 A 
ATOM     14  C   UNL     1       6.607  14.780  20.666  0.00  0.00    +0.000 A 
ATOM     15  C   UNL     1       5.523  15.138  21.496  0.00  0.00    +0.000 A 
ATOM     16  C   UNL     1       4.440  15.863  20.947  0.00  0.00    +0.000 A 
BRANCH  11  18
ATOM     17  C   UNL     1       2.824  16.716  17.683  0.00  0.00    +0.000 C 
ATOM     18  N   UNL     1       3.256  16.895  19.066  0.00  0.00    +0.000 N 
ATOM     19  C   UNL     1       2.374  17.649  19.951  0.00  0.00    +0.000 C 
ENDBRANCH  11  18
ENDBRANCH   7  14
ENDBRANCH   6   9
ENDBRANCH   5   6
ENDBRANCH   4   5
ENDBRANCH   3   4
ENDBRANCH   2   3
ENDBRANCH   1   2
BRANCH   1  20
ATOM     20  C   UNL     1       7.889   6.155  18.356  0.00  0.00    +0.000 C 
BRANCH  20  21
ATOM     21  C   UNL     1       6.857   5.630  19.407  0.00  0.00    +0.000 C 
BRANCH  21  22
ATOM     22  N   UNL     1       6.127   4.365  19.009  0.00  0.00    +0.000 N 
ATOM     23  H   UNL     1       6.217   3.659  19.744  0.00  0.00    +0.000 HD
BRANCH  22  24
ATOM     24  C   UNL     1       4.705   4.539  18.770  0.00  0.00    +0.000 A 
ATOM     25  C   UNL     1       3.707   3.720  19.367  0.00  0.00    +0.000 A 
ATOM     26  C   UNL     1       2.744   3.397  18.437  0.00  0.00    +0.000 A 
ATOM     27  N   UNL     1       2.967   3.392  17.117  0.00  0.00    +0.000 NA
ATOM     28  C   UNL     1       3.924   4.233  16.703  0.00  0.00    +0.000 A 
ATOM     29  C   UNL     1       4.876   3.977  15.709  0.00  0.00    +0.000 A 
ATOM     30  C   UNL     1       5.756   4.970  15.324  0.00  0.00    +0.000 A 
ATOM     31  C   UNL     1       5.369   6.247  15.623  0.00  0.00    +0.000 A 
ATOM     32  C   UNL     1       4.608   6.400  16.773  0.00  0.00    +0.000 A 
ATOM     33  C   UNL     1       4.307   5.255  17.529  0.00  0.00    +0.000 A 
ATOM     34  C   UNL     1       1.310   3.227  18.808  0.00  0.00    +0.000 C 
ATOM     35  C   UNL     1       0.872   3.027  20.237  0.00  0.00    +0.000 C 
ATOM     36  C   UNL     1       2.031   2.688  21.148  0.00  0.00    +0.000 C 
ATOM     37  C   UNL     1       3.504   3.081  20.693  0.00  0.00    +0.000 C 
ENDBRANCH  22  24
ENDBRANCH  21  22
ENDBRANCH  20  21
ENDBRANCH   1  20
TORSDOF 12
ENDMDL
MODEL 3
REMARK VINA RESULT:      -7.6      5.510      7.543
REMARK  Name = 
REMARK  14 active torsions:
REMARK  status: ('A' for Active; 'I' for Inactive)
REMARK    1  A    between atoms: C_1  and  N_2
REMARK    2  A    between atoms: N_2  and  C_3
REMARK    3  A    between atoms: N_2  and  C_4
REMARK    4  A    between atoms: C_7  and  C_8
REMARK    5  A    between atoms: N_10  and  C_11
REMARK    6  A    between atoms: C_11  and  C_12
REMARK    7  A    between atoms: C_12  and  C_13
REMARK    8  A    between atoms: C_13  and  C_14
REMARK    9  A    between atoms: C_14  and  C_15
REMARK   10  A    between atoms: C_15  and  C_16
REMARK   11  A    between atoms: C_16  and  C_17
REMARK   12  A    between atoms: C_17  and  C_18
REMARK   13  A    between atoms: C_18  and  N_19
REMARK   14  A    between atoms: N_19  and  C_20
REMARK                            x       y       z     vdW  Elec       q    Type
REMARK                         _______ _______ _______ _____ _____    ______ ____
ROOT
ATOM      1  C   UNL     1       0.854   9.212  17.938  0.00  0.00    +0.000 C 
ENDROOT
BRANCH   1   2
ATOM      2  C   UNL     1       0.457   9.656  19.359  0.00  0.00    +0.000 C 
BRANCH   2   3
ATOM      3  C   UNL     1       1.534   9.378  20.437  0.00  0.00    +0.000 C 
BRANCH   3   4
ATOM      4  C   UNL     1       1.017   8.370  21.478  0.00  0.00    +0.000 C 
BRANCH   4   5
ATOM      5  C   UNL     1      -0.380   8.699  22.015  0.00  0.00    +0.000 C 
BRANCH   5   6
ATOM      6  C   UNL     1      -0.280   9.518  23.291  0.00  0.00    +0.000 C 
BRANCH   6   9
ATOM      7  C   UNL     1      -1.020  11.835  22.749  0.00  0.00    +0.000 C 
ATOM      8  O   UNL     1       0.021  12.100  22.160  0.00  0.00    +0.000 OA
ATOM      9  N   UNL     1      -1.287  10.604  23.309  0.00  0.00    +0.000 N 
ATOM     10  H   UNL     1      -2.118  10.409  23.867  0.00  0.00    +0.000 HD
BRANCH   7  14
ATOM     11  C   UNL     1      -4.227  14.813  23.046  0.00  0.00    +0.000 A 
ATOM     12  C   UNL     1      -4.290  13.698  22.217  0.00  0.00    +0.000 A 
ATOM     13  C   UNL     1      -3.258  12.731  22.133  0.00  0.00    +0.000 A 
ATOM     14  C   UNL     1      -2.093  12.882  22.895  0.00  0.00    +0.000 A 
ATOM     15  C   UNL     1      -1.987  13.992  23.759  0.00  0.00    +0.000 A 
ATOM     16  C   UNL     1      -3.031  14.946  23.793  0.00  0.00    +0.000 A 
BRANCH  11  18
ATOM     17  C   UNL     1      -5.120  17.048  22.436  0.00  0.00    +0.000 C 
ATOM     18  N   UNL     1      -5.241  15.764  23.120  0.00  0.00    +0.000 N 
ATOM     19  C   UNL     1      -6.542  15.426  23.688  0.00  0.00    +0.000 C 
ENDBRANCH  11  18
ENDBRANCH   7  14
ENDBRANCH   6   9
ENDBRANCH   5   6
ENDBRANCH   4   5
ENDBRANCH   3   4
ENDBRANCH   2   3
ENDBRANCH   1   2
BRANCH   1  20
ATOM     20  C   UNL     1       2.384   9.315  17.597  0.00  0.00    +0.000 C 
BRANCH  20  21
ATOM     21  C   UNL     1       3.101   7.960  17.292  0.00  0.00    +0.000 C 
BRANCH  21  22
ATOM     22  N   UNL     1       3.586   7.204  18.511  0.00  0.00    +0.000 N 
ATOM     23  H   UNL     1       3.015   7.445  19.326  0.00  0.00    +0.000 HD
BRANCH  22  24
ATOM     24  C   UNL     1       3.540   5.759  18.382  0.00  0.00    +0.000 A 
ATOM     25  C   UNL     1       2.924   4.908  19.342  0.00  0.00    +0.000 A 
ATOM     26  C   UNL     1       3.713   3.802  19.565  0.00  0.00    +0.000 A 
ATOM     27  N   UNL     1       5.033   3.781  19.346  0.00  0.00    +0.000 NA
ATOM     28  C   UNL     1       5.460   4.625  18.396  0.00  0.00    +0.000 A 
ATOM     29  C   UNL     1       6.634   5.387  18.434  0.00  0.00    +0.000 A 
ATOM     30  C   UNL     1       6.994   6.155  17.344  0.00  0.00    +0.000 A 
ATOM     31  C   UNL     1       6.422   5.793  16.156  0.00  0.00    +0.000 A 
ATOM     32  C   UNL     1       5.147   5.250  16.233  0.00  0.00    +0.000 A 
ATOM     33  C   UNL     1       4.554   5.122  17.500  0.00  0.00    +0.000 A 
ATOM     34  C   UNL     1       3.132   2.465  19.875  0.00  0.00    +0.000 C 
ATOM     35  C   UNL     1       1.703   2.299  20.326  0.00  0.00    +0.000 C 
ATOM     36  C   UNL     1       1.078   3.613  20.741  0.00  0.00    +0.000 C 
ATOM     37  C   UNL     1       1.710   4.968  20.197  0.00  0.00    +0.000 C 
ENDBRANCH  22  24
ENDBRANCH  21  22
ENDBRANCH  20  21
ENDBRANCH   1  20
TORSDOF 12
ENDMDL
MODEL 4
REMARK VINA RESULT:      -7.6      5.005      7.459
REMARK  Name = 
REMARK  14 active torsions:
REMARK  status: ('A' for Active; 'I' for Inactive)
REMARK    1  A    between atoms: C_1  and  N_2
REMARK    2  A    between atoms: N_2  and  C_3
REMARK    3  A    between atoms: N_2  and  C_4
REMARK    4  A    between atoms: C_7  and  C_8
REMARK    5  A    between atoms: N_10  and  C_11
REMARK    6  A    between atoms: C_11  and  C_12
REMARK    7  A    between atoms: C_12  and  C_13
REMARK    8  A    between atoms: C_13  and  C_14
REMARK    9  A    between atoms: C_14  and  C_15
REMARK   10  A    between atoms: C_15  and  C_16
REMARK   11  A    between atoms: C_16  and  C_17
REMARK   12  A    between atoms: C_17  and  C_18
REMARK   13  A    between atoms: C_18  and  N_19
REMARK   14  A    between atoms: N_19  and  C_20
REMARK                            x       y       z     vdW  Elec       q    Type
REMARK                         _______ _______ _______ _____ _____    ______ ____
ROOT
ATOM      1  C   UNL     1       2.558   1.865  18.224  0.00  0.00    +0.000 C 
ENDROOT
BRANCH   1   2
ATOM      2  C   UNL     1       2.830   2.235  19.695  0.00  0.00    +0.000 C 
BRANCH   2   3
ATOM      3  C   UNL     1       1.552   2.475  20.538  0.00  0.00    +0.000 C 
BRANCH   3   4
ATOM      4  C   UNL     1       1.112   3.947  20.454  0.00  0.00    +0.000 C 
BRANCH   4   5
ATOM      5  C   UNL     1       2.093   4.923  21.110  0.00  0.00    +0.000 C 
BRANCH   5   6
ATOM      6  C   UNL     1       2.512   6.000  20.122  0.00  0.00    +0.000 C 
BRANCH   6   9
ATOM      7  C   UNL     1       1.710   8.264  19.462  0.00  0.00    +0.000 C 
ATOM      8  O   UNL     1       2.060   8.121  18.297  0.00  0.00    +0.000 OA
ATOM      9  N   UNL     1       1.851   7.290  20.426  0.00  0.00    +0.000 N 
ATOM     10  H   UNL     1       1.633   7.439  21.411  0.00  0.00    +0.000 HD
BRANCH   7  14
ATOM     11  C   UNL     1      -0.054  12.110  20.620  0.00  0.00    +0.000 A 
ATOM     12  C   UNL     1       0.433  11.843  19.345  0.00  0.00    +0.000 A 
ATOM     13  C   UNL     1       0.990  10.596  18.970  0.00  0.00    +0.000 A 
ATOM     14  C   UNL     1       1.088   9.562  19.910  0.00  0.00    +0.000 A 
ATOM     15  C   UNL     1       0.598   9.782  21.214  0.00  0.00    +0.000 A 
ATOM     16  C   UNL     1       0.072  11.051  21.552  0.00  0.00    +0.000 A 
BRANCH  11  18
ATOM     17  C   UNL     1      -1.881  13.783  20.458  0.00  0.00    +0.000 C 
ATOM     18  N   UNL     1      -0.595  13.340  20.985  0.00  0.00    +0.000 N 
ATOM     19  C   UNL     1      -0.011  14.120  22.072  0.00  0.00    +0.000 C 
ENDBRANCH  11  18
ENDBRANCH   7  14
ENDBRANCH   6   9
ENDBRANCH   5   6
ENDBRANCH   4   5
ENDBRANCH   3   4
ENDBRANCH   2   3
ENDBRANCH   1   2
BRANCH   1  20
ATOM     20  C   UNL     1       2.142   3.057  17.291  0.00  0.00    +0.000 C 
BRANCH  20  21
ATOM     21  C   UNL     1       3.267   4.096  16.980  0.00  0.00    +0.000 C 
BRANCH  21  22
ATOM     22  N   UNL     1       4.478   3.534  16.268  0.00  0.00    +0.000 N 
ATOM     23  H   UNL     1       4.200   2.772  15.643  0.00  0.00    +0.000 HD
BRANCH  22  24
ATOM     24  C   UNL     1       5.201   4.496  15.455  0.00  0.00    +0.000 A 
ATOM     25  C   UNL     1       5.929   4.139  14.285  0.00  0.00    +0.000 A 
ATOM     26  C   UNL     1       7.133   4.808  14.259  0.00  0.00    +0.000 A 
ATOM     27  N   UNL     1       7.741   5.275  15.355  0.00  0.00    +0.000 NA
ATOM     28  C   UNL     1       6.919   5.587  16.367  0.00  0.00    +0.000 A 
ATOM     29  C   UNL     1       7.155   5.353  17.727  0.00  0.00    +0.000 A 
ATOM     30  C   UNL     1       6.254   5.803  18.672  0.00  0.00    +0.000 A 
ATOM     31  C   UNL     1       5.424   6.808  18.260  0.00  0.00    +0.000 A 
ATOM     32  C   UNL     1       5.077   6.800  16.916  0.00  0.00    +0.000 A 
ATOM     33  C   UNL     1       5.590   5.777  16.102  0.00  0.00    +0.000 A 
ATOM     34  C   UNL     1       7.763   5.252  12.983  0.00  0.00    +0.000 C 
ATOM     35  C   UNL     1       7.342   4.695  11.646  0.00  0.00    +0.000 C 
ATOM     36  C   UNL     1       6.497   3.448  11.788  0.00  0.00    +0.000 C 
ATOM     37  C   UNL     1       5.742   3.185  13.162  0.00  0.00    +0.000 C 
ENDBRANCH  22  24
ENDBRANCH  21  22
ENDBRANCH  20  21
ENDBRANCH   1  20
TORSDOF 12
ENDMDL
MODEL 5
REMARK VINA RESULT:      -7.5      4.332     10.086
REMARK  Name = 
REMARK  14 active torsions:
REMARK  status: ('A' for Active; 'I' for Inactive)
REMARK    1  A    between atoms: C_1  and  N_2
REMARK    2  A    between atoms: N_2  and  C_3
REMARK    3  A    between atoms: N_2  and  C_4
REMARK    4  A    between atoms: C_7  and  C_8
REMARK    5  A    between atoms: N_10  and  C_11
REMARK    6  A    between atoms: C_11  and  C_12
REMARK    7  A    between atoms: C_12  and  C_13
REMARK    8  A    between atoms: C_13  and  C_14
REMARK    9  A    between atoms: C_14  and  C_15
REMARK   10  A    between atoms: C_15  and  C_16
REMARK   11  A    between atoms: C_16  and  C_17
REMARK   12  A    between atoms: C_17  and  C_18
REMARK   13  A    between atoms: C_18  and  N_19
REMARK   14  A    between atoms: N_19  and  C_20
REMARK                            x       y       z     vdW  Elec       q    Type
REMARK                         _______ _______ _______ _____ _____    ______ ____
ROOT
ATOM      1  C   UNL     1       2.713   7.168  18.067  0.00  0.00    +0.000 C 
ENDROOT
BRANCH   1   2
ATOM      2  C   UNL     1       2.095   5.890  18.665  0.00  0.00    +0.000 C 
BRANCH   2   3
ATOM      3  C   UNL     1       1.766   5.988  20.176  0.00  0.00    +0.000 C 
BRANCH   3   4
ATOM      4  C   UNL     1       2.517   4.905  20.970  0.00  0.00    +0.000 C 
BRANCH   4   5
ATOM      5  C   UNL     1       2.528   3.534  20.287  0.00  0.00    +0.000 C 
BRANCH   5   6
ATOM      6  C   UNL     1       3.941   2.977  20.237  0.00  0.00    +0.000 C 
BRANCH   6   9
ATOM      7  C   UNL     1       5.300   4.255  18.586  0.00  0.00    +0.000 C 
ATOM      8  O   UNL     1       5.584   5.128  19.397  0.00  0.00    +0.000 OA
ATOM      9  N   UNL     1       4.536   3.149  18.893  0.00  0.00    +0.000 N 
ATOM     10  H   UNL     1       4.234   2.466  18.198  0.00  0.00    +0.000 HD
BRANCH   7  14
ATOM     11  C   UNL     1       6.812   4.684  14.491  0.00  0.00    +0.000 A 
ATOM     12  C   UNL     1       7.276   5.439  15.562  0.00  0.00    +0.000 A 
ATOM     13  C   UNL     1       6.796   5.289  16.887  0.00  0.00    +0.000 A 
ATOM     14  C   UNL     1       5.789   4.356  17.165  0.00  0.00    +0.000 A 
ATOM     15  C   UNL     1       5.293   3.559  16.111  0.00  0.00    +0.000 A 
ATOM     16  C   UNL     1       5.785   3.759  14.800  0.00  0.00    +0.000 A 
BRANCH  11  18
ATOM     17  C   UNL     1       8.412   5.718  12.898  0.00  0.00    +0.000 C 
ATOM     18  N   UNL     1       7.283   4.839  13.190  0.00  0.00    +0.000 N 
ATOM     19  C   UNL     1       6.819   3.966  12.118  0.00  0.00    +0.000 C 
ENDBRANCH  11  18
ENDBRANCH   7  14
ENDBRANCH   6   9
ENDBRANCH   5   6
ENDBRANCH   4   5
ENDBRANCH   3   4
ENDBRANCH   2   3
ENDBRANCH   1   2
BRANCH   1  20
ATOM     20  C   UNL     1       1.720   8.366  17.854  0.00  0.00    +0.000 C 
BRANCH  20  21
ATOM     21  C   UNL     1       2.330   9.792  18.047  0.00  0.00    +0.000 C 
BRANCH  21  22
ATOM     22  N   UNL     1       1.321  10.890  18.306  0.00  0.00    +0.000 N 
ATOM     23  H   UNL     1       0.394  10.603  17.977  0.00  0.00    +0.000 HD
BRANCH  22  24
ATOM     24  C   UNL     1       1.171  11.256  19.703  0.00  0.00    +0.000 A 
ATOM     25  C   UNL     1       0.314  10.564  20.604  0.00  0.00    +0.000 A 
ATOM     26  C   UNL     1      -0.364  11.466  21.394  0.00  0.00    +0.000 A 
ATOM     27  N   UNL     1      -0.592  12.735  21.035  0.00  0.00    +0.000 NA
ATOM     28  C   UNL     1       0.315  13.256  20.197  0.00  0.00    +0.000 A 
ATOM     29  C   UNL     1       0.050  14.105  19.115  0.00  0.00    +0.000 A 
ATOM     30  C   UNL     1       1.093  14.635  18.382  0.00  0.00    +0.000 A 
ATOM     31  C   UNL     1       2.307  14.647  19.011  0.00  0.00    +0.000 A 
ATOM     32  C   UNL     1       2.541  13.610  19.905  0.00  0.00    +0.000 A 
ATOM     33  C   UNL     1       1.535  12.647  20.084  0.00  0.00    +0.000 A 
ATOM     34  C   UNL     1      -0.725  11.165  22.808  0.00  0.00    +0.000 C 
ATOM     35  C   UNL     1      -0.714   9.759  23.355  0.00  0.00    +0.000 C 
ATOM     36  C   UNL     1      -0.638   8.720  22.257  0.00  0.00    +0.000 C 
ATOM     37  C   UNL     1      -0.073   9.148  20.834  0.00  0.00    +0.000 C 
ENDBRANCH  22  24
ENDBRANCH  21  22
ENDBRANCH  20  21
ENDBRANCH   1  20
TORSDOF 12
ENDMDL
MODEL 6
REMARK VINA RESULT:      -7.4      6.859     11.977
REMARK  Name = 
REMARK  14 active torsions:
REMARK  status: ('A' for Active; 'I' for Inactive)
REMARK    1  A    between atoms: C_1  and  N_2
REMARK    2  A    between atoms: N_2  and  C_3
REMARK    3  A    between atoms: N_2  and  C_4
REMARK    4  A    between atoms: C_7  and  C_8
REMARK    5  A    between atoms: N_10  and  C_11
REMARK    6  A    between atoms: C_11  and  C_12
REMARK    7  A    between atoms: C_12  and  C_13
REMARK    8  A    between atoms: C_13  and  C_14
REMARK    9  A    between atoms: C_14  and  C_15
REMARK   10  A    between atoms: C_15  and  C_16
REMARK   11  A    between atoms: C_16  and  C_17
REMARK   12  A    between atoms: C_17  and  C_18
REMARK   13  A    between atoms: C_18  and  N_19
REMARK   14  A    between atoms: N_19  and  C_20
REMARK                            x       y       z     vdW  Elec       q    Type
REMARK                         _______ _______ _______ _____ _____    ______ ____
ROOT
ATOM      1  C   UNL     1      -1.363  11.957  17.804  0.00  0.00    +0.000 C 
ENDROOT
BRANCH   1   2
ATOM      2  C   UNL     1      -1.388  10.577  18.490  0.00  0.00    +0.000 C 
BRANCH   2   3
ATOM      3  C   UNL     1      -0.032   9.828  18.461  0.00  0.00    +0.000 C 
BRANCH   3   4
ATOM      4  C   UNL     1       0.722  10.013  19.790  0.00  0.00    +0.000 C 
BRANCH   4   5
ATOM      5  C   UNL     1       0.054   9.319  20.981  0.00  0.00    +0.000 C 
BRANCH   5   6
ATOM      6  C   UNL     1       1.023   8.356  21.647  0.00  0.00    +0.000 C 
BRANCH   6   9
ATOM      7  C   UNL     1       1.980   6.464  20.338  0.00  0.00    +0.000 C 
ATOM      8  O   UNL     1       1.167   5.661  20.779  0.00  0.00    +0.000 OA
ATOM      9  N   UNL     1       1.985   7.803  20.666  0.00  0.00    +0.000 N 
ATOM     10  H   UNL     1       2.710   8.453  20.362  0.00  0.00    +0.000 HD
BRANCH   7  14
ATOM     11  C   UNL     1       5.045   5.237  17.450  0.00  0.00    +0.000 A 
ATOM     12  C   UNL     1       4.180   6.305  17.242  0.00  0.00    +0.000 A 
ATOM     13  C   UNL     1       3.200   6.708  18.183  0.00  0.00    +0.000 A 
ATOM     14  C   UNL     1       3.053   6.006  19.386  0.00  0.00    +0.000 A 
ATOM     15  C   UNL     1       3.916   4.920  19.646  0.00  0.00    +0.000 A 
ATOM     16  C   UNL     1       4.864   4.537  18.668  0.00  0.00    +0.000 A 
BRANCH  11  18
ATOM     17  C   UNL     1       7.389   5.284  16.632  0.00  0.00    +0.000 C 
ATOM     18  N   UNL     1       6.002   4.842  16.519  0.00  0.00    +0.000 N 
ATOM     19  C   UNL     1       5.709   3.799  15.541  0.00  0.00    +0.000 C 
ENDBRANCH  11  18
ENDBRANCH   7  14
ENDBRANCH   6   9
ENDBRANCH   5   6
ENDBRANCH   4   5
ENDBRANCH   3   4
ENDBRANCH   2   3
ENDBRANCH   1   2
BRANCH   1  20
ATOM     20  C   UNL     1      -0.985  13.168  18.730  0.00  0.00    +0.000 C 
BRANCH  20  21
ATOM     21  C   UNL     1      -1.467  13.060  20.213  0.00  0.00    +0.000 C 
BRANCH  21  22
ATOM     22  N   UNL     1      -2.798  13.721  20.503  0.00  0.00    +0.000 N 
ATOM     23  H   UNL     1      -3.147  14.194  19.665  0.00  0.00    +0.000 HD
BRANCH  22  24
ATOM     24  C   UNL     1      -3.843  12.809  20.932  0.00  0.00    +0.000 A 
ATOM     25  C   UNL     1      -4.873  12.340  20.070  0.00  0.00    +0.000 A 
ATOM     26  C   UNL     1      -6.082  12.353  20.730  0.00  0.00    +0.000 A 
ATOM     27  N   UNL     1      -6.342  13.147  21.775  0.00  0.00    +0.000 NA
ATOM     28  C   UNL     1      -5.272  13.488  22.505  0.00  0.00    +0.000 A 
ATOM     29  C   UNL     1      -5.023  14.743  23.073  0.00  0.00    +0.000 A 
ATOM     30  C   UNL     1      -3.914  14.931  23.875  0.00  0.00    +0.000 A 
ATOM     31  C   UNL     1      -3.374  13.793  24.407  0.00  0.00    +0.000 A 
ATOM     32  C   UNL     1      -3.488  12.645  23.635  0.00  0.00    +0.000 A 
ATOM     33  C   UNL     1      -4.130  12.742  22.389  0.00  0.00    +0.000 A 
ATOM     34  C   UNL     1      -7.138  11.335  20.467  0.00  0.00    +0.000 C 
ATOM     35  C   UNL     1      -7.123  10.466  19.234  0.00  0.00    +0.000 C 
ATOM     36  C   UNL     1      -6.153  10.973  18.190  0.00  0.00    +0.000 C 
ATOM     37  C   UNL     1      -4.966  11.929  18.645  0.00  0.00    +0.000 C 
ENDBRANCH  22  24
ENDBRANCH  21  22
ENDBRANCH  20  21
ENDBRANCH   1  20
TORSDOF 12
ENDMDL
MODEL 7
REMARK VINA RESULT:      -7.4      3.816      6.494
REMARK  Name = 
REMARK  14 active torsions:
REMARK  status: ('A' for Active; 'I' for Inactive)
REMARK    1  A    between atoms: C_1  and  N_2
REMARK    2  A    between atoms: N_2  and  C_3
REMARK    3  A    between atoms: N_2  and  C_4
REMARK    4  A    between atoms: C_7  and  C_8
REMARK    5  A    between atoms: N_10  and  C_11
REMARK    6  A    between atoms: C_11  and  C_12
REMARK    7  A    between atoms: C_12  and  C_13
REMARK    8  A    between atoms: C_13  and  C_14
REMARK    9  A    between atoms: C_14  and  C_15
REMARK   10  A    between atoms: C_15  and  C_16
REMARK   11  A    between atoms: C_16  and  C_17
REMARK   12  A    between atoms: C_17  and  C_18
REMARK   13  A    between atoms: C_18  and  N_19
REMARK   14  A    between atoms: N_19  and  C_20
REMARK                            x       y       z     vdW  Elec       q    Type
REMARK                         _______ _______ _______ _____ _____    ______ ____
ROOT
ATOM      1  C   UNL     1       1.558   8.210  20.225  0.00  0.00    +0.000 C 
ENDROOT
BRANCH   1   2
ATOM      2  C   UNL     1       0.354   8.961  20.825  0.00  0.00    +0.000 C 
BRANCH   2   3
ATOM      3  C   UNL     1       0.510   9.318  22.325  0.00  0.00    +0.000 C 
BRANCH   3   4
ATOM      4  C   UNL     1      -0.849   9.694  22.941  0.00  0.00    +0.000 C 
BRANCH   4   5
ATOM      5  C   UNL     1      -1.041  11.201  23.139  0.00  0.00    +0.000 C 
BRANCH   5   6
ATOM      6  C   UNL     1      -1.369  11.873  21.816  0.00  0.00    +0.000 C 
BRANCH   6   9
ATOM      7  C   UNL     1       0.157  12.480  19.943  0.00  0.00    +0.000 C 
ATOM      8  O   UNL     1      -0.496  11.850  19.120  0.00  0.00    +0.000 OA
ATOM      9  N   UNL     1      -0.191  12.585  21.272  0.00  0.00    +0.000 N 
ATOM     10  H   UNL     1       0.395  13.042  21.971  0.00  0.00    +0.000 HD
BRANCH   7  14
ATOM     11  C   UNL     1       3.805  14.656  18.849  0.00  0.00    +0.000 A 
ATOM     12  C   UNL     1       3.082  14.906  20.010  0.00  0.00    +0.000 A 
ATOM     13  C   UNL     1       1.912  14.193  20.368  0.00  0.00    +0.000 A 
ATOM     14  C   UNL     1       1.418  13.190  19.524  0.00  0.00    +0.000 A 
ATOM     15  C   UNL     1       2.123  12.893  18.339  0.00  0.00    +0.000 A 
ATOM     16  C   UNL     1       3.274  13.647  18.009  0.00  0.00    +0.000 A 
BRANCH  11  18
ATOM     17  C   UNL     1       5.161  16.733  18.961  0.00  0.00    +0.000 C 
ATOM     18  N   UNL     1       4.952  15.364  18.500  0.00  0.00    +0.000 N 
ATOM     19  C   UNL     1       6.078  14.694  17.858  0.00  0.00    +0.000 C 
ENDBRANCH  11  18
ENDBRANCH   7  14
ENDBRANCH   6   9
ENDBRANCH   5   6
ENDBRANCH   4   5
ENDBRANCH   3   4
ENDBRANCH   2   3
ENDBRANCH   1   2
BRANCH   1  20
ATOM     20  C   UNL     1       2.113   8.788  18.874  0.00  0.00    +0.000 C 
BRANCH  20  21
ATOM     21  C   UNL     1       2.042   7.823  17.646  0.00  0.00    +0.000 C 
BRANCH  21  22
ATOM     22  N   UNL     1       2.045   6.349  17.990  0.00  0.00    +0.000 N 
ATOM     23  H   UNL     1       1.972   5.787  17.138  0.00  0.00    +0.000 HD
BRANCH  22  24
ATOM     24  C   UNL     1       3.234   5.894  18.689  0.00  0.00    +0.000 A 
ATOM     25  C   UNL     1       4.541   5.964  18.132  0.00  0.00    +0.000 A 
ATOM     26  C   UNL     1       5.230   4.802  18.400  0.00  0.00    +0.000 A 
ATOM     27  N   UNL     1       4.631   3.632  18.653  0.00  0.00    +0.000 NA
ATOM     28  C   UNL     1       3.411   3.729  19.197  0.00  0.00    +0.000 A 
ATOM     29  C   UNL     1       2.304   2.926  18.896  0.00  0.00    +0.000 A 
ATOM     30  C   UNL     1       1.124   3.084  19.597  0.00  0.00    +0.000 A 
ATOM     31  C   UNL     1       1.240   3.705  20.809  0.00  0.00    +0.000 A 
ATOM     32  C   UNL     1       2.244   4.658  20.914  0.00  0.00    +0.000 A 
ATOM     33  C   UNL     1       3.043   4.909  19.786  0.00  0.00    +0.000 A 
ATOM     34  C   UNL     1       6.702   4.791  18.635  0.00  0.00    +0.000 C 
ATOM     35  C   UNL     1       7.584   5.948  18.240  0.00  0.00    +0.000 C 
ATOM     36  C   UNL     1       6.880   6.912  17.311  0.00  0.00    +0.000 C 
ATOM     37  C   UNL     1       5.290   6.929  17.285  0.00  0.00    +0.000 C 
ENDBRANCH  22  24
ENDBRANCH  21  22
ENDBRANCH  20  21
ENDBRANCH   1  20
TORSDOF 12
ENDMDL
MODEL 8
REMARK VINA RESULT:      -7.4      7.039     12.207
REMARK  Name = 
REMARK  14 active torsions:
REMARK  status: ('A' for Active; 'I' for Inactive)
REMARK    1  A    between atoms: C_1  and  N_2
REMARK    2  A    between atoms: N_2  and  C_3
REMARK    3  A    between atoms: N_2  and  C_4
REMARK    4  A    between atoms: C_7  and  C_8
REMARK    5  A    between atoms: N_10  and  C_11
REMARK    6  A    between atoms: C_11  and  C_12
REMARK    7  A    between atoms: C_12  and  C_13
REMARK    8  A    between atoms: C_13  and  C_14
REMARK    9  A    between atoms: C_14  and  C_15
REMARK   10  A    between atoms: C_15  and  C_16
REMARK   11  A    between atoms: C_16  and  C_17
REMARK   12  A    between atoms: C_17  and  C_18
REMARK   13  A    between atoms: C_18  and  N_19
REMARK   14  A    between atoms: N_19  and  C_20
REMARK                            x       y       z     vdW  Elec       q    Type
REMARK                         _______ _______ _______ _____ _____    ______ ____
ROOT
ATOM      1  C   UNL     1      -1.934  11.792  18.869  0.00  0.00    +0.000 C 
ENDROOT
BRANCH   1   2
ATOM      2  C   UNL     1      -0.934  10.770  18.292  0.00  0.00    +0.000 C 
BRANCH   2   3
ATOM      3  C   UNL     1       0.510  10.917  18.834  0.00  0.00    +0.000 C 
BRANCH   3   4
ATOM      4  C   UNL     1       1.102   9.543  19.191  0.00  0.00    +0.000 C 
BRANCH   4   5
ATOM      5  C   UNL     1       0.770   9.079  20.613  0.00  0.00    +0.000 C 
BRANCH   5   6
ATOM      6  C   UNL     1       1.533   7.807  20.948  0.00  0.00    +0.000 C 
BRANCH   6   9
ATOM      7  C   UNL     1       2.394   6.043  19.415  0.00  0.00    +0.000 C 
ATOM      8  O   UNL     1       1.715   5.166  19.935  0.00  0.00    +0.000 OA
ATOM      9  N   UNL     1       2.362   7.364  19.804  0.00  0.00    +0.000 N 
ATOM     10  H   UNL     1       2.986   8.077  19.425  0.00  0.00    +0.000 HD
BRANCH   7  14
ATOM     11  C   UNL     1       5.108   4.888  16.168  0.00  0.00    +0.000 A 
ATOM     12  C   UNL     1       4.383   3.973  16.923  0.00  0.00    +0.000 A 
ATOM     13  C   UNL     1       3.496   4.349  17.962  0.00  0.00    +0.000 A 
ATOM     14  C   UNL     1       3.331   5.702  18.286  0.00  0.00    +0.000 A 
ATOM     15  C   UNL     1       4.039   6.669  17.541  0.00  0.00    +0.000 A 
ATOM     16  C   UNL     1       4.932   6.247  16.528  0.00  0.00    +0.000 A 
BRANCH  11  18
ATOM     17  C   UNL     1       5.487   3.919  13.913  0.00  0.00    +0.000 C 
ATOM     18  N   UNL     1       5.982   4.513  15.151  0.00  0.00    +0.000 N 
ATOM     19  C   UNL     1       7.387   4.904  15.192  0.00  0.00    +0.000 C 
ENDBRANCH  11  18
ENDBRANCH   7  14
ENDBRANCH   6   9
ENDBRANCH   5   6
ENDBRANCH   4   5
ENDBRANCH   3   4
ENDBRANCH   2   3
ENDBRANCH   1   2
BRANCH   1  20
ATOM     20  C   UNL     1      -1.601  12.329  20.306  0.00  0.00    +0.000 C 
BRANCH  20  21
ATOM     21  C   UNL     1      -2.054  13.796  20.601  0.00  0.00    +0.000 C 
BRANCH  21  22
ATOM     22  N   UNL     1      -3.547  14.032  20.523  0.00  0.00    +0.000 N 
ATOM     23  H   UNL     1      -3.831  14.179  19.550  0.00  0.00    +0.000 HD
BRANCH  22  24
ATOM     24  C   UNL     1      -4.358  12.940  21.033  0.00  0.00    +0.000 A 
ATOM     25  C   UNL     1      -5.402  12.327  20.286  0.00  0.00    +0.000 A 
ATOM     26  C   UNL     1      -6.496  12.112  21.095  0.00  0.00    +0.000 A 
ATOM     27  N   UNL     1      -6.741  12.817  22.206  0.00  0.00    +0.000 NA
ATOM     28  C   UNL     1      -5.654  13.314  22.810  0.00  0.00    +0.000 A 
ATOM     29  C   UNL     1      -5.543  14.576  23.408  0.00  0.00    +0.000 A 
ATOM     30  C   UNL     1      -4.383  14.928  24.070  0.00  0.00    +0.000 A 
ATOM     31  C   UNL     1      -3.594  13.884  24.467  0.00  0.00    +0.000 A 
ATOM     32  C   UNL     1      -3.618  12.758  23.656  0.00  0.00    +0.000 A 
ATOM     33  C   UNL     1      -4.430  12.780  22.510  0.00  0.00    +0.000 A 
ATOM     34  C   UNL     1      -7.393  10.936  20.916  0.00  0.00    +0.000 C 
ATOM     35  C   UNL     1      -7.400  10.120  19.647  0.00  0.00    +0.000 C 
ATOM     36  C   UNL     1      -6.679  10.819  18.516  0.00  0.00    +0.000 C 
ATOM     37  C   UNL     1      -5.617  11.951  18.865  0.00  0.00    +0.000 C 
ENDBRANCH  22  24
ENDBRANCH  21  22
ENDBRANCH  20  21
ENDBRANCH   1  20
TORSDOF 12
ENDMDL
MODEL 9
REMARK VINA RESULT:      -7.3      5.729      8.374
REMARK  Name = 
REMARK  14 active torsions:
REMARK  status: ('A' for Active; 'I' for Inactive)
REMARK    1  A    between atoms: C_1  and  N_2
REMARK    2  A    between atoms: N_2  and  C_3
REMARK    3  A    between atoms: N_2  and  C_4
REMARK    4  A    between atoms: C_7  and  C_8
REMARK    5  A    between atoms: N_10  and  C_11
REMARK    6  A    between atoms: C_11  and  C_12
REMARK    7  A    between atoms: C_12  and  C_13
REMARK    8  A    between atoms: C_13  and  C_14
REMARK    9  A    between atoms: C_14  and  C_15
REMARK   10  A    between atoms: C_15  and  C_16
REMARK   11  A    between atoms: C_16  and  C_17
REMARK   12  A    between atoms: C_17  and  C_18
REMARK   13  A    between atoms: C_18  and  N_19
REMARK   14  A    between atoms: N_19  and  C_20
REMARK                            x       y       z     vdW  Elec       q    Type
REMARK                         _______ _______ _______ _____ _____    ______ ____
ROOT
ATOM      1  C   UNL     1       1.520   8.487  21.268  0.00  0.00    +0.000 C 
ENDROOT
BRANCH   1   2
ATOM      2  C   UNL     1       0.232   9.090  21.862  0.00  0.00    +0.000 C 
BRANCH   2   3
ATOM      3  C   UNL     1      -0.600   9.926  20.858  0.00  0.00    +0.000 C 
BRANCH   3   4
ATOM      4  C   UNL     1       0.260  11.033  20.223  0.00  0.00    +0.000 C 
BRANCH   4   5
ATOM      5  C   UNL     1      -0.056  11.290  18.746  0.00  0.00    +0.000 C 
BRANCH   5   6
ATOM      6  C   UNL     1      -0.586  12.702  18.554  0.00  0.00    +0.000 C 
BRANCH   6   9
ATOM      7  C   UNL     1      -1.911  13.790  20.361  0.00  0.00    +0.000 C 
ATOM      8  O   UNL     1      -0.975  14.497  20.713  0.00  0.00    +0.000 OA
ATOM      9  N   UNL     1      -1.845  12.906  19.306  0.00  0.00    +0.000 N 
ATOM     10  H   UNL     1      -2.598  12.262  19.065  0.00  0.00    +0.000 HD
BRANCH   7  14
ATOM     11  C   UNL     1      -5.696  14.136  22.552  0.00  0.00    +0.000 A 
ATOM     12  C   UNL     1      -4.800  15.188  22.399  0.00  0.00    +0.000 A 
ATOM     13  C   UNL     1      -3.585  15.078  21.679  0.00  0.00    +0.000 A 
ATOM     14  C   UNL     1      -3.225  13.857  21.095  0.00  0.00    +0.000 A 
ATOM     15  C   UNL     1      -4.107  12.762  21.215  0.00  0.00    +0.000 A 
ATOM     16  C   UNL     1      -5.299  12.911  21.963  0.00  0.00    +0.000 A 
BRANCH  11  18
ATOM     17  C   UNL     1      -7.384  13.143  24.078  0.00  0.00    +0.000 C 
ATOM     18  N   UNL     1      -6.886  14.249  23.265  0.00  0.00    +0.000 N 
ATOM     19  C   UNL     1      -7.553  15.539  23.408  0.00  0.00    +0.000 C 
ENDBRANCH  11  18
ENDBRANCH   7  14
ENDBRANCH   6   9
ENDBRANCH   5   6
ENDBRANCH   4   5
ENDBRANCH   3   4
ENDBRANCH   2   3
ENDBRANCH   1   2
BRANCH   1  20
ATOM     20  C   UNL     1       1.325   7.201  20.390  0.00  0.00    +0.000 C 
BRANCH  20  21
ATOM     21  C   UNL     1       2.547   6.796  19.503  0.00  0.00    +0.000 C 
BRANCH  21  22
ATOM     22  N   UNL     1       3.539   5.865  20.167  0.00  0.00    +0.000 N 
ATOM     23  H   UNL     1       3.089   5.359  20.934  0.00  0.00    +0.000 HD
BRANCH  22  24
ATOM     24  C   UNL     1       4.110   4.863  19.285  0.00  0.00    +0.000 A 
ATOM     25  C   UNL     1       4.882   5.185  18.134  0.00  0.00    +0.000 A 
ATOM     26  C   UNL     1       4.519   4.372  17.082  0.00  0.00    +0.000 A 
ATOM     27  N   UNL     1       3.324   3.777  16.988  0.00  0.00    +0.000 NA
ATOM     28  C   UNL     1       2.729   3.520  18.160  0.00  0.00    +0.000 A 
ATOM     29  C   UNL     1       1.364   3.653  18.442  0.00  0.00    +0.000 A 
ATOM     30  C   UNL     1       0.872   3.271  19.675  0.00  0.00    +0.000 A 
ATOM     31  C   UNL     1       1.659   2.401  20.377  0.00  0.00    +0.000 A 
ATOM     32  C   UNL     1       3.028   2.521  20.181  0.00  0.00    +0.000 A 
ATOM     33  C   UNL     1       3.489   3.512  19.299  0.00  0.00    +0.000 A 
ATOM     34  C   UNL     1       5.502   3.919  16.057  0.00  0.00    +0.000 C 
ATOM     35  C   UNL     1       6.840   4.591  15.879  0.00  0.00    +0.000 C 
ATOM     36  C   UNL     1       6.908   5.925  16.588  0.00  0.00    +0.000 C 
ATOM     37  C   UNL     1       5.897   6.211  17.783  0.00  0.00    +0.000 C 
ENDBRANCH  22  24
ENDBRANCH  21  22
ENDBRANCH  20  21
ENDBRANCH   1  20
TORSDOF 12
ENDMDL
