MODEL 1
REMARK VINA RESULT:      -7.4      0.000      0.000
REMARK  Name = 
REMARK  8 active torsions:
REMARK  status: ('A' for Active; 'I' for Inactive)
REMARK    1  A    between atoms: C_1  and  N_2
REMARK    2  A    between atoms: C_3  and  C_4
REMARK    3  A    between atoms: C_4  and  N_5
REMARK    4  A    between atoms: C_6  and  C_8
REMARK    5  A    between atoms: C_15  and  S_16
REMARK    6  A    between atoms: S_16  and  C_17
REMARK    7  A    between atoms: C_17  and  C_18
REMARK    8  A    between atoms: N_20  and  C_21
REMARK                            x       y       z     vdW  Elec       q    Type
REMARK                         _______ _______ _______ _____ _____    ______ ____
ROOT
ATOM      1  C   UNL     1       2.624   4.440  17.492  0.00  0.00    +0.000 C 
ATOM      2  N   UNL     1       3.904   4.333  18.142  0.00  0.00    +0.000 N 
ATOM      3  C   UNL     1       5.077   4.970  17.815  0.00  0.00    +0.000 A 
ATOM      4  N   UNL     1       6.000   4.631  18.698  0.00  0.00    +0.000 NA
ATOM      5  N   UNL     1       5.443   3.741  19.587  0.00  0.00    +0.000 NA
ATOM      6  C   UNL     1       4.195   3.558  19.232  0.00  0.00    +0.000 A 
ENDROOT
BRANCH   3   7
ATOM      7  C   UNL     1       5.284   5.864  16.643  0.00  0.00    +0.000 C 
BRANCH   7   8
ATOM      8  N   UNL     1       5.312   5.075  15.438  0.00  0.00    +0.000 N 
ATOM      9  C   UNL     1       6.430   4.922  14.651  0.00  0.00    +0.000 C 
ATOM     10  O   UNL     1       7.507   5.428  14.959  0.00  0.00    +0.000 OA
ATOM     11  H   UNL     1       4.470   4.572  15.181  0.00  0.00    +0.000 HD
BRANCH   9  12
ATOM     12  C   UNL     1       6.255   4.123  13.446  0.00  0.00    +0.000 A 
ATOM     13  C   UNL     1       5.107   3.454  13.055  0.00  0.00    +0.000 A 
ATOM     14  C   UNL     1       5.277   2.735  11.836  0.00  0.00    +0.000 A 
ATOM     15  C   UNL     1       6.551   2.871  11.334  0.00  0.00    +0.000 A 
ATOM     16  S   UNL     1       7.524   3.873  12.318  0.00  0.00    +0.000 S 
ENDBRANCH   9  12
ENDBRANCH   7   8
ENDBRANCH   3   7
BRANCH   6  17
ATOM     17  S   UNL     1       3.063   2.474  19.956  0.00  0.00    +0.000 S 
BRANCH  17  18
ATOM     18  C   UNL     1       2.464   3.484  21.339  0.00  0.00    +0.000 C 
BRANCH  18  19
ATOM     19  C   UNL     1       1.698   4.678  20.792  0.00  0.00    +0.000 C 
ATOM     20  O   UNL     1       0.558   4.537  20.354  0.00  0.00    +0.000 OA
ATOM     21  N   UNL     1       2.423   5.865  20.803  0.00  0.00    +0.000 N 
ATOM     22  H   UNL     1       3.400   5.802  21.067  0.00  0.00    +0.000 HD
BRANCH  21  23
ATOM     23  C   UNL     1       1.962   7.129  20.372  0.00  0.00    +0.000 A 
ATOM     24  C   UNL     1       1.192   7.978  21.173  0.00  0.00    +0.000 A 
ATOM     25  C   UNL     1       0.705   9.188  20.670  0.00  0.00    +0.000 A 
ATOM     26  C   UNL     1       0.993   9.561  19.362  0.00  0.00    +0.000 A 
ATOM     27 CL   UNL     1       0.345  11.021  18.726  0.00  0.00    +0.000 Cl
ATOM     28  C   UNL     1       1.797   8.749  18.565  0.00  0.00    +0.000 A 
ATOM     29  C   UNL     1       2.293   7.542  19.076  0.00  0.00    +0.000 A 
ENDBRANCH  21  23
ENDBRANCH  18  19
ENDBRANCH  17  18
ENDBRANCH   6  17
TORSDOF 7
ENDMDL
MODEL 2
REMARK VINA RESULT:      -7.3      0.398      1.009
REMARK  Name = 
REMARK  8 active torsions:
REMARK  status: ('A' for Active; 'I' for Inactive)
REMARK    1  A    between atoms: C_1  and  N_2
REMARK    2  A    between atoms: C_3  and  C_4
REMARK    3  A    between atoms: C_4  and  N_5
REMARK    4  A    between atoms: C_6  and  C_8
REMARK    5  A    between atoms: C_15  and  S_16
REMARK    6  A    between atoms: S_16  and  C_17
REMARK    7  A    between atoms: C_17  and  C_18
REMARK    8  A    between atoms: N_20  and  C_21
REMARK                            x       y       z     vdW  Elec       q    Type
REMARK                         _______ _______ _______ _____ _____    ______ ____
ROOT
ATOM      1  C   UNL     1       3.000   4.478  17.331  0.00  0.00    +0.000 C 
ATOM      2  N   UNL     1       4.238   4.293  18.040  0.00  0.00    +0.000 N 
ATOM      3  C   UNL     1       5.476   4.807  17.735  0.00  0.00    +0.000 A 
ATOM      4  N   UNL     1       6.329   4.435  18.673  0.00  0.00    +0.000 NA
ATOM      5  N   UNL     1       5.659   3.646  19.580  0.00  0.00    +0.000 NA
ATOM      6  C   UNL     1       4.416   3.555  19.179  0.00  0.00    +0.000 A 
ENDROOT
BRANCH   3   7
ATOM      7  C   UNL     1       5.809   5.617  16.531  0.00  0.00    +0.000 C 
BRANCH   7   8
ATOM      8  N   UNL     1       5.625   4.814  15.349  0.00  0.00    +0.000 N 
ATOM      9  C   UNL     1       6.524   4.771  14.308  0.00  0.00    +0.000 C 
ATOM     10  O   UNL     1       7.580   5.398  14.345  0.00  0.00    +0.000 OA
ATOM     11  H   UNL     1       4.807   4.217  15.303  0.00  0.00    +0.000 HD
BRANCH   9  12
ATOM     12  C   UNL     1       6.146   3.936  13.176  0.00  0.00    +0.000 A 
ATOM     13  C   UNL     1       4.860   3.612  12.778  0.00  0.00    +0.000 A 
ATOM     14  C   UNL     1       4.835   2.745  11.646  0.00  0.00    +0.000 A 
ATOM     15  C   UNL     1       6.102   2.429  11.216  0.00  0.00    +0.000 A 
ATOM     16  S   UNL     1       7.308   3.187  12.160  0.00  0.00    +0.000 S 
ENDBRANCH   9  12
ENDBRANCH   7   8
ENDBRANCH   3   7
BRANCH   6  17
ATOM     17  S   UNL     1       3.163   2.613  19.905  0.00  0.00    +0.000 S 
BRANCH  17  18
ATOM     18  C   UNL     1       2.638   3.721  21.242  0.00  0.00    +0.000 C 
BRANCH  18  19
ATOM     19  C   UNL     1       1.821   4.862  20.656  0.00  0.00    +0.000 C 
ATOM     20  O   UNL     1       0.667   4.668  20.280  0.00  0.00    +0.000 OA
ATOM     21  N   UNL     1       2.516   6.062  20.560  0.00  0.00    +0.000 N 
ATOM     22  H   UNL     1       3.504   6.037  20.784  0.00  0.00    +0.000 HD
BRANCH  21  23
ATOM     23  C   UNL     1       2.006   7.286  20.072  0.00  0.00    +0.000 A 
ATOM     24  C   UNL     1       2.248   7.755  18.777  0.00  0.00    +0.000 A 
ATOM     25  C   UNL     1       1.777   9.007  18.371  0.00  0.00    +0.000 A 
ATOM     26  C   UNL     1       1.053   9.796  19.258  0.00  0.00    +0.000 A 
ATOM     27 CL   UNL     1       0.526  11.360  18.777  0.00  0.00    +0.000 Cl
ATOM     28  C   UNL     1       0.764   9.325  20.537  0.00  0.00    +0.000 A 
ATOM     29  C   UNL     1       1.228   8.065  20.937  0.00  0.00    +0.000 A 
ENDBRANCH  21  23
ENDBRANCH  18  19
ENDBRANCH  17  18
ENDBRANCH   6  17
TORSDOF 7
ENDMDL
MODEL 3
REMARK VINA RESULT:      -7.2      3.818      7.730
REMARK  Name = 
REMARK  8 active torsions:
REMARK  status: ('A' for Active; 'I' for Inactive)
REMARK    1  A    between atoms: C_1  and  N_2
REMARK    2  A    between atoms: C_3  and  C_4
REMARK    3  A    between atoms: C_4  and  N_5
REMARK    4  A    between atoms: C_6  and  C_8
REMARK    5  A    between atoms: C_15  and  S_16
REMARK    6  A    between atoms: S_16  and  C_17
REMARK    7  A    between atoms: C_17  and  C_18
REMARK    8  A    between atoms: N_20  and  C_21
REMARK                            x       y       z     vdW  Elec       q    Type
REMARK                         _______ _______ _______ _____ _____    ______ ____
ROOT
ATOM      1  C   UNL     1       1.598   4.871  17.666  0.00  0.00    +0.000 C 
ATOM      2  N   UNL     1       1.950   4.804  19.060  0.00  0.00    +0.000 N 
ATOM      3  C   UNL     1       2.221   5.845  19.917  0.00  0.00    +0.000 A 
ATOM      4  N   UNL     1       2.449   5.349  21.121  0.00  0.00    +0.000 NA
ATOM      5  N   UNL     1       2.362   3.978  21.048  0.00  0.00    +0.000 NA
ATOM      6  C   UNL     1       2.081   3.666  19.808  0.00  0.00    +0.000 A 
ENDROOT
BRANCH   3   7
ATOM      7  C   UNL     1       2.282   7.284  19.545  0.00  0.00    +0.000 C 
BRANCH   7   8
ATOM      8  N   UNL     1       1.505   8.054  20.484  0.00  0.00    +0.000 N 
ATOM      9  C   UNL     1       0.921   9.263  20.181  0.00  0.00    +0.000 C 
ATOM     10  O   UNL     1       0.997   9.749  19.054  0.00  0.00    +0.000 OA
ATOM     11  H   UNL     1       1.346   7.661  21.404  0.00  0.00    +0.000 HD
BRANCH   9  12
ATOM     12  C   UNL     1       0.211   9.917  21.271  0.00  0.00    +0.000 A 
ATOM     13  C   UNL     1      -0.260   9.320  22.429  0.00  0.00    +0.000 A 
ATOM     14  C   UNL     1      -0.943  10.235  23.282  0.00  0.00    +0.000 A 
ATOM     15  C   UNL     1      -0.978  11.503  22.749  0.00  0.00    +0.000 A 
ATOM     16  S   UNL     1      -0.177  11.588  21.242  0.00  0.00    +0.000 S 
ENDBRANCH   9  12
ENDBRANCH   7   8
ENDBRANCH   3   7
BRANCH   6  17
ATOM     17  S   UNL     1       1.945   2.076  19.148  0.00  0.00    +0.000 S 
BRANCH  17  18
ATOM     18  C   UNL     1       3.692   1.682  18.853  0.00  0.00    +0.000 C 
BRANCH  18  19
ATOM     19  C   UNL     1       4.361   2.860  18.163  0.00  0.00    +0.000 C 
ATOM     20  O   UNL     1       4.286   2.989  16.943  0.00  0.00    +0.000 OA
ATOM     21  N   UNL     1       5.066   3.692  19.026  0.00  0.00    +0.000 N 
ATOM     22  H   UNL     1       5.153   3.385  19.989  0.00  0.00    +0.000 HD
BRANCH  21  23
ATOM     23  C   UNL     1       5.769   4.864  18.669  0.00  0.00    +0.000 A 
ATOM     24  C   UNL     1       5.283   5.799  17.750  0.00  0.00    +0.000 A 
ATOM     25  C   UNL     1       6.054   6.906  17.381  0.00  0.00    +0.000 A 
ATOM     26  C   UNL     1       7.315   7.089  17.938  0.00  0.00    +0.000 A 
ATOM     27 CL   UNL     1       8.285   8.418  17.440  0.00  0.00    +0.000 Cl
ATOM     28  C   UNL     1       7.795   6.192  18.890  0.00  0.00    +0.000 A 
ATOM     29  C   UNL     1       7.016   5.089  19.265  0.00  0.00    +0.000 A 
ENDBRANCH  21  23
ENDBRANCH  18  19
ENDBRANCH  17  18
ENDBRANCH   6  17
TORSDOF 7
ENDMDL
MODEL 4
REMARK VINA RESULT:      -7.2      2.120      2.749
REMARK  Name = 
REMARK  8 active torsions:
REMARK  status: ('A' for Active; 'I' for Inactive)
REMARK    1  A    between atoms: C_1  and  N_2
REMARK    2  A    between atoms: C_3  and  C_4
REMARK    3  A    between atoms: C_4  and  N_5
REMARK    4  A    between atoms: C_6  and  C_8
REMARK    5  A    between atoms: C_15  and  S_16
REMARK    6  A    between atoms: S_16  and  C_17
REMARK    7  A    between atoms: C_17  and  C_18
REMARK    8  A    between atoms: N_20  and  C_21
REMARK                            x       y       z     vdW  Elec       q    Type
REMARK                         _______ _______ _______ _____ _____    ______ ____
ROOT
ATOM      1  C   UNL     1       4.415   6.425  17.841  0.00  0.00    +0.000 C 
ATOM      2  N   UNL     1       4.469   5.159  18.525  0.00  0.00    +0.000 N 
ATOM      3  C   UNL     1       5.544   4.314  18.662  0.00  0.00    +0.000 A 
ATOM      4  N   UNL     1       5.178   3.285  19.407  0.00  0.00    +0.000 NA
ATOM      5  N   UNL     1       3.849   3.435  19.731  0.00  0.00    +0.000 NA
ATOM      6  C   UNL     1       3.434   4.550  19.183  0.00  0.00    +0.000 A 
ENDROOT
BRANCH   3   7
ATOM      7  C   UNL     1       6.886   4.506  18.047  0.00  0.00    +0.000 C 
BRANCH   7   8
ATOM      8  N   UNL     1       6.814   4.207  16.639  0.00  0.00    +0.000 N 
ATOM      9  C   UNL     1       7.106   5.117  15.649  0.00  0.00    +0.000 C 
ATOM     10  O   UNL     1       7.493   6.253  15.914  0.00  0.00    +0.000 OA
ATOM     11  H   UNL     1       6.574   3.260  16.367  0.00  0.00    +0.000 HD
BRANCH   9  12
ATOM     12  C   UNL     1       6.933   4.646  14.282  0.00  0.00    +0.000 A 
ATOM     13  C   UNL     1       6.019   3.704  13.839  0.00  0.00    +0.000 A 
ATOM     14  C   UNL     1       6.130   3.442  12.442  0.00  0.00    +0.000 A 
ATOM     15  C   UNL     1       7.129   4.188  11.860  0.00  0.00    +0.000 A 
ATOM     16  S   UNL     1       7.910   5.206  12.988  0.00  0.00    +0.000 S 
ENDBRANCH   9  12
ENDBRANCH   7   8
ENDBRANCH   3   7
BRANCH   6  17
ATOM     17  S   UNL     1       1.824   5.175  19.203  0.00  0.00    +0.000 S 
BRANCH  17  18
ATOM     18  C   UNL     1       1.785   5.954  20.841  0.00  0.00    +0.000 C 
BRANCH  18  19
ATOM     19  C   UNL     1       1.445   7.428  20.687  0.00  0.00    +0.000 C 
ATOM     20  O   UNL     1       2.101   8.140  19.929  0.00  0.00    +0.000 OA
ATOM     21  N   UNL     1       0.398   7.853  21.497  0.00  0.00    +0.000 N 
ATOM     22  H   UNL     1       0.042   7.185  22.171  0.00  0.00    +0.000 HD
BRANCH  21  23
ATOM     23  C   UNL     1      -0.140   9.158  21.551  0.00  0.00    +0.000 A 
ATOM     24  C   UNL     1      -0.389   9.932  20.414  0.00  0.00    +0.000 A 
ATOM     25  C   UNL     1      -0.858  11.245  20.531  0.00  0.00    +0.000 A 
ATOM     26  C   UNL     1      -1.088  11.788  21.790  0.00  0.00    +0.000 A 
ATOM     27 CL   UNL     1      -1.608  13.421  21.935  0.00  0.00    +0.000 Cl
ATOM     28  C   UNL     1      -0.889  11.015  22.932  0.00  0.00    +0.000 A 
ATOM     29  C   UNL     1      -0.430   9.697  22.811  0.00  0.00    +0.000 A 
ENDBRANCH  21  23
ENDBRANCH  18  19
ENDBRANCH  17  18
ENDBRANCH   6  17
TORSDOF 7
ENDMDL
MODEL 5
REMARK VINA RESULT:      -7.1      4.433      5.808
REMARK  Name = 
REMARK  8 active torsions:
REMARK  status: ('A' for Active; 'I' for Inactive)
REMARK    1  A    between atoms: C_1  and  N_2
REMARK    2  A    between atoms: C_3  and  C_4
REMARK    3  A    between atoms: C_4  and  N_5
REMARK    4  A    between atoms: C_6  and  C_8
REMARK    5  A    between atoms: C_15  and  S_16
REMARK    6  A    between atoms: S_16  and  C_17
REMARK    7  A    between atoms: C_17  and  C_18
REMARK    8  A    between atoms: N_20  and  C_21
REMARK                            x       y       z     vdW  Elec       q    Type
REMARK                         _______ _______ _______ _____ _____    ______ ____
ROOT
ATOM      1  C   UNL     1       5.032   6.621  16.801  0.00  0.00    +0.000 C 
ATOM      2  N   UNL     1       6.023   6.236  17.772  0.00  0.00    +0.000 N 
ATOM      3  C   UNL     1       7.209   6.865  18.070  0.00  0.00    +0.000 A 
ATOM      4  N   UNL     1       7.794   6.212  19.058  0.00  0.00    +0.000 NA
ATOM      5  N   UNL     1       7.009   5.131  19.388  0.00  0.00    +0.000 NA
ATOM      6  C   UNL     1       5.963   5.148  18.601  0.00  0.00    +0.000 A 
ENDROOT
BRANCH   3   7
ATOM      7  C   UNL     1       7.758   8.059  17.373  0.00  0.00    +0.000 C 
BRANCH   7   8
ATOM      8  N   UNL     1       8.465   8.883  18.321  0.00  0.00    +0.000 N 
ATOM      9  C   UNL     1       8.593  10.248  18.201  0.00  0.00    +0.000 C 
ATOM     10  O   UNL     1       8.065  10.864  17.277  0.00  0.00    +0.000 OA
ATOM     11  H   UNL     1       8.853   8.435  19.144  0.00  0.00    +0.000 HD
BRANCH   9  12
ATOM     12  C   UNL     1       9.381  10.906  19.233  0.00  0.00    +0.000 A 
ATOM     13  C   UNL     1       9.181  10.832  20.602  0.00  0.00    +0.000 A 
ATOM     14  C   UNL     1      10.111  11.624  21.338  0.00  0.00    +0.000 A 
ATOM     15  C   UNL     1      10.990  12.283  20.511  0.00  0.00    +0.000 A 
ATOM     16  S   UNL     1      10.705  11.933  18.863  0.00  0.00    +0.000 S 
ENDBRANCH   9  12
ENDBRANCH   7   8
ENDBRANCH   3   7
BRANCH   6  17
ATOM     17  S   UNL     1       4.702   3.970  18.531  0.00  0.00    +0.000 S 
BRANCH  17  18
ATOM     18  C   UNL     1       3.863   4.281  20.110  0.00  0.00    +0.000 C 
BRANCH  18  19
ATOM     19  C   UNL     1       2.703   5.236  19.881  0.00  0.00    +0.000 C 
ATOM     20  O   UNL     1       1.560   4.804  19.748  0.00  0.00    +0.000 OA
ATOM     21  N   UNL     1       3.080   6.572  19.796  0.00  0.00    +0.000 N 
ATOM     22  H   UNL     1       4.076   6.766  19.789  0.00  0.00    +0.000 HD
BRANCH  21  23
ATOM     23  C   UNL     1       2.218   7.674  19.605  0.00  0.00    +0.000 A 
ATOM     24  C   UNL     1       1.417   8.206  20.620  0.00  0.00    +0.000 A 
ATOM     25  C   UNL     1       0.530   9.254  20.356  0.00  0.00    +0.000 A 
ATOM     26  C   UNL     1       0.444   9.782  19.072  0.00  0.00    +0.000 A 
ATOM     27 CL   UNL     1      -0.689  11.030  18.735  0.00  0.00    +0.000 Cl
ATOM     28  C   UNL     1       1.268   9.295  18.060  0.00  0.00    +0.000 A 
ATOM     29  C   UNL     1       2.164   8.252  18.331  0.00  0.00    +0.000 A 
ENDBRANCH  21  23
ENDBRANCH  18  19
ENDBRANCH  17  18
ENDBRANCH   6  17
TORSDOF 7
ENDMDL
MODEL 6
REMARK VINA RESULT:      -7.0      2.361      3.685
REMARK  Name = 
REMARK  8 active torsions:
REMARK  status: ('A' for Active; 'I' for Inactive)
REMARK    1  A    between atoms: C_1  and  N_2
REMARK    2  A    between atoms: C_3  and  C_4
REMARK    3  A    between atoms: C_4  and  N_5
REMARK    4  A    between atoms: C_6  and  C_8
REMARK    5  A    between atoms: C_15  and  S_16
REMARK    6  A    between atoms: S_16  and  C_17
REMARK    7  A    between atoms: C_17  and  C_18
REMARK    8  A    between atoms: N_20  and  C_21
REMARK                            x       y       z     vdW  Elec       q    Type
REMARK                         _______ _______ _______ _____ _____    ______ ____
ROOT
ATOM      1  C   UNL     1       4.761   2.744  19.078  0.00  0.00    +0.000 C 
ATOM      2  N   UNL     1       3.545   3.031  18.364  0.00  0.00    +0.000 N 
ATOM      3  C   UNL     1       3.406   3.508  17.082  0.00  0.00    +0.000 A 
ATOM      4  N   UNL     1       2.117   3.581  16.798  0.00  0.00    +0.000 NA
ATOM      5  N   UNL     1       1.406   3.184  17.907  0.00  0.00    +0.000 NA
ATOM      6  C   UNL     1       2.271   2.875  18.840  0.00  0.00    +0.000 A 
ENDROOT
BRANCH   3   7
ATOM      7  C   UNL     1       4.518   3.910  16.179  0.00  0.00    +0.000 C 
BRANCH   7   8
ATOM      8  N   UNL     1       5.290   4.954  16.805  0.00  0.00    +0.000 N 
ATOM      9  C   UNL     1       6.629   5.161  16.566  0.00  0.00    +0.000 C 
ATOM     10  O   UNL     1       7.250   4.477  15.755  0.00  0.00    +0.000 OA
ATOM     11  H   UNL     1       4.807   5.595  17.423  0.00  0.00    +0.000 HD
BRANCH   9  12
ATOM     12  C   UNL     1       7.251   6.237  17.325  0.00  0.00    +0.000 A 
ATOM     13  C   UNL     1       7.417   7.550  16.917  0.00  0.00    +0.000 A 
ATOM     14  C   UNL     1       8.096   8.346  17.886  0.00  0.00    +0.000 A 
ATOM     15  C   UNL     1       8.434   7.616  19.002  0.00  0.00    +0.000 A 
ATOM     16  S   UNL     1       7.919   5.991  18.886  0.00  0.00    +0.000 S 
ENDBRANCH   9  12
ENDBRANCH   7   8
ENDBRANCH   3   7
BRANCH   6  17
ATOM     17  S   UNL     1       1.916   2.397  20.462  0.00  0.00    +0.000 S 
BRANCH  17  18
ATOM     18  C   UNL     1       2.378   3.900  21.366  0.00  0.00    +0.000 C 
BRANCH  18  19
ATOM     19  C   UNL     1       1.625   5.086  20.785  0.00  0.00    +0.000 C 
ATOM     20  O   UNL     1       0.416   5.010  20.572  0.00  0.00    +0.000 OA
ATOM     21  N   UNL     1       2.432   6.180  20.496  0.00  0.00    +0.000 N 
ATOM     22  H   UNL     1       3.433   6.050  20.597  0.00  0.00    +0.000 HD
BRANCH  21  23
ATOM     23  C   UNL     1       2.005   7.418  19.967  0.00  0.00    +0.000 A 
ATOM     24  C   UNL     1       2.308   7.842  18.669  0.00  0.00    +0.000 A 
ATOM     25  C   UNL     1       1.918   9.109  18.221  0.00  0.00    +0.000 A 
ATOM     26  C   UNL     1       1.214   9.956  19.069  0.00  0.00    +0.000 A 
ATOM     27 CL   UNL     1       0.786  11.535  18.537  0.00  0.00    +0.000 Cl
ATOM     28  C   UNL     1       0.863   9.532  20.348  0.00  0.00    +0.000 A 
ATOM     29  C   UNL     1       1.246   8.259  20.791  0.00  0.00    +0.000 A 
ENDBRANCH  21  23
ENDBRANCH  18  19
ENDBRANCH  17  18
ENDBRANCH   6  17
TORSDOF 7
ENDMDL
MODEL 7
REMARK VINA RESULT:      -6.8      6.399     11.554
REMARK  Name = 
REMARK  8 active torsions:
REMARK  status: ('A' for Active; 'I' for Inactive)
REMARK    1  A    between atoms: C_1  and  N_2
REMARK    2  A    between atoms: C_3  and  C_4
REMARK    3  A    between atoms: C_4  and  N_5
REMARK    4  A    between atoms: C_6  and  C_8
REMARK    5  A    between atoms: C_15  and  S_16
REMARK    6  A    between atoms: S_16  and  C_17
REMARK    7  A    between atoms: C_17  and  C_18
REMARK    8  A    between atoms: N_20  and  C_21
REMARK                            x       y       z     vdW  Elec       q    Type
REMARK                         _______ _______ _______ _____ _____    ______ ____
ROOT
ATOM      1  C   UNL     1      -1.074  12.646  20.094  0.00  0.00    +0.000 C 
ATOM      2  N   UNL     1      -0.575  11.756  21.110  0.00  0.00    +0.000 N 
ATOM      3  C   UNL     1      -0.801  11.804  22.465  0.00  0.00    +0.000 A 
ATOM      4  N   UNL     1      -0.200  10.770  23.028  0.00  0.00    +0.000 NA
ATOM      5  N   UNL     1       0.451  10.059  22.046  0.00  0.00    +0.000 NA
ATOM      6  C   UNL     1       0.233  10.669  20.908  0.00  0.00    +0.000 A 
ENDROOT
BRANCH   3   7
ATOM      7  C   UNL     1      -1.563  12.861  23.183  0.00  0.00    +0.000 C 
BRANCH   7   8
ATOM      8  N   UNL     1      -2.969  12.713  22.900  0.00  0.00    +0.000 N 
ATOM      9  C   UNL     1      -3.967  13.225  23.698  0.00  0.00    +0.000 C 
ATOM     10  O   UNL     1      -3.711  13.888  24.700  0.00  0.00    +0.000 OA
ATOM     11  H   UNL     1      -3.233  12.242  22.042  0.00  0.00    +0.000 HD
BRANCH   9  12
ATOM     12  C   UNL     1      -5.330  12.936  23.275  0.00  0.00    +0.000 A 
ATOM     13  C   UNL     1      -6.426  12.731  24.096  0.00  0.00    +0.000 A 
ATOM     14  C   UNL     1      -7.614  12.436  23.365  0.00  0.00    +0.000 A 
ATOM     15  C   UNL     1      -7.390  12.419  22.008  0.00  0.00    +0.000 A 
ATOM     16  S   UNL     1      -5.763  12.774  21.623  0.00  0.00    +0.000 S 
ENDBRANCH   9  12
ENDBRANCH   7   8
ENDBRANCH   3   7
BRANCH   6  17
ATOM     17  S   UNL     1       0.889  10.248  19.367  0.00  0.00    +0.000 S 
BRANCH  17  18
ATOM     18  C   UNL     1       1.516   8.581  19.711  0.00  0.00    +0.000 C 
BRANCH  18  19
ATOM     19  C   UNL     1       2.277   8.071  18.497  0.00  0.00    +0.000 C 
ATOM     20  O   UNL     1       2.218   8.676  17.429  0.00  0.00    +0.000 OA
ATOM     21  N   UNL     1       2.962   6.882  18.720  0.00  0.00    +0.000 N 
ATOM     22  H   UNL     1       2.809   6.426  19.613  0.00  0.00    +0.000 HD
BRANCH  21  23
ATOM     23  C   UNL     1       3.762   6.190  17.784  0.00  0.00    +0.000 A 
ATOM     24  C   UNL     1       4.718   6.818  16.980  0.00  0.00    +0.000 A 
ATOM     25  C   UNL     1       5.432   6.094  16.020  0.00  0.00    +0.000 A 
ATOM     26  C   UNL     1       5.197   4.732  15.864  0.00  0.00    +0.000 A 
ATOM     27 CL   UNL     1       6.033   3.856  14.643  0.00  0.00    +0.000 Cl
ATOM     28  C   UNL     1       4.282   4.082  16.687  0.00  0.00    +0.000 A 
ATOM     29  C   UNL     1       3.576   4.808  17.656  0.00  0.00    +0.000 A 
ENDBRANCH  21  23
ENDBRANCH  18  19
ENDBRANCH  17  18
ENDBRANCH   6  17
TORSDOF 7
ENDMDL
MODEL 8
REMARK VINA RESULT:      -6.7      5.967      7.953
REMARK  Name = 
REMARK  8 active torsions:
REMARK  status: ('A' for Active; 'I' for Inactive)
REMARK    1  A    between atoms: C_1  and  N_2
REMARK    2  A    between atoms: C_3  and  C_4
REMARK    3  A    between atoms: C_4  and  N_5
REMARK    4  A    between atoms: C_6  and  C_8
REMARK    5  A    between atoms: C_15  and  S_16
REMARK    6  A    between atoms: S_16  and  C_17
REMARK    7  A    between atoms: C_17  and  C_18
REMARK    8  A    between atoms: N_20  and  C_21
REMARK                            x       y       z     vdW  Elec       q    Type
REMARK                         _______ _______ _______ _____ _____    ______ ____
ROOT
ATOM      1  C   UNL     1       5.408   6.460  15.997  0.00  0.00    +0.000 C 
ATOM      2  N   UNL     1       6.311   5.960  17.000  0.00  0.00    +0.000 N 
ATOM      3  C   UNL     1       6.460   4.666  17.439  0.00  0.00    +0.000 A 
ATOM      4  N   UNL     1       7.434   4.633  18.332  0.00  0.00    +0.000 NA
ATOM      5  N   UNL     1       7.904   5.915  18.507  0.00  0.00    +0.000 NA
ATOM      6  C   UNL     1       7.212   6.699  17.719  0.00  0.00    +0.000 A 
ENDROOT
BRANCH   3   7
ATOM      7  C   UNL     1       5.639   3.502  17.008  0.00  0.00    +0.000 C 
BRANCH   7   8
ATOM      8  N   UNL     1       4.407   3.482  17.755  0.00  0.00    +0.000 N 
ATOM      9  C   UNL     1       4.283   2.925  19.008  0.00  0.00    +0.000 C 
ATOM     10  O   UNL     1       5.247   2.437  19.592  0.00  0.00    +0.000 OA
ATOM     11  H   UNL     1       3.599   3.941  17.351  0.00  0.00    +0.000 HD
BRANCH   9  12
ATOM     12  C   UNL     1       2.948   2.960  19.589  0.00  0.00    +0.000 A 
ATOM     13  C   UNL     1       1.750   3.089  18.906  0.00  0.00    +0.000 A 
ATOM     14  C   UNL     1       0.621   3.121  19.776  0.00  0.00    +0.000 A 
ATOM     15  C   UNL     1       0.989   3.020  21.097  0.00  0.00    +0.000 A 
ATOM     16  S   UNL     1       2.681   2.870  21.282  0.00  0.00    +0.000 S 
ENDBRANCH   9  12
ENDBRANCH   7   8
ENDBRANCH   3   7
BRANCH   6  17
ATOM     17  S   UNL     1       7.334   8.418  17.606  0.00  0.00    +0.000 S 
BRANCH  17  18
ATOM     18  C   UNL     1       8.777   8.725  18.662  0.00  0.00    +0.000 C 
BRANCH  18  19
ATOM     19  C   UNL     1       8.965  10.224  18.830  0.00  0.00    +0.000 C 
ATOM     20  O   UNL     1       8.717  10.989  17.900  0.00  0.00    +0.000 OA
ATOM     21  N   UNL     1       9.469  10.593  20.072  0.00  0.00    +0.000 N 
ATOM     22  H   UNL     1       9.755   9.843  20.691  0.00  0.00    +0.000 HD
BRANCH  21  23
ATOM     23  C   UNL     1       9.728  11.911  20.511  0.00  0.00    +0.000 A 
ATOM     24  C   UNL     1      10.721  12.723  19.954  0.00  0.00    +0.000 A 
ATOM     25  C   UNL     1      10.980  13.995  20.476  0.00  0.00    +0.000 A 
ATOM     26  C   UNL     1      10.240  14.465  21.555  0.00  0.00    +0.000 A 
ATOM     27 CL   UNL     1      10.600  16.003  22.232  0.00  0.00    +0.000 Cl
ATOM     28  C   UNL     1       9.217  13.687  22.092  0.00  0.00    +0.000 A 
ATOM     29  C   UNL     1       8.952  12.418  21.560  0.00  0.00    +0.000 A 
ENDBRANCH  21  23
ENDBRANCH  18  19
ENDBRANCH  17  18
ENDBRANCH   6  17
TORSDOF 7
ENDMDL
MODEL 9
REMARK VINA RESULT:      -6.7      5.847      8.082
REMARK  Name = 
REMARK  8 active torsions:
REMARK  status: ('A' for Active; 'I' for Inactive)
REMARK    1  A    between atoms: C_1  and  N_2
REMARK    2  A    between atoms: C_3  and  C_4
REMARK    3  A    between atoms: C_4  and  N_5
REMARK    4  A    between atoms: C_6  and  C_8
REMARK    5  A    between atoms: C_15  and  S_16
REMARK    6  A    between atoms: S_16  and  C_17
REMARK    7  A    between atoms: C_17  and  C_18
REMARK    8  A    between atoms: N_20  and  C_21
REMARK                            x       y       z     vdW  Elec       q    Type
REMARK                         _______ _______ _______ _____ _____    ______ ____
ROOT
ATOM      1  C   UNL     1       4.659   6.970  16.678  0.00  0.00    +0.000 C 
ATOM      2  N   UNL     1       5.910   6.292  16.900  0.00  0.00    +0.000 N 
ATOM      3  C   UNL     1       6.170   4.944  16.822  0.00  0.00    +0.000 A 
ATOM      4  N   UNL     1       7.457   4.751  17.047  0.00  0.00    +0.000 NA
ATOM      5  N   UNL     1       8.040   5.970  17.310  0.00  0.00    +0.000 NA
ATOM      6  C   UNL     1       7.100   6.879  17.235  0.00  0.00    +0.000 A 
ENDROOT
BRANCH   3   7
ATOM      7  C   UNL     1       5.164   3.878  16.561  0.00  0.00    +0.000 C 
BRANCH   7   8
ATOM      8  N   UNL     1       4.304   3.741  17.710  0.00  0.00    +0.000 N 
ATOM      9  C   UNL     1       2.958   3.467  17.627  0.00  0.00    +0.000 C 
ATOM     10  O   UNL     1       2.406   3.279  16.545  0.00  0.00    +0.000 OA
ATOM     11  H   UNL     1       4.725   3.810  18.629  0.00  0.00    +0.000 HD
BRANCH   9  12
ATOM     12  C   UNL     1       2.242   3.410  18.894  0.00  0.00    +0.000 A 
ATOM     13  C   UNL     1       1.751   4.484  19.618  0.00  0.00    +0.000 A 
ATOM     14  C   UNL     1       1.127   4.088  20.836  0.00  0.00    +0.000 A 
ATOM     15  C   UNL     1       1.163   2.724  21.010  0.00  0.00    +0.000 A 
ATOM     16  S   UNL     1       1.928   1.931  19.704  0.00  0.00    +0.000 S 
ENDBRANCH   9  12
ENDBRANCH   7   8
ENDBRANCH   3   7
BRANCH   6  17
ATOM     17  S   UNL     1       7.267   8.567  17.561  0.00  0.00    +0.000 S 
BRANCH  17  18
ATOM     18  C   UNL     1       8.698   8.556  18.677  0.00  0.00    +0.000 C 
BRANCH  18  19
ATOM     19  C   UNL     1       9.123   9.987  18.961  0.00  0.00    +0.000 C 
ATOM     20  O   UNL     1       9.150  10.410  20.115  0.00  0.00    +0.000 OA
ATOM     21  N   UNL     1       9.411  10.727  17.819  0.00  0.00    +0.000 N 
ATOM     22  H   UNL     1       9.213  10.287  16.927  0.00  0.00    +0.000 HD
BRANCH  21  23
ATOM     23  C   UNL     1       9.844  12.071  17.781  0.00  0.00    +0.000 A 
ATOM     24  C   UNL     1      11.176  12.442  17.571  0.00  0.00    +0.000 A 
ATOM     25  C   UNL     1      11.558  13.786  17.612  0.00  0.00    +0.000 A 
ATOM     26  C   UNL     1      10.607  14.770  17.857  0.00  0.00    +0.000 A 
ATOM     27 CL   UNL     1      11.088  16.417  17.966  0.00  0.00    +0.000 Cl
ATOM     28  C   UNL     1       9.268  14.422  18.022  0.00  0.00    +0.000 A 
ATOM     29  C   UNL     1       8.886  13.075  17.969  0.00  0.00    +0.000 A 
ENDBRANCH  21  23
ENDBRANCH  18  19
ENDBRANCH  17  18
ENDBRANCH   6  17
TORSDOF 7
ENDMDL
