MODEL 1
REMARK VINA RESULT:      -7.2      0.000      0.000
REMARK  Name = 
REMARK  3 active torsions:
REMARK  status: ('A' for Active; 'I' for Inactive)
REMARK    1  A    between atoms: C_2  and  C_17
REMARK    2  A    between atoms: N_3  and  C_4
REMARK    3  A    between atoms: C_4  and  N_6
REMARK                            x       y       z     vdW  Elec       q    Type
REMARK                         _______ _______ _______ _____ _____    ______ ____
ROOT
ATOM      1  N   UNL     1       3.625   5.572  20.229  0.00  0.00    +0.000 N 
ATOM      2  C   UNL     1       4.310   5.297  19.081  0.00  0.00    +0.000 A 
ATOM      3  N   UNL     1       3.808   5.035  17.902  0.00  0.00    +0.000 NA
ATOM      4  C   UNL     1       4.849   4.773  17.022  0.00  0.00    +0.000 A 
ATOM      5  C   UNL     1       4.713   4.456  15.656  0.00  0.00    +0.000 A 
ATOM      6  C   UNL     1       5.857   4.208  14.896  0.00  0.00    +0.000 A 
ATOM      7 BR   UNL     1       5.675   3.796  13.058  0.00  0.00    +0.000 Br
ATOM      8  C   UNL     1       7.125   4.261  15.466  0.00  0.00    +0.000 A 
ATOM      9  C   UNL     1       7.284   4.575  16.819  0.00  0.00    +0.000 A 
ATOM     10  C   UNL     1       6.132   4.835  17.577  0.00  0.00    +0.000 A 
ATOM     11  S   UNL     1       5.999   5.268  19.242  0.00  0.00    +0.000 S 
ATOM     12  H   UNL     1       4.172   5.755  21.060  0.00  0.00    +0.000 HD
ENDROOT
BRANCH   1  13
ATOM     13  C   UNL     1       2.266   5.507  20.392  0.00  0.00    +0.000 C 
ATOM     14  S   UNL     1       1.573   4.014  20.081  0.00  0.00    +0.000 S 
BRANCH  13  17
ATOM     15  O   UNL     1       2.210   8.199  19.137  0.00  0.00    +0.000 OA
ATOM     16  C   UNL     1       1.610   7.934  20.177  0.00  0.00    +0.000 C 
ATOM     17  N   UNL     1       1.619   6.670  20.769  0.00  0.00    +0.000 N 
ATOM     18  H   UNL     1       1.088   6.604  21.634  0.00  0.00    +0.000 HD
BRANCH  16  19
ATOM     19  C   UNL     1       0.847   8.967  20.877  0.00  0.00    +0.000 A 
ATOM     20  C   UNL     1       0.421   8.907  22.194  0.00  0.00    +0.000 A 
ATOM     21  C   UNL     1      -0.315  10.056  22.592  0.00  0.00    +0.000 A 
ATOM     22  C   UNL     1      -0.431  10.967  21.568  0.00  0.00    +0.000 A 
ATOM     23  S   UNL     1       0.357  10.433  20.146  0.00  0.00    +0.000 S 
ENDBRANCH  16  19
ENDBRANCH  13  17
ENDBRANCH   1  13
TORSDOF 3
ENDMDL
MODEL 2
REMARK VINA RESULT:      -6.7      3.789      7.188
REMARK  Name = 
REMARK  3 active torsions:
REMARK  status: ('A' for Active; 'I' for Inactive)
REMARK    1  A    between atoms: C_2  and  C_17
REMARK    2  A    between atoms: N_3  and  C_4
REMARK    3  A    between atoms: C_4  and  N_6
REMARK                            x       y       z     vdW  Elec       q    Type
REMARK                         _______ _______ _______ _____ _____    ______ ____
ROOT
ATOM      1  N   UNL     1       3.495   7.347  17.219  0.00  0.00    +0.000 N 
ATOM      2  C   UNL     1       2.698   7.983  18.126  0.00  0.00    +0.000 A 
ATOM      3  N   UNL     1       2.507   7.659  19.378  0.00  0.00    +0.000 NA
ATOM      4  C   UNL     1       1.592   8.542  19.934  0.00  0.00    +0.000 A 
ATOM      5  C   UNL     1       1.133   8.524  21.266  0.00  0.00    +0.000 A 
ATOM      6  C   UNL     1       0.202   9.477  21.680  0.00  0.00    +0.000 A 
ATOM      7 BR   UNL     1      -0.404   9.462  23.472  0.00  0.00    +0.000 Br
ATOM      8  C   UNL     1      -0.287  10.436  20.797  0.00  0.00    +0.000 A 
ATOM      9  C   UNL     1       0.155  10.474  19.472  0.00  0.00    +0.000 A 
ATOM     10  C   UNL     1       1.101   9.521  19.063  0.00  0.00    +0.000 A 
ATOM     11  S   UNL     1       1.850   9.323  17.522  0.00  0.00    +0.000 S 
ATOM     12  H   UNL     1       3.531   7.734  16.285  0.00  0.00    +0.000 HD
ENDROOT
BRANCH   1  13
ATOM     13  C   UNL     1       4.159   6.165  17.418  0.00  0.00    +0.000 C 
ATOM     14  S   UNL     1       5.476   5.901  16.419  0.00  0.00    +0.000 S 
BRANCH  13  17
ATOM     15  O   UNL     1       2.386   3.790  17.217  0.00  0.00    +0.000 OA
ATOM     16  C   UNL     1       2.820   4.211  18.287  0.00  0.00    +0.000 C 
ATOM     17  N   UNL     1       3.663   5.318  18.394  0.00  0.00    +0.000 N 
ATOM     18  H   UNL     1       3.930   5.557  19.345  0.00  0.00    +0.000 HD
BRANCH  16  19
ATOM     19  C   UNL     1       2.448   3.562  19.545  0.00  0.00    +0.000 A 
ATOM     20  C   UNL     1       1.206   3.630  20.153  0.00  0.00    +0.000 A 
ATOM     21  C   UNL     1       1.148   2.910  21.378  0.00  0.00    +0.000 A 
ATOM     22  C   UNL     1       2.349   2.307  21.672  0.00  0.00    +0.000 A 
ATOM     23  S   UNL     1       3.526   2.606  20.466  0.00  0.00    +0.000 S 
ENDBRANCH  16  19
ENDBRANCH  13  17
ENDBRANCH   1  13
TORSDOF 3
ENDMDL
MODEL 3
REMARK VINA RESULT:      -6.6      1.171      1.344
REMARK  Name = 
REMARK  3 active torsions:
REMARK  status: ('A' for Active; 'I' for Inactive)
REMARK    1  A    between atoms: C_2  and  C_17
REMARK    2  A    between atoms: N_3  and  C_4
REMARK    3  A    between atoms: C_4  and  N_6
REMARK                            x       y       z     vdW  Elec       q    Type
REMARK                         _______ _______ _______ _____ _____    ______ ____
ROOT
ATOM      1  N   UNL     1       3.571   5.943  20.071  0.00  0.00    +0.000 N 
ATOM      2  C   UNL     1       4.295   5.573  18.975  0.00  0.00    +0.000 A 
ATOM      3  N   UNL     1       3.845   5.341  17.769  0.00  0.00    +0.000 NA
ATOM      4  C   UNL     1       4.906   4.951  16.963  0.00  0.00    +0.000 A 
ATOM      5  C   UNL     1       4.824   4.621  15.596  0.00  0.00    +0.000 A 
ATOM      6  C   UNL     1       5.982   4.239  14.917  0.00  0.00    +0.000 A 
ATOM      7 BR   UNL     1       5.876   3.809  13.078  0.00  0.00    +0.000 Br
ATOM      8  C   UNL     1       7.210   4.170  15.569  0.00  0.00    +0.000 A 
ATOM      9  C   UNL     1       7.314   4.494  16.925  0.00  0.00    +0.000 A 
ATOM     10  C   UNL     1       6.150   4.890  17.602  0.00  0.00    +0.000 A 
ATOM     11  S   UNL     1       5.957   5.369  19.247  0.00  0.00    +0.000 S 
ATOM     12  H   UNL     1       4.080   6.085  20.934  0.00  0.00    +0.000 HD
ENDROOT
BRANCH   1  13
ATOM     13  C   UNL     1       2.206   6.025  20.145  0.00  0.00    +0.000 C 
ATOM     14  S   UNL     1       1.417   4.597  20.528  0.00  0.00    +0.000 S 
BRANCH  13  17
ATOM     15  O   UNL     1       1.606   8.324  21.928  0.00  0.00    +0.000 OA
ATOM     16  C   UNL     1       1.342   8.323  20.727  0.00  0.00    +0.000 C 
ATOM     17  N   UNL     1       1.631   7.255  19.878  0.00  0.00    +0.000 N 
ATOM     18  H   UNL     1       1.342   7.391  18.912  0.00  0.00    +0.000 HD
BRANCH  16  19
ATOM     19  C   UNL     1       0.676   9.472  20.114  0.00  0.00    +0.000 A 
ATOM     20  C   UNL     1      -0.423  10.140  20.628  0.00  0.00    +0.000 A 
ATOM     21  C   UNL     1      -0.859  11.209  19.798  0.00  0.00    +0.000 A 
ATOM     22  C   UNL     1      -0.079  11.332  18.672  0.00  0.00    +0.000 A 
ATOM     23  S   UNL     1       1.173  10.168  18.632  0.00  0.00    +0.000 S 
ENDBRANCH  16  19
ENDBRANCH  13  17
ENDBRANCH   1  13
TORSDOF 3
ENDMDL
MODEL 4
REMARK VINA RESULT:      -6.6      1.346      1.689
REMARK  Name = 
REMARK  3 active torsions:
REMARK  status: ('A' for Active; 'I' for Inactive)
REMARK    1  A    between atoms: C_2  and  C_17
REMARK    2  A    between atoms: N_3  and  C_4
REMARK    3  A    between atoms: C_4  and  N_6
REMARK                            x       y       z     vdW  Elec       q    Type
REMARK                         _______ _______ _______ _____ _____    ______ ____
ROOT
ATOM      1  N   UNL     1       5.009   5.557  18.997  0.00  0.00    +0.000 N 
ATOM      2  C   UNL     1       5.356   5.268  17.710  0.00  0.00    +0.000 A 
ATOM      3  N   UNL     1       4.623   4.673  16.805  0.00  0.00    +0.000 NA
ATOM      4  C   UNL     1       5.369   4.539  15.642  0.00  0.00    +0.000 A 
ATOM      5  C   UNL     1       4.924   3.953  14.441  0.00  0.00    +0.000 A 
ATOM      6  C   UNL     1       5.796   3.883  13.353  0.00  0.00    +0.000 A 
ATOM      7 BR   UNL     1       5.194   3.110  11.734  0.00  0.00    +0.000 Br
ATOM      8  C   UNL     1       7.096   4.373  13.439  0.00  0.00    +0.000 A 
ATOM      9  C   UNL     1       7.558   4.959  14.621  0.00  0.00    +0.000 A 
ATOM     10  C   UNL     1       6.675   5.039  15.709  0.00  0.00    +0.000 A 
ATOM     11  S   UNL     1       6.934   5.717  17.274  0.00  0.00    +0.000 S 
ATOM     12  H   UNL     1       5.700   6.027  19.568  0.00  0.00    +0.000 HD
ENDROOT
BRANCH   1  13
ATOM     13  C   UNL     1       3.858   5.166  19.629  0.00  0.00    +0.000 C 
ATOM     14  S   UNL     1       3.675   3.514  19.837  0.00  0.00    +0.000 S 
BRANCH  13  17
ATOM     15  O   UNL     1       2.751   7.460  18.101  0.00  0.00    +0.000 OA
ATOM     16  C   UNL     1       2.468   7.242  19.277  0.00  0.00    +0.000 C 
ATOM     17  N   UNL     1       2.971   6.161  20.001  0.00  0.00    +0.000 N 
ATOM     18  H   UNL     1       2.659   6.117  20.968  0.00  0.00    +0.000 HD
BRANCH  16  19
ATOM     19  C   UNL     1       1.575   8.144  20.004  0.00  0.00    +0.000 A 
ATOM     20  C   UNL     1       1.038   7.912  21.259  0.00  0.00    +0.000 A 
ATOM     21  C   UNL     1       0.190   8.964  21.702  0.00  0.00    +0.000 A 
ATOM     22  C   UNL     1       0.103   9.975  20.773  0.00  0.00    +0.000 A 
ATOM     23  S   UNL     1       1.051   9.650  19.386  0.00  0.00    +0.000 S 
ENDBRANCH  16  19
ENDBRANCH  13  17
ENDBRANCH   1  13
TORSDOF 3
ENDMDL
MODEL 5
REMARK VINA RESULT:      -6.6      2.632      3.806
REMARK  Name = 
REMARK  3 active torsions:
REMARK  status: ('A' for Active; 'I' for Inactive)
REMARK    1  A    between atoms: C_2  and  C_17
REMARK    2  A    between atoms: N_3  and  C_4
REMARK    3  A    between atoms: C_4  and  N_6
REMARK                            x       y       z     vdW  Elec       q    Type
REMARK                         _______ _______ _______ _____ _____    ______ ____
ROOT
ATOM      1  N   UNL     1       1.102   7.333  21.297  0.00  0.00    +0.000 N 
ATOM      2  C   UNL     1       1.860   6.698  20.358  0.00  0.00    +0.000 A 
ATOM      3  N   UNL     1       2.548   7.247  19.390  0.00  0.00    +0.000 NA
ATOM      4  C   UNL     1       3.141   6.243  18.637  0.00  0.00    +0.000 A 
ATOM      5  C   UNL     1       3.967   6.436  17.512  0.00  0.00    +0.000 A 
ATOM      6  C   UNL     1       4.488   5.323  16.851  0.00  0.00    +0.000 A 
ATOM      7 BR   UNL     1       5.608   5.581  15.348  0.00  0.00    +0.000 Br
ATOM      8  C   UNL     1       4.198   4.030  17.278  0.00  0.00    +0.000 A 
ATOM      9  C   UNL     1       3.382   3.816  18.393  0.00  0.00    +0.000 A 
ATOM     10  C   UNL     1       2.870   4.938  19.063  0.00  0.00    +0.000 A 
ATOM     11  S   UNL     1       1.867   5.004  20.465  0.00  0.00    +0.000 S 
ATOM     12  H   UNL     1       0.634   6.753  21.982  0.00  0.00    +0.000 HD
ENDROOT
BRANCH   1  13
ATOM     13  C   UNL     1       0.817   8.672  21.333  0.00  0.00    +0.000 C 
ATOM     14  S   UNL     1       1.520   9.526  22.590  0.00  0.00    +0.000 S 
BRANCH  13  17
ATOM     15  O   UNL     1       1.297  10.628  19.149  0.00  0.00    +0.000 OA
ATOM     16  C   UNL     1       0.206  10.094  19.340  0.00  0.00    +0.000 C 
ATOM     17  N   UNL     1      -0.029   9.165  20.354  0.00  0.00    +0.000 N 
ATOM     18  H   UNL     1      -0.984   8.818  20.399  0.00  0.00    +0.000 HD
BRANCH  16  19
ATOM     19  C   UNL     1      -0.942  10.431  18.498  0.00  0.00    +0.000 A 
ATOM     20  C   UNL     1      -1.341   9.745  17.363  0.00  0.00    +0.000 A 
ATOM     21  C   UNL     1      -2.485  10.318  16.742  0.00  0.00    +0.000 A 
ATOM     22  C   UNL     1      -2.933  11.426  17.423  0.00  0.00    +0.000 A 
ATOM     23  S   UNL     1      -1.978  11.757  18.803  0.00  0.00    +0.000 S 
ENDBRANCH  16  19
ENDBRANCH  13  17
ENDBRANCH   1  13
TORSDOF 3
ENDMDL
MODEL 6
REMARK VINA RESULT:      -6.4      3.885      5.722
REMARK  Name = 
REMARK  3 active torsions:
REMARK  status: ('A' for Active; 'I' for Inactive)
REMARK    1  A    between atoms: C_2  and  C_17
REMARK    2  A    between atoms: N_3  and  C_4
REMARK    3  A    between atoms: C_4  and  N_6
REMARK                            x       y       z     vdW  Elec       q    Type
REMARK                         _______ _______ _______ _____ _____    ______ ____
ROOT
ATOM      1  N   UNL     1       1.020  10.420  19.885  0.00  0.00    +0.000 N 
ATOM      2  C   UNL     1       1.443   9.130  19.748  0.00  0.00    +0.000 A 
ATOM      3  N   UNL     1       1.865   8.546  18.657  0.00  0.00    +0.000 NA
ATOM      4  C   UNL     1       2.159   7.220  18.944  0.00  0.00    +0.000 A 
ATOM      5  C   UNL     1       2.647   6.267  18.029  0.00  0.00    +0.000 A 
ATOM      6  C   UNL     1       2.890   4.964  18.466  0.00  0.00    +0.000 A 
ATOM      7 BR   UNL     1       3.558   3.687  17.240  0.00  0.00    +0.000 Br
ATOM      8  C   UNL     1       2.648   4.590  19.785  0.00  0.00    +0.000 A 
ATOM      9  C   UNL     1       2.165   5.520  20.710  0.00  0.00    +0.000 A 
ATOM     10  C   UNL     1       1.934   6.833  20.270  0.00  0.00    +0.000 A 
ATOM     11  S   UNL     1       1.371   8.197  21.163  0.00  0.00    +0.000 S 
ATOM     12  H   UNL     1       0.726  10.714  20.807  0.00  0.00    +0.000 HD
ENDROOT
BRANCH   1  13
ATOM     13  C   UNL     1       0.843  11.323  18.870  0.00  0.00    +0.000 C 
ATOM     14  S   UNL     1       2.148  12.326  18.560  0.00  0.00    +0.000 S 
BRANCH  13  17
ATOM     15  O   UNL     1      -1.902  11.722  19.935  0.00  0.00    +0.000 OA
ATOM     16  C   UNL     1      -1.671  11.502  18.748  0.00  0.00    +0.000 C 
ATOM     17  N   UNL     1      -0.386  11.326  18.233  0.00  0.00    +0.000 N 
ATOM     18  H   UNL     1      -0.352  11.138  17.234  0.00  0.00    +0.000 HD
BRANCH  16  19
ATOM     19  C   UNL     1      -2.769  11.394  17.787  0.00  0.00    +0.000 A 
ATOM     20  C   UNL     1      -4.087  11.748  18.022  0.00  0.00    +0.000 A 
ATOM     21  C   UNL     1      -4.932  11.514  16.902  0.00  0.00    +0.000 A 
ATOM     22  C   UNL     1      -4.235  10.990  15.838  0.00  0.00    +0.000 A 
ATOM     23  S   UNL     1      -2.573  10.796  16.197  0.00  0.00    +0.000 S 
ENDBRANCH  16  19
ENDBRANCH  13  17
ENDBRANCH   1  13
TORSDOF 3
ENDMDL
MODEL 7
REMARK VINA RESULT:      -6.4      3.606      8.019
REMARK  Name = 
REMARK  3 active torsions:
REMARK  status: ('A' for Active; 'I' for Inactive)
REMARK    1  A    between atoms: C_2  and  C_17
REMARK    2  A    between atoms: N_3  and  C_4
REMARK    3  A    between atoms: C_4  and  N_6
REMARK                            x       y       z     vdW  Elec       q    Type
REMARK                         _______ _______ _______ _____ _____    ______ ____
ROOT
ATOM      1  N   UNL     1       5.767   3.916  18.436  0.00  0.00    +0.000 N 
ATOM      2  C   UNL     1       4.698   4.617  18.914  0.00  0.00    +0.000 A 
ATOM      3  N   UNL     1       4.431   5.883  18.724  0.00  0.00    +0.000 NA
ATOM      4  C   UNL     1       3.272   6.205  19.417  0.00  0.00    +0.000 A 
ATOM      5  C   UNL     1       2.659   7.472  19.453  0.00  0.00    +0.000 A 
ATOM      6  C   UNL     1       1.495   7.645  20.204  0.00  0.00    +0.000 A 
ATOM      7 BR   UNL     1       0.663   9.344  20.242  0.00  0.00    +0.000 Br
ATOM      8  C   UNL     1       0.938   6.591  20.922  0.00  0.00    +0.000 A 
ATOM      9  C   UNL     1       1.529   5.324  20.899  0.00  0.00    +0.000 A 
ATOM     10  C   UNL     1       2.693   5.151  20.133  0.00  0.00    +0.000 A 
ATOM     11  S   UNL     1       3.631   3.725  19.885  0.00  0.00    +0.000 S 
ATOM     12  H   UNL     1       5.821   2.935  18.677  0.00  0.00    +0.000 HD
ENDROOT
BRANCH   1  13
ATOM     13  C   UNL     1       6.837   4.440  17.759  0.00  0.00    +0.000 C 
ATOM     14  S   UNL     1       7.958   5.253  18.702  0.00  0.00    +0.000 S 
BRANCH  13  17
ATOM     15  O   UNL     1       5.915   6.199  15.550  0.00  0.00    +0.000 OA
ATOM     16  C   UNL     1       6.417   5.093  15.359  0.00  0.00    +0.000 C 
ATOM     17  N   UNL     1       6.866   4.264  16.387  0.00  0.00    +0.000 N 
ATOM     18  H   UNL     1       7.246   3.373  16.077  0.00  0.00    +0.000 HD
BRANCH  16  19
ATOM     19  C   UNL     1       6.559   4.568  14.001  0.00  0.00    +0.000 A 
ATOM     20  C   UNL     1       5.736   3.624  13.409  0.00  0.00    +0.000 A 
ATOM     21  C   UNL     1       6.133   3.298  12.082  0.00  0.00    +0.000 A 
ATOM     22  C   UNL     1       7.247   4.005  11.695  0.00  0.00    +0.000 A 
ATOM     23  S   UNL     1       7.796   5.058  12.926  0.00  0.00    +0.000 S 
ENDBRANCH  16  19
ENDBRANCH  13  17
ENDBRANCH   1  13
TORSDOF 3
ENDMDL
MODEL 8
REMARK VINA RESULT:      -6.3      3.977      5.488
REMARK  Name = 
REMARK  3 active torsions:
REMARK  status: ('A' for Active; 'I' for Inactive)
REMARK    1  A    between atoms: C_2  and  C_17
REMARK    2  A    between atoms: N_3  and  C_4
REMARK    3  A    between atoms: C_4  and  N_6
REMARK                            x       y       z     vdW  Elec       q    Type
REMARK                         _______ _______ _______ _____ _____    ______ ____
ROOT
ATOM      1  N   UNL     1       0.803   9.955  20.145  0.00  0.00    +0.000 N 
ATOM      2  C   UNL     1       1.497   8.845  19.762  0.00  0.00    +0.000 A 
ATOM      3  N   UNL     1       2.114   8.648  18.626  0.00  0.00    +0.000 NA
ATOM      4  C   UNL     1       2.659   7.371  18.628  0.00  0.00    +0.000 A 
ATOM      5  C   UNL     1       3.404   6.792  17.582  0.00  0.00    +0.000 A 
ATOM      6  C   UNL     1       3.883   5.489  17.727  0.00  0.00    +0.000 A 
ATOM      7 BR   UNL     1       4.896   4.715  16.329  0.00  0.00    +0.000 Br
ATOM      8  C   UNL     1       3.629   4.752  18.881  0.00  0.00    +0.000 A 
ATOM      9  C   UNL     1       2.893   5.308  19.931  0.00  0.00    +0.000 A 
ATOM     10  C   UNL     1       2.423   6.623  19.787  0.00  0.00    +0.000 A 
ATOM     11  S   UNL     1       1.519   7.584  20.898  0.00  0.00    +0.000 S 
ATOM     12  H   UNL     1       0.386   9.943  21.067  0.00  0.00    +0.000 HD
ENDROOT
BRANCH   1  13
ATOM     13  C   UNL     1       0.515  11.037  19.357  0.00  0.00    +0.000 C 
ATOM     14  S   UNL     1       1.357  12.439  19.721  0.00  0.00    +0.000 S 
BRANCH  13  17
ATOM     15  O   UNL     1      -2.369  11.748  19.305  0.00  0.00    +0.000 OA
ATOM     16  C   UNL     1      -1.800  11.194  18.366  0.00  0.00    +0.000 C 
ATOM     17  N   UNL     1      -0.444  10.867  18.374  0.00  0.00    +0.000 N 
ATOM     18  H   UNL     1      -0.116  10.399  17.532  0.00  0.00    +0.000 HD
BRANCH  16  19
ATOM     19  C   UNL     1      -2.545  10.823  17.163  0.00  0.00    +0.000 A 
ATOM     20  C   UNL     1      -2.114   9.944  16.184  0.00  0.00    +0.000 A 
ATOM     21  C   UNL     1      -3.049   9.794  15.123  0.00  0.00    +0.000 A 
ATOM     22  C   UNL     1      -4.174  10.561  15.322  0.00  0.00    +0.000 A 
ATOM     23  S   UNL     1      -4.094  11.442  16.786  0.00  0.00    +0.000 S 
ENDBRANCH  16  19
ENDBRANCH  13  17
ENDBRANCH   1  13
TORSDOF 3
ENDMDL
MODEL 9
REMARK VINA RESULT:      -6.3      3.697      4.637
REMARK  Name = 
REMARK  3 active torsions:
REMARK  status: ('A' for Active; 'I' for Inactive)
REMARK    1  A    between atoms: C_2  and  C_17
REMARK    2  A    between atoms: N_3  and  C_4
REMARK    3  A    between atoms: C_4  and  N_6
REMARK                            x       y       z     vdW  Elec       q    Type
REMARK                         _______ _______ _______ _____ _____    ______ ____
ROOT
ATOM      1  N   UNL     1       1.513   9.046  18.951  0.00  0.00    +0.000 N 
ATOM      2  C   UNL     1       2.365   8.061  18.545  0.00  0.00    +0.000 A 
ATOM      3  N   UNL     1       3.186   8.092  17.527  0.00  0.00    +0.000 NA
ATOM      4  C   UNL     1       3.840   6.871  17.443  0.00  0.00    +0.000 A 
ATOM      5  C   UNL     1       4.807   6.518  16.481  0.00  0.00    +0.000 A 
ATOM      6  C   UNL     1       5.375   5.244  16.521  0.00  0.00    +0.000 A 
ATOM      7 BR   UNL     1       6.684   4.775  15.237  0.00  0.00    +0.000 Br
ATOM      8  C   UNL     1       4.996   4.316  17.486  0.00  0.00    +0.000 A 
ATOM      9  C   UNL     1       4.039   4.645  18.451  0.00  0.00    +0.000 A 
ATOM     10  C   UNL     1       3.479   5.931  18.416  0.00  0.00    +0.000 A 
ATOM     11  S   UNL     1       2.309   6.638  19.468  0.00  0.00    +0.000 S 
ATOM     12  H   UNL     1       0.945   8.858  19.767  0.00  0.00    +0.000 HD
ENDROOT
BRANCH   1  13
ATOM     13  C   UNL     1       1.265  10.220  18.290  0.00  0.00    +0.000 C 
ATOM     14  S   UNL     1       2.547  11.296  18.224  0.00  0.00    +0.000 S 
BRANCH  13  17
ATOM     15  O   UNL     1      -1.329  10.740  19.642  0.00  0.00    +0.000 OA
ATOM     16  C   UNL     1      -1.221  10.631  18.423  0.00  0.00    +0.000 C 
ATOM     17  N   UNL     1      -0.007  10.400  17.775  0.00  0.00    +0.000 N 
ATOM     18  H   UNL     1      -0.075  10.319  16.763  0.00  0.00    +0.000 HD
BRANCH  16  19
ATOM     19  C   UNL     1      -2.401  10.724  17.563  0.00  0.00    +0.000 A 
ATOM     20  C   UNL     1      -2.489  10.272  16.257  0.00  0.00    +0.000 A 
ATOM     21  C   UNL     1      -3.761  10.517  15.670  0.00  0.00    +0.000 A 
ATOM     22  C   UNL     1      -4.614  11.147  16.546  0.00  0.00    +0.000 A 
ATOM     23  S   UNL     1      -3.878  11.427  18.064  0.00  0.00    +0.000 S 
ENDBRANCH  16  19
ENDBRANCH  13  17
ENDBRANCH   1  13
TORSDOF 3
ENDMDL
