MODEL 1
REMARK VINA RESULT:      -8.1      0.000      0.000
REMARK  Name = 
REMARK  7 active torsions:
REMARK  status: ('A' for Active; 'I' for Inactive)
REMARK    1  A    between atoms: C_2  and  C_3
REMARK    2  A    between atoms: C_5  and  C_6
REMARK    3  A    between atoms: C_6  and  C_7
REMARK    4  A    between atoms: N_9  and  N_10
REMARK    5  A    between atoms: C_18  and  C_19
REMARK    6  A    between atoms: C_19  and  O_21
REMARK    7  A    between atoms: C_27  and  O_28
REMARK                            x       y       z     vdW  Elec       q    Type
REMARK                         _______ _______ _______ _____ _____    ______ ____
ROOT
ATOM      1  N   UNL     1       2.137   7.511  20.007  0.00  0.00    +0.000 NA
ATOM      2  C   UNL     1       1.805   8.531  19.300  0.00  0.00    +0.000 C 
ATOM      3  C   UNL     1       2.054   8.881  17.843  0.00  0.00    +0.000 C 
ATOM      4  O   UNL     1       2.664   8.190  17.057  0.00  0.00    +0.000 OA
ATOM      5  N   UNL     1       1.439  10.108  17.660  0.00  0.00    +0.000 N 
ATOM      6  C   UNL     1       0.840  10.545  18.845  0.00  0.00    +0.000 A 
ATOM      7  C   UNL     1       0.140  11.709  19.068  0.00  0.00    +0.000 A 
ATOM      8  C   UNL     1      -0.373  11.916  20.360  0.00  0.00    +0.000 A 
ATOM      9  C   UNL     1      -0.184  10.970  21.405  0.00  0.00    +0.000 A 
ATOM     10  C   UNL     1       0.551   9.809  21.164  0.00  0.00    +0.000 A 
ATOM     11 CL   UNL     1       0.872   8.657  22.409  0.00  0.00    +0.000 Cl
ATOM     12  C   UNL     1       1.035   9.626  19.875  0.00  0.00    +0.000 A 
ATOM     13  H   UNL     1       1.438  10.605  16.779  0.00  0.00    +0.000 HD
ENDROOT
BRANCH   1  16
ATOM     14  C   UNL     1       2.374   5.222  19.976  0.00  0.00    +0.000 C 
ATOM     15  O   UNL     1       1.404   5.070  20.722  0.00  0.00    +0.000 OA
ATOM     16  N   UNL     1       2.845   6.463  19.556  0.00  0.00    +0.000 N 
ATOM     17  H   UNL     1       3.676   6.602  18.981  0.00  0.00    +0.000 HD
BRANCH  14  18
ATOM     18  C   UNL     1       3.129   4.025  19.458  0.00  0.00    +0.000 C 
BRANCH  18  21
ATOM     19  C   UNL     1       5.490   4.487  16.501  0.00  0.00    +0.000 A 
ATOM     20  C   UNL     1       4.349   4.206  17.265  0.00  0.00    +0.000 A 
ATOM     21  C   UNL     1       4.354   4.386  18.654  0.00  0.00    +0.000 A 
ATOM     22  C   UNL     1       5.528   4.844  19.272  0.00  0.00    +0.000 A 
ATOM     23  C   UNL     1       6.670   5.130  18.516  0.00  0.00    +0.000 A 
ATOM     24  C   UNL     1       6.646   4.948  17.135  0.00  0.00    +0.000 A 
BRANCH  19  26
ATOM     25  N   UNL     1       5.376   4.168  13.930  0.00  0.00    +0.000 NA
ATOM     26  C   UNL     1       5.444   4.282  15.084  0.00  0.00    +0.000 C 
ENDBRANCH  19  26
BRANCH  24  27
ATOM     27  O   UNL     1       7.759   5.217  16.389  0.00  0.00    +0.000 OA
ATOM     28  H   UNL     1       8.165   4.382  16.097  0.00  0.00    +0.000 HD
ENDBRANCH  24  27
ENDBRANCH  18  21
ENDBRANCH  14  18
ENDBRANCH   1  16
BRANCH   9  29
ATOM     29  C   UNL     1      -0.782  11.304  22.728  0.00  0.00    +0.000 C 
ATOM     30  O   UNL     1      -0.756  12.444  23.157  0.00  0.00    +0.000 OA
BRANCH  29  31
ATOM     31  O   UNL     1      -1.432  10.307  23.355  0.00  0.00    +0.000 OA
ATOM     32  H   UNL     1      -1.510  10.384  24.328  0.00  0.00    +0.000 HD
ENDBRANCH  29  31
ENDBRANCH   9  29
TORSDOF 7
ENDMDL
MODEL 2
REMARK VINA RESULT:      -8.0      2.809      8.684
REMARK  Name = 
REMARK  7 active torsions:
REMARK  status: ('A' for Active; 'I' for Inactive)
REMARK    1  A    between atoms: C_2  and  C_3
REMARK    2  A    between atoms: C_5  and  C_6
REMARK    3  A    between atoms: C_6  and  C_7
REMARK    4  A    between atoms: N_9  and  N_10
REMARK    5  A    between atoms: C_18  and  C_19
REMARK    6  A    between atoms: C_19  and  O_21
REMARK    7  A    between atoms: C_27  and  O_28
REMARK                            x       y       z     vdW  Elec       q    Type
REMARK                         _______ _______ _______ _____ _____    ______ ____
ROOT
ATOM      1  N   UNL     1       2.532   7.144  19.049  0.00  0.00    +0.000 NA
ATOM      2  C   UNL     1       2.586   5.861  19.047  0.00  0.00    +0.000 C 
ATOM      3  C   UNL     1       1.882   4.814  19.893  0.00  0.00    +0.000 C 
ATOM      4  O   UNL     1       1.095   5.053  20.782  0.00  0.00    +0.000 OA
ATOM      5  N   UNL     1       2.338   3.598  19.412  0.00  0.00    +0.000 N 
ATOM      6  C   UNL     1       3.243   3.788  18.363  0.00  0.00    +0.000 A 
ATOM      7  C   UNL     1       3.912   2.833  17.632  0.00  0.00    +0.000 A 
ATOM      8  C   UNL     1       4.772   3.285  16.616  0.00  0.00    +0.000 A 
ATOM      9  C   UNL     1       4.953   4.669  16.343  0.00  0.00    +0.000 A 
ATOM     10  C   UNL     1       4.285   5.620  17.113  0.00  0.00    +0.000 A 
ATOM     11 CL   UNL     1       4.517   7.314  16.875  0.00  0.00    +0.000 Cl
ATOM     12  C   UNL     1       3.433   5.144  18.102  0.00  0.00    +0.000 A 
ATOM     13  H   UNL     1       2.045   2.706  19.786  0.00  0.00    +0.000 HD
ENDROOT
BRANCH   1  16
ATOM     14  C   UNL     1       1.436   9.137  19.398  0.00  0.00    +0.000 C 
ATOM     15  O   UNL     1       1.797   9.575  18.303  0.00  0.00    +0.000 OA
ATOM     16  N   UNL     1       1.781   7.879  19.884  0.00  0.00    +0.000 N 
ATOM     17  H   UNL     1       1.531   7.527  20.808  0.00  0.00    +0.000 HD
BRANCH  14  18
ATOM     18  C   UNL     1       0.565   9.972  20.300  0.00  0.00    +0.000 C 
BRANCH  18  21
ATOM     19  C   UNL     1      -2.133  10.581  17.677  0.00  0.00    +0.000 A 
ATOM     20  C   UNL     1      -1.041  10.033  18.364  0.00  0.00    +0.000 A 
ATOM     21  C   UNL     1      -0.647  10.545  19.607  0.00  0.00    +0.000 A 
ATOM     22  C   UNL     1      -1.361  11.625  20.150  0.00  0.00    +0.000 A 
ATOM     23  C   UNL     1      -2.454  12.175  19.472  0.00  0.00    +0.000 A 
ATOM     24  C   UNL     1      -2.834  11.651  18.238  0.00  0.00    +0.000 A 
BRANCH  19  26
ATOM     25  N   UNL     1      -2.744   9.610  15.351  0.00  0.00    +0.000 NA
ATOM     26  C   UNL     1      -2.498  10.032  16.405  0.00  0.00    +0.000 C 
ENDBRANCH  19  26
BRANCH  24  27
ATOM     27  O   UNL     1      -3.895  12.186  17.564  0.00  0.00    +0.000 OA
ATOM     28  H   UNL     1      -4.488  12.635  18.192  0.00  0.00    +0.000 HD
ENDBRANCH  24  27
ENDBRANCH  18  21
ENDBRANCH  14  18
ENDBRANCH   1  16
BRANCH   9  29
ATOM     29  C   UNL     1       5.888   5.017  15.236  0.00  0.00    +0.000 C 
ATOM     30  O   UNL     1       6.917   5.633  15.455  0.00  0.00    +0.000 OA
BRANCH  29  31
ATOM     31  O   UNL     1       5.579   4.526  14.022  0.00  0.00    +0.000 OA
ATOM     32  H   UNL     1       5.942   5.011  13.252  0.00  0.00    +0.000 HD
ENDBRANCH  29  31
ENDBRANCH   9  29
TORSDOF 7
ENDMDL
MODEL 3
REMARK VINA RESULT:      -7.9      1.554      1.960
REMARK  Name = 
REMARK  7 active torsions:
REMARK  status: ('A' for Active; 'I' for Inactive)
REMARK    1  A    between atoms: C_2  and  C_3
REMARK    2  A    between atoms: C_5  and  C_6
REMARK    3  A    between atoms: C_6  and  C_7
REMARK    4  A    between atoms: N_9  and  N_10
REMARK    5  A    between atoms: C_18  and  C_19
REMARK    6  A    between atoms: C_19  and  O_21
REMARK    7  A    between atoms: C_27  and  O_28
REMARK                            x       y       z     vdW  Elec       q    Type
REMARK                         _______ _______ _______ _____ _____    ______ ____
ROOT
ATOM      1  N   UNL     1       1.823   8.094  20.354  0.00  0.00    +0.000 NA
ATOM      2  C   UNL     1       1.417   9.041  19.586  0.00  0.00    +0.000 C 
ATOM      3  C   UNL     1       1.598   9.289  18.098  0.00  0.00    +0.000 C 
ATOM      4  O   UNL     1       2.212   8.568  17.342  0.00  0.00    +0.000 OA
ATOM      5  N   UNL     1       0.918  10.469  17.847  0.00  0.00    +0.000 N 
ATOM      6  C   UNL     1       0.340  10.968  19.018  0.00  0.00    +0.000 A 
ATOM      7  C   UNL     1      -0.406  12.113  19.180  0.00  0.00    +0.000 A 
ATOM      8  C   UNL     1      -0.883  12.395  20.472  0.00  0.00    +0.000 A 
ATOM      9  C   UNL     1      -0.612  11.541  21.577  0.00  0.00    +0.000 A 
ATOM     10  C   UNL     1       0.169  10.400  21.396  0.00  0.00    +0.000 A 
ATOM     11 CL   UNL     1       0.589   9.363  22.710  0.00  0.00    +0.000 Cl
ATOM     12  C   UNL     1       0.616  10.141  20.106  0.00  0.00    +0.000 A 
ATOM     13  H   UNL     1       0.862  10.896  16.932  0.00  0.00    +0.000 HD
ENDROOT
BRANCH   1  16
ATOM     14  C   UNL     1       1.949   5.809  20.112  0.00  0.00    +0.000 C 
ATOM     15  O   UNL     1       0.825   5.655  20.597  0.00  0.00    +0.000 OA
ATOM     16  N   UNL     1       2.564   7.048  19.955  0.00  0.00    +0.000 N 
ATOM     17  H   UNL     1       3.511   7.183  19.603  0.00  0.00    +0.000 HD
BRANCH  14  18
ATOM     18  C   UNL     1       2.744   4.618  19.642  0.00  0.00    +0.000 C 
BRANCH  18  21
ATOM     19  C   UNL     1       6.320   5.418  18.592  0.00  0.00    +0.000 A 
ATOM     20  C   UNL     1       5.209   5.032  19.355  0.00  0.00    +0.000 A 
ATOM     21  C   UNL     1       3.931   4.985  18.785  0.00  0.00    +0.000 A 
ATOM     22  C   UNL     1       3.778   5.341  17.435  0.00  0.00    +0.000 A 
ATOM     23  C   UNL     1       4.882   5.725  16.667  0.00  0.00    +0.000 A 
ATOM     24  C   UNL     1       6.147   5.763  17.249  0.00  0.00    +0.000 A 
BRANCH  19  26
ATOM     25  N   UNL     1       8.657   5.435  19.715  0.00  0.00    +0.000 NA
ATOM     26  C   UNL     1       7.609   5.460  19.216  0.00  0.00    +0.000 C 
ENDBRANCH  19  26
BRANCH  24  27
ATOM     27  O   UNL     1       7.231   6.144  16.509  0.00  0.00    +0.000 OA
ATOM     28  H   UNL     1       7.557   5.385  15.995  0.00  0.00    +0.000 HD
ENDBRANCH  24  27
ENDBRANCH  18  21
ENDBRANCH  14  18
ENDBRANCH   1  16
BRANCH   9  29
ATOM     29  C   UNL     1      -1.179  11.949  22.893  0.00  0.00    +0.000 C 
ATOM     30  O   UNL     1      -0.866  13.007  23.409  0.00  0.00    +0.000 OA
BRANCH  29  31
ATOM     31  O   UNL     1      -2.119  11.138  23.412  0.00  0.00    +0.000 OA
ATOM     32  H   UNL     1      -2.112  10.210  23.100  0.00  0.00    +0.000 HD
ENDBRANCH  29  31
ENDBRANCH   9  29
TORSDOF 7
ENDMDL
MODEL 4
REMARK VINA RESULT:      -7.9      1.309      1.838
REMARK  Name = 
REMARK  7 active torsions:
REMARK  status: ('A' for Active; 'I' for Inactive)
REMARK    1  A    between atoms: C_2  and  C_3
REMARK    2  A    between atoms: C_5  and  C_6
REMARK    3  A    between atoms: C_6  and  C_7
REMARK    4  A    between atoms: N_9  and  N_10
REMARK    5  A    between atoms: C_18  and  C_19
REMARK    6  A    between atoms: C_19  and  O_21
REMARK    7  A    between atoms: C_27  and  O_28
REMARK                            x       y       z     vdW  Elec       q    Type
REMARK                         _______ _______ _______ _____ _____    ______ ____
ROOT
ATOM      1  N   UNL     1       1.875   7.668  20.636  0.00  0.00    +0.000 NA
ATOM      2  C   UNL     1       1.613   8.529  19.719  0.00  0.00    +0.000 C 
ATOM      3  C   UNL     1       1.954   8.572  18.240  0.00  0.00    +0.000 C 
ATOM      4  O   UNL     1       2.586   7.727  17.647  0.00  0.00    +0.000 OA
ATOM      5  N   UNL     1       1.385   9.747  17.776  0.00  0.00    +0.000 N 
ATOM      6  C   UNL     1       0.734  10.425  18.810  0.00  0.00    +0.000 A 
ATOM      7  C   UNL     1       0.057  11.622  18.750  0.00  0.00    +0.000 A 
ATOM      8  C   UNL     1      -0.522  12.095  19.941  0.00  0.00    +0.000 A 
ATOM      9  C   UNL     1      -0.420  11.378  21.165  0.00  0.00    +0.000 A 
ATOM     10  C   UNL     1       0.293  10.180  21.208  0.00  0.00    +0.000 A 
ATOM     11 CL   UNL     1       0.510   9.300  22.676  0.00  0.00    +0.000 Cl
ATOM     12  C   UNL     1       0.844   9.732  20.014  0.00  0.00    +0.000 A 
ATOM     13  H   UNL     1       1.449  10.055  16.815  0.00  0.00    +0.000 HD
ENDROOT
BRANCH   1  16
ATOM     14  C   UNL     1       1.821   5.371  20.509  0.00  0.00    +0.000 C 
ATOM     15  O   UNL     1       0.609   5.346  20.737  0.00  0.00    +0.000 OA
ATOM     16  N   UNL     1       2.577   6.539  20.449  0.00  0.00    +0.000 N 
ATOM     17  H   UNL     1       3.586   6.568  20.311  0.00  0.00    +0.000 HD
BRANCH  14  18
ATOM     18  C   UNL     1       2.575   4.089  20.270  0.00  0.00    +0.000 C 
BRANCH  18  21
ATOM     19  C   UNL     1       5.480   4.286  17.809  0.00  0.00    +0.000 A 
ATOM     20  C   UNL     1       4.743   4.242  19.000  0.00  0.00    +0.000 A 
ATOM     21  C   UNL     1       3.352   4.079  18.975  0.00  0.00    +0.000 A 
ATOM     22  C   UNL     1       2.706   3.968  17.733  0.00  0.00    +0.000 A 
ATOM     23  C   UNL     1       3.436   4.008  16.541  0.00  0.00    +0.000 A 
ATOM     24  C   UNL     1       4.819   4.168  16.584  0.00  0.00    +0.000 A 
BRANCH  19  26
ATOM     25  N   UNL     1       8.056   4.583  17.880  0.00  0.00    +0.000 NA
ATOM     26  C   UNL     1       6.901   4.462  17.879  0.00  0.00    +0.000 C 
ENDBRANCH  19  26
BRANCH  24  27
ATOM     27  O   UNL     1       5.540   4.216  15.424  0.00  0.00    +0.000 OA
ATOM     28  H   UNL     1       4.945   4.094  14.665  0.00  0.00    +0.000 HD
ENDBRANCH  24  27
ENDBRANCH  18  21
ENDBRANCH  14  18
ENDBRANCH   1  16
BRANCH   9  29
ATOM     29  C   UNL     1      -1.082  11.984  22.354  0.00  0.00    +0.000 C 
ATOM     30  O   UNL     1      -2.197  11.631  22.697  0.00  0.00    +0.000 OA
BRANCH  29  31
ATOM     31  O   UNL     1      -0.342  12.851  23.068  0.00  0.00    +0.000 OA
ATOM     32  H   UNL     1      -0.810  13.635  23.420  0.00  0.00    +0.000 HD
ENDBRANCH  29  31
ENDBRANCH   9  29
TORSDOF 7
ENDMDL
MODEL 5
REMARK VINA RESULT:      -7.9      3.008      9.135
REMARK  Name = 
REMARK  7 active torsions:
REMARK  status: ('A' for Active; 'I' for Inactive)
REMARK    1  A    between atoms: C_2  and  C_3
REMARK    2  A    between atoms: C_5  and  C_6
REMARK    3  A    between atoms: C_6  and  C_7
REMARK    4  A    between atoms: N_9  and  N_10
REMARK    5  A    between atoms: C_18  and  C_19
REMARK    6  A    between atoms: C_19  and  O_21
REMARK    7  A    between atoms: C_27  and  O_28
REMARK                            x       y       z     vdW  Elec       q    Type
REMARK                         _______ _______ _______ _____ _____    ______ ____
ROOT
ATOM      1  N   UNL     1       2.607   7.505  18.564  0.00  0.00    +0.000 NA
ATOM      2  C   UNL     1       2.743   6.254  18.823  0.00  0.00    +0.000 C 
ATOM      3  C   UNL     1       2.115   5.363  19.881  0.00  0.00    +0.000 C 
ATOM      4  O   UNL     1       1.321   5.730  20.719  0.00  0.00    +0.000 OA
ATOM      5  N   UNL     1       2.644   4.104  19.648  0.00  0.00    +0.000 N 
ATOM      6  C   UNL     1       3.526   4.129  18.564  0.00  0.00    +0.000 A 
ATOM      7  C   UNL     1       4.249   3.088  18.029  0.00  0.00    +0.000 A 
ATOM      8  C   UNL     1       5.070   3.373  16.924  0.00  0.00    +0.000 A 
ATOM      9  C   UNL     1       5.159   4.680  16.370  0.00  0.00    +0.000 A 
ATOM     10  C   UNL     1       4.437   5.727  16.944  0.00  0.00    +0.000 A 
ATOM     11 CL   UNL     1       4.558   7.346  16.360  0.00  0.00    +0.000 Cl
ATOM     12  C   UNL     1       3.626   5.412  18.027  0.00  0.00    +0.000 A 
ATOM     13  H   UNL     1       2.412   3.291  20.203  0.00  0.00    +0.000 HD
ENDROOT
BRANCH   1  16
ATOM     14  C   UNL     1       1.568   9.558  18.605  0.00  0.00    +0.000 C 
ATOM     15  O   UNL     1       2.042   9.866  17.508  0.00  0.00    +0.000 OA
ATOM     16  N   UNL     1       1.817   8.349  19.248  0.00  0.00    +0.000 N 
ATOM     17  H   UNL     1       1.472   8.105  20.176  0.00  0.00    +0.000 HD
BRANCH  14  18
ATOM     18  C   UNL     1       0.657  10.512  19.334  0.00  0.00    +0.000 C 
BRANCH  18  21
ATOM     19  C   UNL     1      -2.977  11.528  18.791  0.00  0.00    +0.000 A 
ATOM     20  C   UNL     1      -1.680  11.444  19.317  0.00  0.00    +0.000 A 
ATOM     21  C   UNL     1      -0.715  10.626  18.716  0.00  0.00    +0.000 A 
ATOM     22  C   UNL     1      -1.072   9.882  17.579  0.00  0.00    +0.000 A 
ATOM     23  C   UNL     1      -2.363   9.963  17.047  0.00  0.00    +0.000 A 
ATOM     24  C   UNL     1      -3.309  10.784  17.656  0.00  0.00    +0.000 A 
BRANCH  19  26
ATOM     25  N   UNL     1      -4.723  13.011  20.006  0.00  0.00    +0.000 NA
ATOM     26  C   UNL     1      -3.935  12.371  19.441  0.00  0.00    +0.000 C 
ENDBRANCH  19  26
BRANCH  24  27
ATOM     27  O   UNL     1      -4.575  10.864  17.148  0.00  0.00    +0.000 OA
ATOM     28  H   UNL     1      -4.572  11.418  16.349  0.00  0.00    +0.000 HD
ENDBRANCH  24  27
ENDBRANCH  18  21
ENDBRANCH  14  18
ENDBRANCH   1  16
BRANCH   9  29
ATOM     29  C   UNL     1       6.060   4.850  15.196  0.00  0.00    +0.000 C 
ATOM     30  O   UNL     1       7.140   5.403  15.310  0.00  0.00    +0.000 OA
BRANCH  29  31
ATOM     31  O   UNL     1       5.657   4.272  14.049  0.00  0.00    +0.000 OA
ATOM     32  H   UNL     1       6.324   3.735  13.576  0.00  0.00    +0.000 HD
ENDBRANCH  29  31
ENDBRANCH   9  29
TORSDOF 7
ENDMDL
MODEL 6
REMARK VINA RESULT:      -7.8      1.339      1.729
REMARK  Name = 
REMARK  7 active torsions:
REMARK  status: ('A' for Active; 'I' for Inactive)
REMARK    1  A    between atoms: C_2  and  C_3
REMARK    2  A    between atoms: C_5  and  C_6
REMARK    3  A    between atoms: C_6  and  C_7
REMARK    4  A    between atoms: N_9  and  N_10
REMARK    5  A    between atoms: C_18  and  C_19
REMARK    6  A    between atoms: C_19  and  O_21
REMARK    7  A    between atoms: C_27  and  O_28
REMARK                            x       y       z     vdW  Elec       q    Type
REMARK                         _______ _______ _______ _____ _____    ______ ____
ROOT
ATOM      1  N   UNL     1       2.119   7.913  20.346  0.00  0.00    +0.000 NA
ATOM      2  C   UNL     1       1.624   8.782  19.539  0.00  0.00    +0.000 C 
ATOM      3  C   UNL     1       1.744   8.953  18.035  0.00  0.00    +0.000 C 
ATOM      4  O   UNL     1       2.385   8.234  17.301  0.00  0.00    +0.000 OA
ATOM      5  N   UNL     1       0.975  10.067  17.740  0.00  0.00    +0.000 N 
ATOM      6  C   UNL     1       0.398  10.593  18.899  0.00  0.00    +0.000 A 
ATOM      7  C   UNL     1      -0.423  11.691  19.020  0.00  0.00    +0.000 A 
ATOM      8  C   UNL     1      -0.880  12.016  20.309  0.00  0.00    +0.000 A 
ATOM      9  C   UNL     1      -0.517  11.250  21.451  0.00  0.00    +0.000 A 
ATOM     10  C   UNL     1       0.337  10.156  21.309  0.00  0.00    +0.000 A 
ATOM     11 CL   UNL     1       0.867   9.231  22.666  0.00  0.00    +0.000 Cl
ATOM     12  C   UNL     1       0.763   9.853  20.022  0.00  0.00    +0.000 A 
ATOM     13  H   UNL     1       0.862  10.434  16.804  0.00  0.00    +0.000 HD
ENDROOT
BRANCH   1  16
ATOM     14  C   UNL     1       2.352   5.635  20.117  0.00  0.00    +0.000 C 
ATOM     15  O   UNL     1       1.216   5.433  20.553  0.00  0.00    +0.000 OA
ATOM     16  N   UNL     1       2.920   6.898  19.983  0.00  0.00    +0.000 N 
ATOM     17  H   UNL     1       3.875   7.073  19.672  0.00  0.00    +0.000 HD
BRANCH  14  18
ATOM     18  C   UNL     1       3.216   4.478  19.686  0.00  0.00    +0.000 C 
BRANCH  18  21
ATOM     19  C   UNL     1       5.712   6.049  17.270  0.00  0.00    +0.000 A 
ATOM     20  C   UNL     1       4.998   5.742  18.436  0.00  0.00    +0.000 A 
ATOM     21  C   UNL     1       4.007   4.752  18.429  0.00  0.00    +0.000 A 
ATOM     22  C   UNL     1       3.734   4.076  17.229  0.00  0.00    +0.000 A 
ATOM     23  C   UNL     1       4.445   4.375  16.062  0.00  0.00    +0.000 A 
ATOM     24  C   UNL     1       5.429   5.361  16.088  0.00  0.00    +0.000 A 
BRANCH  19  26
ATOM     25  N   UNL     1       7.554   7.873  17.319  0.00  0.00    +0.000 NA
ATOM     26  C   UNL     1       6.712   7.074  17.319  0.00  0.00    +0.000 C 
ENDBRANCH  19  26
BRANCH  24  27
ATOM     27  O   UNL     1       6.123   5.665  14.951  0.00  0.00    +0.000 OA
ATOM     28  H   UNL     1       7.061   5.805  15.168  0.00  0.00    +0.000 HD
ENDBRANCH  24  27
ENDBRANCH  18  21
ENDBRANCH  14  18
ENDBRANCH   1  16
BRANCH   9  29
ATOM     29  C   UNL     1      -1.073  11.695  22.760  0.00  0.00    +0.000 C 
ATOM     30  O   UNL     1      -0.828  12.804  23.200  0.00  0.00    +0.000 OA
BRANCH  29  31
ATOM     31  O   UNL     1      -1.929  10.848  23.361  0.00  0.00    +0.000 OA
ATOM     32  H   UNL     1      -1.753   9.892  23.238  0.00  0.00    +0.000 HD
ENDBRANCH  29  31
ENDBRANCH   9  29
TORSDOF 7
ENDMDL
MODEL 7
REMARK VINA RESULT:      -7.8      1.375      1.842
REMARK  Name = 
REMARK  7 active torsions:
REMARK  status: ('A' for Active; 'I' for Inactive)
REMARK    1  A    between atoms: C_2  and  C_3
REMARK    2  A    between atoms: C_5  and  C_6
REMARK    3  A    between atoms: C_6  and  C_7
REMARK    4  A    between atoms: N_9  and  N_10
REMARK    5  A    between atoms: C_18  and  C_19
REMARK    6  A    between atoms: C_19  and  O_21
REMARK    7  A    between atoms: C_27  and  O_28
REMARK                            x       y       z     vdW  Elec       q    Type
REMARK                         _______ _______ _______ _____ _____    ______ ____
ROOT
ATOM      1  N   UNL     1       1.803   7.371  19.439  0.00  0.00    +0.000 NA
ATOM      2  C   UNL     1       1.741   8.567  18.976  0.00  0.00    +0.000 C 
ATOM      3  C   UNL     1       2.252   9.184  17.685  0.00  0.00    +0.000 C 
ATOM      4  O   UNL     1       2.854   8.587  16.820  0.00  0.00    +0.000 OA
ATOM      5  N   UNL     1       1.869  10.513  17.748  0.00  0.00    +0.000 N 
ATOM      6  C   UNL     1       1.179  10.776  18.935  0.00  0.00    +0.000 A 
ATOM      7  C   UNL     1       0.645  11.969  19.364  0.00  0.00    +0.000 A 
ATOM      8  C   UNL     1      -0.013  11.971  20.607  0.00  0.00    +0.000 A 
ATOM      9  C   UNL     1      -0.128  10.796  21.399  0.00  0.00    +0.000 A 
ATOM     10  C   UNL     1       0.443   9.603  20.957  0.00  0.00    +0.000 A 
ATOM     11 CL   UNL     1       0.395   8.162  21.905  0.00  0.00    +0.000 Cl
ATOM     12  C   UNL     1       1.076   9.629  19.720  0.00  0.00    +0.000 A 
ATOM     13  H   UNL     1       2.074  11.187  17.022  0.00  0.00    +0.000 HD
ENDROOT
BRANCH   1  16
ATOM     14  C   UNL     1       2.683   5.254  19.644  0.00  0.00    +0.000 C 
ATOM     15  O   UNL     1       2.444   5.227  20.854  0.00  0.00    +0.000 OA
ATOM     16  N   UNL     1       2.397   6.338  18.819  0.00  0.00    +0.000 N 
ATOM     17  H   UNL     1       2.636   6.391  17.829  0.00  0.00    +0.000 HD
BRANCH  14  18
ATOM     18  C   UNL     1       3.320   4.067  18.969  0.00  0.00    +0.000 C 
BRANCH  18  21
ATOM     19  C   UNL     1       6.476   5.709  17.599  0.00  0.00    +0.000 A 
ATOM     20  C   UNL     1       5.448   5.312  18.466  0.00  0.00    +0.000 A 
ATOM     21  C   UNL     1       4.445   4.436  18.032  0.00  0.00    +0.000 A 
ATOM     22  C   UNL     1       4.480   3.969  16.709  0.00  0.00    +0.000 A 
ATOM     23  C   UNL     1       5.504   4.359  15.839  0.00  0.00    +0.000 A 
ATOM     24  C   UNL     1       6.496   5.228  16.288  0.00  0.00    +0.000 A 
BRANCH  19  26
ATOM     25  N   UNL     1       8.248   7.378  18.495  0.00  0.00    +0.000 NA
ATOM     26  C   UNL     1       7.479   6.612  18.081  0.00  0.00    +0.000 C 
ENDBRANCH  19  26
BRANCH  24  27
ATOM     27  O   UNL     1       7.496   5.621  15.444  0.00  0.00    +0.000 OA
ATOM     28  H   UNL     1       7.617   4.953  14.748  0.00  0.00    +0.000 HD
ENDBRANCH  24  27
ENDBRANCH  18  21
ENDBRANCH  14  18
ENDBRANCH   1  16
BRANCH   9  29
ATOM     29  C   UNL     1      -0.854  10.929  22.693  0.00  0.00    +0.000 C 
ATOM     30  O   UNL     1      -1.956  11.446  22.744  0.00  0.00    +0.000 OA
BRANCH  29  31
ATOM     31  O   UNL     1      -0.270  10.359  23.764  0.00  0.00    +0.000 OA
ATOM     32  H   UNL     1      -0.871   9.957  24.423  0.00  0.00    +0.000 HD
ENDBRANCH  29  31
ENDBRANCH   9  29
TORSDOF 7
ENDMDL
MODEL 8
REMARK VINA RESULT:      -7.7      3.832      5.199
REMARK  Name = 
REMARK  7 active torsions:
REMARK  status: ('A' for Active; 'I' for Inactive)
REMARK    1  A    between atoms: C_2  and  C_3
REMARK    2  A    between atoms: C_5  and  C_6
REMARK    3  A    between atoms: C_6  and  C_7
REMARK    4  A    between atoms: N_9  and  N_10
REMARK    5  A    between atoms: C_18  and  C_19
REMARK    6  A    between atoms: C_19  and  O_21
REMARK    7  A    between atoms: C_27  and  O_28
REMARK                            x       y       z     vdW  Elec       q    Type
REMARK                         _______ _______ _______ _____ _____    ______ ____
ROOT
ATOM      1  N   UNL     1      -1.482  10.677  18.183  0.00  0.00    +0.000 NA
ATOM      2  C   UNL     1      -2.603  10.849  17.580  0.00  0.00    +0.000 C 
ATOM      3  C   UNL     1      -3.088  10.435  16.201  0.00  0.00    +0.000 C 
ATOM      4  O   UNL     1      -2.430   9.828  15.385  0.00  0.00    +0.000 OA
ATOM      5  N   UNL     1      -4.392  10.895  16.128  0.00  0.00    +0.000 N 
ATOM      6  C   UNL     1      -4.757  11.543  17.312  0.00  0.00    +0.000 A 
ATOM      7  C   UNL     1      -5.960  12.135  17.624  0.00  0.00    +0.000 A 
ATOM      8  C   UNL     1      -6.079  12.721  18.896  0.00  0.00    +0.000 A 
ATOM      9  C   UNL     1      -5.009  12.712  19.832  0.00  0.00    +0.000 A 
ATOM     10  C   UNL     1      -3.790  12.129  19.486  0.00  0.00    +0.000 A 
ATOM     11 CL   UNL     1      -2.434  12.147  20.553  0.00  0.00    +0.000 Cl
ATOM     12  C   UNL     1      -3.706  11.548  18.227  0.00  0.00    +0.000 A 
ATOM     13  H   UNL     1      -4.982  10.770  15.317  0.00  0.00    +0.000 HD
ENDROOT
BRANCH   1  16
ATOM     14  C   UNL     1       0.771  10.238  18.358  0.00  0.00    +0.000 C 
ATOM     15  O   UNL     1       0.871  10.942  19.366  0.00  0.00    +0.000 OA
ATOM     16  N   UNL     1      -0.417  10.047  17.658  0.00  0.00    +0.000 N 
ATOM     17  H   UNL     1      -0.501   9.510  16.796  0.00  0.00    +0.000 HD
BRANCH  14  18
ATOM     18  C   UNL     1       1.976   9.517  17.812  0.00  0.00    +0.000 C 
BRANCH  18  21
ATOM     19  C   UNL     1       3.055   5.898  18.332  0.00  0.00    +0.000 A 
ATOM     20  C   UNL     1       2.848   7.157  17.752  0.00  0.00    +0.000 A 
ATOM     21  C   UNL     1       2.236   8.187  18.477  0.00  0.00    +0.000 A 
ATOM     22  C   UNL     1       1.823   7.934  19.795  0.00  0.00    +0.000 A 
ATOM     23  C   UNL     1       2.029   6.680  20.381  0.00  0.00    +0.000 A 
ATOM     24  C   UNL     1       2.643   5.668  19.646  0.00  0.00    +0.000 A 
BRANCH  19  26
ATOM     25  N   UNL     1       4.237   4.058  16.937  0.00  0.00    +0.000 NA
ATOM     26  C   UNL     1       3.679   4.870  17.552  0.00  0.00    +0.000 C 
ENDBRANCH  19  26
BRANCH  24  27
ATOM     27  O   UNL     1       2.841   4.438  20.207  0.00  0.00    +0.000 OA
ATOM     28  H   UNL     1       3.125   4.543  21.132  0.00  0.00    +0.000 HD
ENDBRANCH  24  27
ENDBRANCH  18  21
ENDBRANCH  14  18
ENDBRANCH   1  16
BRANCH   9  29
ATOM     29  C   UNL     1      -5.265  13.362  21.148  0.00  0.00    +0.000 C 
ATOM     30  O   UNL     1      -5.314  14.576  21.248  0.00  0.00    +0.000 OA
BRANCH  29  31
ATOM     31  O   UNL     1      -5.535  12.537  22.176  0.00  0.00    +0.000 OA
ATOM     32  H   UNL     1      -6.233  11.868  22.024  0.00  0.00    +0.000 HD
ENDBRANCH  29  31
ENDBRANCH   9  29
TORSDOF 7
ENDMDL
MODEL 9
REMARK VINA RESULT:      -7.7      2.575      7.909
REMARK  Name = 
REMARK  7 active torsions:
REMARK  status: ('A' for Active; 'I' for Inactive)
REMARK    1  A    between atoms: C_2  and  C_3
REMARK    2  A    between atoms: C_5  and  C_6
REMARK    3  A    between atoms: C_6  and  C_7
REMARK    4  A    between atoms: N_9  and  N_10
REMARK    5  A    between atoms: C_18  and  C_19
REMARK    6  A    between atoms: C_19  and  O_21
REMARK    7  A    between atoms: C_27  and  O_28
REMARK                            x       y       z     vdW  Elec       q    Type
REMARK                         _______ _______ _______ _____ _____    ______ ____
ROOT
ATOM      1  N   UNL     1       1.819   7.699  20.373  0.00  0.00    +0.000 NA
ATOM      2  C   UNL     1       2.412   7.504  19.251  0.00  0.00    +0.000 C 
ATOM      3  C   UNL     1       2.690   8.426  18.076  0.00  0.00    +0.000 C 
ATOM      4  O   UNL     1       2.361   9.590  18.012  0.00  0.00    +0.000 OA
ATOM      5  N   UNL     1       3.378   7.644  17.163  0.00  0.00    +0.000 N 
ATOM      6  C   UNL     1       3.551   6.346  17.651  0.00  0.00    +0.000 A 
ATOM      7  C   UNL     1       4.177   5.282  17.042  0.00  0.00    +0.000 A 
ATOM      8  C   UNL     1       4.224   4.069  17.751  0.00  0.00    +0.000 A 
ATOM      9  C   UNL     1       3.652   3.932  19.046  0.00  0.00    +0.000 A 
ATOM     10  C   UNL     1       3.000   5.016  19.634  0.00  0.00    +0.000 A 
ATOM     11 CL   UNL     1       2.228   4.891  21.173  0.00  0.00    +0.000 Cl
ATOM     12  C   UNL     1       2.980   6.204  18.915  0.00  0.00    +0.000 A 
ATOM     13  H   UNL     1       3.700   7.986  16.267  0.00  0.00    +0.000 HD
ENDROOT
BRANCH   1  16
ATOM     14  C   UNL     1       0.074   8.732  21.461  0.00  0.00    +0.000 C 
ATOM     15  O   UNL     1      -0.469   7.651  21.703  0.00  0.00    +0.000 OA
ATOM     16  N   UNL     1       1.269   8.862  20.758  0.00  0.00    +0.000 N 
ATOM     17  H   UNL     1       1.700   9.751  20.509  0.00  0.00    +0.000 HD
BRANCH  14  18
ATOM     18  C   UNL     1      -0.550  10.019  21.935  0.00  0.00    +0.000 C 
BRANCH  18  21
ATOM     19  C   UNL     1      -1.325  11.790  18.649  0.00  0.00    +0.000 A 
ATOM     20  C   UNL     1      -1.294  10.833  19.673  0.00  0.00    +0.000 A 
ATOM     21  C   UNL     1      -0.613  11.087  20.870  0.00  0.00    +0.000 A 
ATOM     22  C   UNL     1       0.048  12.316  21.024  0.00  0.00    +0.000 A 
ATOM     23  C   UNL     1       0.019  13.277  20.008  0.00  0.00    +0.000 A 
ATOM     24  C   UNL     1      -0.666  13.009  18.825  0.00  0.00    +0.000 A 
BRANCH  19  26
ATOM     25  N   UNL     1      -2.638  11.280  16.472  0.00  0.00    +0.000 NA
ATOM     26  C   UNL     1      -2.027  11.487  17.438  0.00  0.00    +0.000 C 
ENDBRANCH  19  26
BRANCH  24  27
ATOM     27  O   UNL     1      -0.693  13.938  17.824  0.00  0.00    +0.000 OA
ATOM     28  H   UNL     1      -1.315  14.649  18.055  0.00  0.00    +0.000 HD
ENDBRANCH  24  27
ENDBRANCH  18  21
ENDBRANCH  14  18
ENDBRANCH   1  16
BRANCH   9  29
ATOM     29  C   UNL     1       3.774   2.596  19.694  0.00  0.00    +0.000 C 
ATOM     30  O   UNL     1       2.792   1.901  19.887  0.00  0.00    +0.000 OA
BRANCH  29  31
ATOM     31  O   UNL     1       5.025   2.172  19.951  0.00  0.00    +0.000 OA
ATOM     32  H   UNL     1       5.752   2.734  19.614  0.00  0.00    +0.000 HD
ENDBRANCH  29  31
ENDBRANCH   9  29
TORSDOF 7
ENDMDL
