MODEL 1
REMARK VINA RESULT:      -7.6      0.000      0.000
REMARK  Name = 
REMARK  5 active torsions:
REMARK  status: ('A' for Active; 'I' for Inactive)
REMARK    1  A    between atoms: C_1  and  C_2
REMARK    2  A    between atoms: N_5  and  C_6
REMARK    3  A    between atoms: C_10  and  C_11
REMARK    4  A    between atoms: N_13  and  C_14
REMARK    5  A    between atoms: N_22  and  C_23
REMARK                            x       y       z     vdW  Elec       q    Type
REMARK                         _______ _______ _______ _____ _____    ______ ____
ROOT
ATOM      1  C   UNL     1       2.854   1.999  17.826  0.00  0.00    +0.000 C 
ATOM      2  C   UNL     1       2.997   3.483  17.499  0.00  0.00    +0.000 C 
ATOM      3  C   UNL     1       4.457   3.823  17.148  0.00  0.00    +0.000 C 
ATOM      4  O   UNL     1       5.319   2.960  16.972  0.00  0.00    +0.000 OA
ATOM      5  N   UNL     1       4.682   5.182  16.905  0.00  0.00    +0.000 N 
ATOM      6  C   UNL     1       5.877   5.567  16.189  0.00  0.00    +0.000 C 
ATOM      7  C   UNL     1       3.769   6.168  17.392  0.00  0.00    +0.000 A 
ATOM      8  C   UNL     1       3.978   7.542  17.154  0.00  0.00    +0.000 A 
ATOM      9  C   UNL     1       3.121   8.514  17.693  0.00  0.00    +0.000 A 
ATOM     10  C   UNL     1       2.029   8.116  18.457  0.00  0.00    +0.000 A 
ATOM     11  C   UNL     1       1.807   6.751  18.681  0.00  0.00    +0.000 A 
ATOM     12  C   UNL     1       2.674   5.762  18.190  0.00  0.00    +0.000 A 
ATOM     13  N   UNL     1       2.509   4.391  18.557  0.00  0.00    +0.000 N 
ENDROOT
BRANCH  10  14
ATOM     14  C   UNL     1       1.134   9.076  19.162  0.00  0.00    +0.000 C 
ATOM     15  O   UNL     1       0.457   9.819  18.454  0.00  0.00    +0.000 OA
ATOM     16  N   UNL     1       1.181   9.085  20.543  0.00  0.00    +0.000 N 
ATOM     17  H   UNL     1       1.907   8.543  20.992  0.00  0.00    +0.000 HD
BRANCH  16  18
ATOM     18  C   UNL     1       0.458   9.976  21.376  0.00  0.00    +0.000 A 
ATOM     19  C   UNL     1      -0.318   9.559  22.463  0.00  0.00    +0.000 A 
ATOM     20  C   UNL     1      -1.076  10.475  23.199  0.00  0.00    +0.000 A 
ATOM     21  C   UNL     1      -1.059  11.823  22.860  0.00  0.00    +0.000 A 
ATOM     22  C   UNL     1      -0.260  12.259  21.806  0.00  0.00    +0.000 A 
ATOM     23  C   UNL     1       0.505  11.342  21.072  0.00  0.00    +0.000 A 
ENDBRANCH  16  18
ENDBRANCH  10  14
BRANCH  13  24
ATOM     24  C   UNL     1       1.431   3.983  19.474  0.00  0.00    +0.000 C 
ATOM     25  C   UNL     1       1.509   2.737  20.321  0.00  0.00    +0.000 C 
ATOM     26  C   UNL     1       1.664   4.073  20.968  0.00  0.00    +0.000 C 
ENDBRANCH  13  24
TORSDOF 3
ENDMDL
MODEL 2
REMARK VINA RESULT:      -7.5      1.144      1.225
REMARK  Name = 
REMARK  5 active torsions:
REMARK  status: ('A' for Active; 'I' for Inactive)
REMARK    1  A    between atoms: C_1  and  C_2
REMARK    2  A    between atoms: N_5  and  C_6
REMARK    3  A    between atoms: C_10  and  C_11
REMARK    4  A    between atoms: N_13  and  C_14
REMARK    5  A    between atoms: N_22  and  C_23
REMARK                            x       y       z     vdW  Elec       q    Type
REMARK                         _______ _______ _______ _____ _____    ______ ____
ROOT
ATOM      1  C   UNL     1       3.752   1.904  17.996  0.00  0.00    +0.000 C 
ATOM      2  C   UNL     1       3.487   3.389  17.765  0.00  0.00    +0.000 C 
ATOM      3  C   UNL     1       4.635   4.026  16.961  0.00  0.00    +0.000 C 
ATOM      4  O   UNL     1       5.524   3.361  16.426  0.00  0.00    +0.000 OA
ATOM      5  N   UNL     1       4.497   5.404  16.769  0.00  0.00    +0.000 N 
ATOM      6  C   UNL     1       5.264   6.035  15.718  0.00  0.00    +0.000 C 
ATOM      7  C   UNL     1       3.649   6.177  17.622  0.00  0.00    +0.000 A 
ATOM      8  C   UNL     1       3.497   7.567  17.442  0.00  0.00    +0.000 A 
ATOM      9  C   UNL     1       2.721   8.335  18.323  0.00  0.00    +0.000 A 
ATOM     10  C   UNL     1       2.068   7.713  19.382  0.00  0.00    +0.000 A 
ATOM     11  C   UNL     1       2.202   6.329  19.554  0.00  0.00    +0.000 A 
ATOM     12  C   UNL     1       3.007   5.545  18.712  0.00  0.00    +0.000 A 
ATOM     13  N   UNL     1       3.245   4.166  18.998  0.00  0.00    +0.000 N 
ENDROOT
BRANCH  10  14
ATOM     14  C   UNL     1       1.318   8.460  20.430  0.00  0.00    +0.000 C 
ATOM     15  O   UNL     1       1.249   7.932  21.538  0.00  0.00    +0.000 OA
ATOM     16  N   UNL     1       0.723   9.649  20.053  0.00  0.00    +0.000 N 
ATOM     17  H   UNL     1       0.713   9.879  19.069  0.00  0.00    +0.000 HD
BRANCH  16  18
ATOM     18  C   UNL     1      -0.088  10.454  20.893  0.00  0.00    +0.000 A 
ATOM     19  C   UNL     1      -0.249  10.222  22.264  0.00  0.00    +0.000 A 
ATOM     20  C   UNL     1      -1.126  10.998  23.026  0.00  0.00    +0.000 A 
ATOM     21  C   UNL     1      -1.848  12.025  22.427  0.00  0.00    +0.000 A 
ATOM     22  C   UNL     1      -1.668  12.294  21.072  0.00  0.00    +0.000 A 
ATOM     23  C   UNL     1      -0.784  11.520  20.309  0.00  0.00    +0.000 A 
ENDBRANCH  16  18
ENDBRANCH  10  14
BRANCH  13  24
ATOM     24  C   UNL     1       2.661   3.534  20.194  0.00  0.00    +0.000 C 
ATOM     25  C   UNL     1       1.380   4.015  20.827  0.00  0.00    +0.000 C 
ATOM     26  C   UNL     1       1.378   2.740  20.052  0.00  0.00    +0.000 C 
ENDBRANCH  13  24
TORSDOF 3
ENDMDL
MODEL 3
REMARK VINA RESULT:      -7.4      2.358      8.503
REMARK  Name = 
REMARK  5 active torsions:
REMARK  status: ('A' for Active; 'I' for Inactive)
REMARK    1  A    between atoms: C_1  and  C_2
REMARK    2  A    between atoms: N_5  and  C_6
REMARK    3  A    between atoms: C_10  and  C_11
REMARK    4  A    between atoms: N_13  and  C_14
REMARK    5  A    between atoms: N_22  and  C_23
REMARK                            x       y       z     vdW  Elec       q    Type
REMARK                         _______ _______ _______ _____ _____    ______ ____
ROOT
ATOM      1  C   UNL     1      -1.862  13.168  20.570  0.00  0.00    +0.000 C 
ATOM      2  C   UNL     1      -1.246  11.778  20.710  0.00  0.00    +0.000 C 
ATOM      3  C   UNL     1      -0.915  11.479  22.184  0.00  0.00    +0.000 C 
ATOM      4  O   UNL     1      -1.289  12.199  23.111  0.00  0.00    +0.000 OA
ATOM      5  N   UNL     1      -0.281  10.249  22.384  0.00  0.00    +0.000 N 
ATOM      6  C   UNL     1      -0.284   9.679  23.713  0.00  0.00    +0.000 C 
ATOM      7  C   UNL     1       0.390   9.591  21.307  0.00  0.00    +0.000 A 
ATOM      8  C   UNL     1       1.032   8.350  21.490  0.00  0.00    +0.000 A 
ATOM      9  C   UNL     1       1.751   7.740  20.452  0.00  0.00    +0.000 A 
ATOM     10  C   UNL     1       1.814   8.358  19.207  0.00  0.00    +0.000 A 
ATOM     11  C   UNL     1       1.162   9.584  19.014  0.00  0.00    +0.000 A 
ATOM     12  C   UNL     1       0.473  10.235  20.050  0.00  0.00    +0.000 A 
ATOM     13  N   UNL     1      -0.054  11.551  19.869  0.00  0.00    +0.000 N 
ENDROOT
BRANCH  10  14
ATOM     14  C   UNL     1       2.644   7.846  18.082  0.00  0.00    +0.000 C 
ATOM     15  O   UNL     1       2.616   8.493  17.037  0.00  0.00    +0.000 OA
ATOM     16  N   UNL     1       3.329   6.663  18.291  0.00  0.00    +0.000 N 
ATOM     17  H   UNL     1       3.127   6.146  19.136  0.00  0.00    +0.000 HD
BRANCH  16  18
ATOM     18  C   UNL     1       4.107   5.990  17.315  0.00  0.00    +0.000 A 
ATOM     19  C   UNL     1       4.916   6.650  16.383  0.00  0.00    +0.000 A 
ATOM     20  C   UNL     1       5.595   5.939  15.390  0.00  0.00    +0.000 A 
ATOM     21  C   UNL     1       5.482   4.555  15.324  0.00  0.00    +0.000 A 
ATOM     22  C   UNL     1       4.714   3.880  16.270  0.00  0.00    +0.000 A 
ATOM     23  C   UNL     1       4.037   4.593  17.269  0.00  0.00    +0.000 A 
ENDBRANCH  16  18
ENDBRANCH  10  14
BRANCH  13  24
ATOM     24  C   UNL     1       0.125  12.264  18.593  0.00  0.00    +0.000 C 
ATOM     25  C   UNL     1       0.032  13.764  18.477  0.00  0.00    +0.000 C 
ATOM     26  C   UNL     1       1.368  13.106  18.391  0.00  0.00    +0.000 C 
ENDBRANCH  13  24
TORSDOF 3
ENDMDL
MODEL 4
REMARK VINA RESULT:      -7.4      2.301      8.424
REMARK  Name = 
REMARK  5 active torsions:
REMARK  status: ('A' for Active; 'I' for Inactive)
REMARK    1  A    between atoms: C_1  and  C_2
REMARK    2  A    between atoms: N_5  and  C_6
REMARK    3  A    between atoms: C_10  and  C_11
REMARK    4  A    between atoms: N_13  and  C_14
REMARK    5  A    between atoms: N_22  and  C_23
REMARK                            x       y       z     vdW  Elec       q    Type
REMARK                         _______ _______ _______ _____ _____    ______ ____
ROOT
ATOM      1  C   UNL     1      -1.201  13.334  20.532  0.00  0.00    +0.000 C 
ATOM      2  C   UNL     1      -0.749  11.879  20.634  0.00  0.00    +0.000 C 
ATOM      3  C   UNL     1      -0.539  11.479  22.106  0.00  0.00    +0.000 C 
ATOM      4  O   UNL     1      -0.886  12.194  23.048  0.00  0.00    +0.000 OA
ATOM      5  N   UNL     1      -0.056  10.178  22.277  0.00  0.00    +0.000 N 
ATOM      6  C   UNL     1      -0.198   9.553  23.573  0.00  0.00    +0.000 C 
ATOM      7  C   UNL     1       0.601   9.498  21.205  0.00  0.00    +0.000 A 
ATOM      8  C   UNL     1       1.092   8.186  21.359  0.00  0.00    +0.000 A 
ATOM      9  C   UNL     1       1.800   7.546  20.330  0.00  0.00    +0.000 A 
ATOM     10  C   UNL     1       2.001   8.209  19.123  0.00  0.00    +0.000 A 
ATOM     11  C   UNL     1       1.500   9.507  18.959  0.00  0.00    +0.000 A 
ATOM     12  C   UNL     1       0.827  10.184  19.988  0.00  0.00    +0.000 A 
ATOM     13  N   UNL     1       0.458  11.557  19.847  0.00  0.00    +0.000 N 
ENDROOT
BRANCH  10  14
ATOM     14  C   UNL     1       2.835   7.657  18.019  0.00  0.00    +0.000 C 
ATOM     15  O   UNL     1       2.934   8.347  17.007  0.00  0.00    +0.000 OA
ATOM     16  N   UNL     1       3.378   6.400  18.206  0.00  0.00    +0.000 N 
ATOM     17  H   UNL     1       3.075   5.872  19.014  0.00  0.00    +0.000 HD
BRANCH  16  18
ATOM     18  C   UNL     1       4.134   5.688  17.240  0.00  0.00    +0.000 A 
ATOM     19  C   UNL     1       4.106   4.295  17.112  0.00  0.00    +0.000 A 
ATOM     20  C   UNL     1       4.936   3.641  16.196  0.00  0.00    +0.000 A 
ATOM     21  C   UNL     1       5.797   4.375  15.390  0.00  0.00    +0.000 A 
ATOM     22  C   UNL     1       5.807   5.766  15.477  0.00  0.00    +0.000 A 
ATOM     23  C   UNL     1       4.971   6.422  16.391  0.00  0.00    +0.000 A 
ENDBRANCH  16  18
ENDBRANCH  10  14
BRANCH  13  24
ATOM     24  C   UNL     1       0.788  12.302  18.619  0.00  0.00    +0.000 C 
ATOM     25  C   UNL     1       1.129  13.771  18.624  0.00  0.00    +0.000 C 
ATOM     26  C   UNL     1       2.213  12.769  18.405  0.00  0.00    +0.000 C 
ENDBRANCH  13  24
TORSDOF 3
ENDMDL
MODEL 5
REMARK VINA RESULT:      -7.3      3.133      8.517
REMARK  Name = 
REMARK  5 active torsions:
REMARK  status: ('A' for Active; 'I' for Inactive)
REMARK    1  A    between atoms: C_1  and  C_2
REMARK    2  A    between atoms: N_5  and  C_6
REMARK    3  A    between atoms: C_10  and  C_11
REMARK    4  A    between atoms: N_13  and  C_14
REMARK    5  A    between atoms: N_22  and  C_23
REMARK                            x       y       z     vdW  Elec       q    Type
REMARK                         _______ _______ _______ _____ _____    ______ ____
ROOT
ATOM      1  C   UNL     1       2.169   4.432  21.225  0.00  0.00    +0.000 C 
ATOM      2  C   UNL     1       2.909   5.205  20.136  0.00  0.00    +0.000 C 
ATOM      3  C   UNL     1       2.152   6.497  19.780  0.00  0.00    +0.000 C 
ATOM      4  O   UNL     1       1.197   6.915  20.438  0.00  0.00    +0.000 OA
ATOM      5  N   UNL     1       2.732   7.226  18.737  0.00  0.00    +0.000 N 
ATOM      6  C   UNL     1       2.370   8.617  18.581  0.00  0.00    +0.000 C 
ATOM      7  C   UNL     1       3.632   6.597  17.822  0.00  0.00    +0.000 A 
ATOM      8  C   UNL     1       4.228   7.316  16.766  0.00  0.00    +0.000 A 
ATOM      9  C   UNL     1       5.054   6.682  15.826  0.00  0.00    +0.000 A 
ATOM     10  C   UNL     1       5.311   5.320  15.949  0.00  0.00    +0.000 A 
ATOM     11  C   UNL     1       4.735   4.604  17.006  0.00  0.00    +0.000 A 
ATOM     12  C   UNL     1       3.870   5.207  17.934  0.00  0.00    +0.000 A 
ATOM     13  N   UNL     1       3.180   4.426  18.911  0.00  0.00    +0.000 N 
ENDROOT
BRANCH  10  14
ATOM     14  C   UNL     1       6.080   4.541  14.939  0.00  0.00    +0.000 C 
ATOM     15  O   UNL     1       7.284   4.409  15.145  0.00  0.00    +0.000 OA
ATOM     16  N   UNL     1       5.386   4.083  13.834  0.00  0.00    +0.000 N 
ATOM     17  H   UNL     1       4.438   4.411  13.705  0.00  0.00    +0.000 HD
BRANCH  16  18
ATOM     18  C   UNL     1       5.965   3.391  12.740  0.00  0.00    +0.000 A 
ATOM     19  C   UNL     1       5.413   2.233  12.181  0.00  0.00    +0.000 A 
ATOM     20  C   UNL     1       6.071   1.545  11.157  0.00  0.00    +0.000 A 
ATOM     21  C   UNL     1       7.287   2.015  10.673  0.00  0.00    +0.000 A 
ATOM     22  C   UNL     1       7.829   3.188  11.192  0.00  0.00    +0.000 A 
ATOM     23  C   UNL     1       7.166   3.881  12.214  0.00  0.00    +0.000 A 
ENDBRANCH  16  18
ENDBRANCH  10  14
BRANCH  13  24
ATOM     24  C   UNL     1       3.348   2.963  18.960  0.00  0.00    +0.000 C 
ATOM     25  C   UNL     1       2.212   2.023  19.276  0.00  0.00    +0.000 C 
ATOM     26  C   UNL     1       2.717   2.115  17.875  0.00  0.00    +0.000 C 
ENDBRANCH  13  24
TORSDOF 3
ENDMDL
MODEL 6
REMARK VINA RESULT:      -7.2      1.107      1.521
REMARK  Name = 
REMARK  5 active torsions:
REMARK  status: ('A' for Active; 'I' for Inactive)
REMARK    1  A    between atoms: C_1  and  C_2
REMARK    2  A    between atoms: N_5  and  C_6
REMARK    3  A    between atoms: C_10  and  C_11
REMARK    4  A    between atoms: N_13  and  C_14
REMARK    5  A    between atoms: N_22  and  C_23
REMARK                            x       y       z     vdW  Elec       q    Type
REMARK                         _______ _______ _______ _____ _____    ______ ____
ROOT
ATOM      1  C   UNL     1       3.706   1.667  18.054  0.00  0.00    +0.000 C 
ATOM      2  C   UNL     1       3.448   3.152  17.815  0.00  0.00    +0.000 C 
ATOM      3  C   UNL     1       4.557   3.760  16.936  0.00  0.00    +0.000 C 
ATOM      4  O   UNL     1       5.405   3.074  16.363  0.00  0.00    +0.000 OA
ATOM      5  N   UNL     1       4.427   5.137  16.730  0.00  0.00    +0.000 N 
ATOM      6  C   UNL     1       5.141   5.741  15.627  0.00  0.00    +0.000 C 
ATOM      7  C   UNL     1       3.639   5.934  17.617  0.00  0.00    +0.000 A 
ATOM      8  C   UNL     1       3.495   7.324  17.424  0.00  0.00    +0.000 A 
ATOM      9  C   UNL     1       2.780   8.117  18.334  0.00  0.00    +0.000 A 
ATOM     10  C   UNL     1       2.180   7.520  19.439  0.00  0.00    +0.000 A 
ATOM     11  C   UNL     1       2.306   6.137  19.626  0.00  0.00    +0.000 A 
ATOM     12  C   UNL     1       3.052   5.328  18.752  0.00  0.00    +0.000 A 
ATOM     13  N   UNL     1       3.287   3.951  19.047  0.00  0.00    +0.000 N 
ENDROOT
BRANCH  10  14
ATOM     14  C   UNL     1       1.502   8.293  20.515  0.00  0.00    +0.000 C 
ATOM     15  O   UNL     1       1.508   7.794  21.638  0.00  0.00    +0.000 OA
ATOM     16  N   UNL     1       0.880   9.472  20.149  0.00  0.00    +0.000 N 
ATOM     17  H   UNL     1       0.804   9.677  19.162  0.00  0.00    +0.000 HD
BRANCH  16  18
ATOM     18  C   UNL     1       0.126  10.299  21.021  0.00  0.00    +0.000 A 
ATOM     19  C   UNL     1      -0.144  11.648  20.764  0.00  0.00    +0.000 A 
ATOM     20  C   UNL     1      -0.821  12.436  21.699  0.00  0.00    +0.000 A 
ATOM     21  C   UNL     1      -1.247  11.879  22.900  0.00  0.00    +0.000 A 
ATOM     22  C   UNL     1      -1.022  10.528  23.152  0.00  0.00    +0.000 A 
ATOM     23  C   UNL     1      -0.348   9.736  22.212  0.00  0.00    +0.000 A 
ENDBRANCH  16  18
ENDBRANCH  10  14
BRANCH  13  24
ATOM     24  C   UNL     1       2.764   3.346  20.284  0.00  0.00    +0.000 C 
ATOM     25  C   UNL     1       2.047   4.146  21.342  0.00  0.00    +0.000 C 
ATOM     26  C   UNL     1       1.264   3.227  20.465  0.00  0.00    +0.000 C 
ENDBRANCH  13  24
TORSDOF 3
ENDMDL
MODEL 7
REMARK VINA RESULT:      -7.2      1.269      1.370
REMARK  Name = 
REMARK  5 active torsions:
REMARK  status: ('A' for Active; 'I' for Inactive)
REMARK    1  A    between atoms: C_1  and  C_2
REMARK    2  A    between atoms: N_5  and  C_6
REMARK    3  A    between atoms: C_10  and  C_11
REMARK    4  A    between atoms: N_13  and  C_14
REMARK    5  A    between atoms: N_22  and  C_23
REMARK                            x       y       z     vdW  Elec       q    Type
REMARK                         _______ _______ _______ _____ _____    ______ ____
ROOT
ATOM      1  C   UNL     1       2.793   1.998  17.953  0.00  0.00    +0.000 C 
ATOM      2  C   UNL     1       2.845   3.498  17.671  0.00  0.00    +0.000 C 
ATOM      3  C   UNL     1       4.210   3.890  17.076  0.00  0.00    +0.000 C 
ATOM      4  O   UNL     1       5.042   3.058  16.709  0.00  0.00    +0.000 OA
ATOM      5  N   UNL     1       4.360   5.262  16.856  0.00  0.00    +0.000 N 
ATOM      6  C   UNL     1       5.397   5.707  15.951  0.00  0.00    +0.000 C 
ATOM      7  C   UNL     1       3.533   6.205  17.542  0.00  0.00    +0.000 A 
ATOM      8  C   UNL     1       3.669   7.592  17.331  0.00  0.00    +0.000 A 
ATOM      9  C   UNL     1       2.907   8.519  18.057  0.00  0.00    +0.000 A 
ATOM     10  C   UNL     1       1.980   8.062  18.989  0.00  0.00    +0.000 A 
ATOM     11  C   UNL     1       1.829   6.684  19.191  0.00  0.00    +0.000 A 
ATOM     12  C   UNL     1       2.610   5.738  18.507  0.00  0.00    +0.000 A 
ATOM     13  N   UNL     1       2.541   4.350  18.838  0.00  0.00    +0.000 N 
ENDROOT
BRANCH  10  14
ATOM     14  C   UNL     1       1.211   8.969  19.886  0.00  0.00    +0.000 C 
ATOM     15  O   UNL     1       0.956   8.545  21.011  0.00  0.00    +0.000 OA
ATOM     16  N   UNL     1       0.804  10.181  19.360  0.00  0.00    +0.000 N 
ATOM     17  H   UNL     1       0.931  10.329  18.368  0.00  0.00    +0.000 HD
BRANCH  16  18
ATOM     18  C   UNL     1       0.004  11.135  20.039  0.00  0.00    +0.000 A 
ATOM     19  C   UNL     1      -1.351  11.345  19.760  0.00  0.00    +0.000 A 
ATOM     20  C   UNL     1      -2.069  12.357  20.403  0.00  0.00    +0.000 A 
ATOM     21  C   UNL     1      -1.441  13.167  21.342  0.00  0.00    +0.000 A 
ATOM     22  C   UNL     1      -0.103  12.944  21.661  0.00  0.00    +0.000 A 
ATOM     23  C   UNL     1       0.615  11.925  21.020  0.00  0.00    +0.000 A 
ENDBRANCH  16  18
ENDBRANCH  10  14
BRANCH  13  24
ATOM     24  C   UNL     1       1.656   3.877  19.917  0.00  0.00    +0.000 C 
ATOM     25  C   UNL     1       1.984   2.681  20.774  0.00  0.00    +0.000 C 
ATOM     26  C   UNL     1       2.096   4.050  21.356  0.00  0.00    +0.000 C 
ENDBRANCH  13  24
TORSDOF 3
ENDMDL
MODEL 8
REMARK VINA RESULT:      -7.2      2.509      8.835
REMARK  Name = 
REMARK  5 active torsions:
REMARK  status: ('A' for Active; 'I' for Inactive)
REMARK    1  A    between atoms: C_1  and  C_2
REMARK    2  A    between atoms: N_5  and  C_6
REMARK    3  A    between atoms: C_10  and  C_11
REMARK    4  A    between atoms: N_13  and  C_14
REMARK    5  A    between atoms: N_22  and  C_23
REMARK                            x       y       z     vdW  Elec       q    Type
REMARK                         _______ _______ _______ _____ _____    ______ ____
ROOT
ATOM      1  C   UNL     1      -0.720  15.080  19.991  0.00  0.00    +0.000 C 
ATOM      2  C   UNL     1      -0.686  13.567  20.198  0.00  0.00    +0.000 C 
ATOM      3  C   UNL     1      -0.867  13.220  21.687  0.00  0.00    +0.000 C 
ATOM      4  O   UNL     1      -1.189  14.056  22.533  0.00  0.00    +0.000 OA
ATOM      5  N   UNL     1      -0.777  11.853  21.966  0.00  0.00    +0.000 N 
ATOM      6  C   UNL     1      -1.317  11.365  23.216  0.00  0.00    +0.000 C 
ATOM      7  C   UNL     1      -0.127  10.965  21.053  0.00  0.00    +0.000 A 
ATOM      8  C   UNL     1      -0.028   9.583  21.317  0.00  0.00    +0.000 A 
ATOM      9  C   UNL     1       0.671   8.725  20.456  0.00  0.00    +0.000 A 
ATOM     10  C   UNL     1       1.261   9.239  19.306  0.00  0.00    +0.000 A 
ATOM     11  C   UNL     1       1.150  10.609  19.030  0.00  0.00    +0.000 A 
ATOM     12  C   UNL     1       0.493  11.496  19.898  0.00  0.00    +0.000 A 
ATOM     13  N   UNL     1       0.523  12.906  19.670  0.00  0.00    +0.000 N 
ENDROOT
BRANCH  10  14
ATOM     14  C   UNL     1       2.116   8.429  18.395  0.00  0.00    +0.000 C 
ATOM     15  O   UNL     1       2.313   8.887  17.272  0.00  0.00    +0.000 OA
ATOM     16  N   UNL     1       2.570   7.213  18.871  0.00  0.00    +0.000 N 
ATOM     17  H   UNL     1       2.191   6.881  19.748  0.00  0.00    +0.000 HD
BRANCH  16  18
ATOM     18  C   UNL     1       3.331   6.279  18.123  0.00  0.00    +0.000 A 
ATOM     19  C   UNL     1       4.566   6.582  17.539  0.00  0.00    +0.000 A 
ATOM     20  C   UNL     1       5.233   5.646  16.743  0.00  0.00    +0.000 A 
ATOM     21  C   UNL     1       4.675   4.391  16.529  0.00  0.00    +0.000 A 
ATOM     22  C   UNL     1       3.466   4.061  17.136  0.00  0.00    +0.000 A 
ATOM     23  C   UNL     1       2.800   4.996  17.940  0.00  0.00    +0.000 A 
ENDBRANCH  16  18
ENDBRANCH  10  14
BRANCH  13  24
ATOM     24  C   UNL     1       1.259  13.466  18.523  0.00  0.00    +0.000 C 
ATOM     25  C   UNL     1       1.958  14.801  18.577  0.00  0.00    +0.000 C 
ATOM     26  C   UNL     1       2.770  13.550  18.591  0.00  0.00    +0.000 C 
ENDBRANCH  13  24
TORSDOF 3
ENDMDL
MODEL 9
REMARK VINA RESULT:      -7.1      3.066      8.478
REMARK  Name = 
REMARK  5 active torsions:
REMARK  status: ('A' for Active; 'I' for Inactive)
REMARK    1  A    between atoms: C_1  and  C_2
REMARK    2  A    between atoms: N_5  and  C_6
REMARK    3  A    between atoms: C_10  and  C_11
REMARK    4  A    between atoms: N_13  and  C_14
REMARK    5  A    between atoms: N_22  and  C_23
REMARK                            x       y       z     vdW  Elec       q    Type
REMARK                         _______ _______ _______ _____ _____    ______ ____
ROOT
ATOM      1  C   UNL     1       2.166   4.023  21.398  0.00  0.00    +0.000 C 
ATOM      2  C   UNL     1       2.883   4.878  20.356  0.00  0.00    +0.000 C 
ATOM      3  C   UNL     1       2.074   6.152  20.051  0.00  0.00    +0.000 C 
ATOM      4  O   UNL     1       1.095   6.496  20.716  0.00  0.00    +0.000 OA
ATOM      5  N   UNL     1       2.634   6.955  19.052  0.00  0.00    +0.000 N 
ATOM      6  C   UNL     1       2.213   8.335  18.957  0.00  0.00    +0.000 C 
ATOM      7  C   UNL     1       3.570   6.409  18.120  0.00  0.00    +0.000 A 
ATOM      8  C   UNL     1       4.146   7.203  17.107  0.00  0.00    +0.000 A 
ATOM      9  C   UNL     1       5.009   6.651  16.149  0.00  0.00    +0.000 A 
ATOM     10  C   UNL     1       5.324   5.297  16.210  0.00  0.00    +0.000 A 
ATOM     11  C   UNL     1       4.768   4.507  17.225  0.00  0.00    +0.000 A 
ATOM     12  C   UNL     1       3.868   5.027  18.169  0.00  0.00    +0.000 A 
ATOM     13  N   UNL     1       3.202   4.171  19.099  0.00  0.00    +0.000 N 
ENDROOT
BRANCH  10  14
ATOM     14  C   UNL     1       6.137   4.601  15.174  0.00  0.00    +0.000 C 
ATOM     15  O   UNL     1       7.347   4.535  15.377  0.00  0.00    +0.000 OA
ATOM     16  N   UNL     1       5.470   4.140  14.055  0.00  0.00    +0.000 N 
ATOM     17  H   UNL     1       4.504   4.414  13.936  0.00  0.00    +0.000 HD
BRANCH  16  18
ATOM     18  C   UNL     1       6.088   3.521  12.938  0.00  0.00    +0.000 A 
ATOM     19  C   UNL     1       7.196   4.059  12.273  0.00  0.00    +0.000 A 
ATOM     20  C   UNL     1       7.712   3.448  11.126  0.00  0.00    +0.000 A 
ATOM     21  C   UNL     1       7.131   2.285  10.636  0.00  0.00    +0.000 A 
ATOM     22  C   UNL     1       6.053   1.715  11.310  0.00  0.00    +0.000 A 
ATOM     23  C   UNL     1       5.539   2.324  12.463  0.00  0.00    +0.000 A 
ENDBRANCH  16  18
ENDBRANCH  10  14
BRANCH  13  24
ATOM     24  C   UNL     1       3.433   2.716  19.081  0.00  0.00    +0.000 C 
ATOM     25  C   UNL     1       2.315   1.712  19.207  0.00  0.00    +0.000 C 
ATOM     26  C   UNL     1       2.970   1.914  17.882  0.00  0.00    +0.000 C 
ENDBRANCH  13  24
TORSDOF 3
ENDMDL
