MODEL 1
REMARK VINA RESULT:      -9.5      0.000      0.000
REMARK  Name = 
REMARK  6 active torsions:
REMARK  status: ('A' for Active; 'I' for Inactive)
REMARK    1  A    between atoms: C_2  and  C_3
REMARK    2  A    between atoms: C_2  and  C_23
REMARK    3  A    between atoms: C_3  and  C_4
REMARK    4  A    between atoms: C_9  and  C_10
REMARK    5  A    between atoms: C_10  and  C_12
REMARK    6  A    between atoms: C_21  and  O_22
REMARK                            x       y       z     vdW  Elec       q    Type
REMARK                         _______ _______ _______ _____ _____    ______ ____
ROOT
ATOM      1  C   UNL     1       3.886   2.902  19.671  0.00  0.00    +0.000 A 
ATOM      2  N   UNL     1       4.951   3.725  19.502  0.00  0.00    +0.000 NA
ATOM      3  C   UNL     1       5.399   3.925  18.249  0.00  0.00    +0.000 A 
ATOM      4  C   UNL     1       6.502   4.744  18.034  0.00  0.00    +0.000 A 
ATOM      5  C   UNL     1       7.006   4.980  16.757  0.00  0.00    +0.000 A 
ATOM      6  C   UNL     1       6.377   4.411  15.651  0.00  0.00    +0.000 A 
ATOM      7  C   UNL     1       5.290   3.554  15.854  0.00  0.00    +0.000 A 
ATOM      8  C   UNL     1       4.788   3.296  17.133  0.00  0.00    +0.000 A 
ATOM      9  N   UNL     1       3.736   2.471  17.296  0.00  0.00    +0.000 NA
ATOM     10  C   UNL     1       3.317   2.287  18.560  0.00  0.00    +0.000 A 
ENDROOT
BRANCH   6  11
ATOM     11  C   UNL     1       6.866   4.657  14.259  0.00  0.00    +0.000 C 
ATOM     12  O   UNL     1       7.724   5.520  14.093  0.00  0.00    +0.000 OA
BRANCH  11  13
ATOM     13  C   UNL     1       6.346   3.883  13.089  0.00  0.00    +0.000 A 
ATOM     14  C   UNL     1       4.992   3.894  12.734  0.00  0.00    +0.000 A 
ATOM     15  C   UNL     1       4.541   3.148  11.640  0.00  0.00    +0.000 A 
ATOM     16  C   UNL     1       5.437   2.370  10.909  0.00  0.00    +0.000 A 
ATOM     17  C   UNL     1       6.785   2.332  11.275  0.00  0.00    +0.000 A 
ATOM     18  C   UNL     1       7.235   3.087  12.366  0.00  0.00    +0.000 A 
ENDBRANCH  11  13
ENDBRANCH   6  11
BRANCH  10  19
ATOM     19  O   UNL     1       2.310   1.387  18.680  0.00  0.00    +0.000 OA
ATOM     20  H   UNL     1       2.504   1.024  19.566  0.00  0.00    +0.000 HD
ENDBRANCH  10  19
BRANCH   1  21
ATOM     21  C   UNL     1       3.437   2.598  21.073  0.00  0.00    +0.000 C 
BRANCH  21  23
ATOM     22  O   UNL     1       1.359   2.844  22.330  0.00  0.00    +0.000 OA
ATOM     23  C   UNL     1       2.139   3.252  21.476  0.00  0.00    +0.000 C 
BRANCH  23  24
ATOM     24  C   UNL     1       1.747   4.500  20.674  0.00  0.00    +0.000 C 
ATOM     25  O   UNL     1       0.951   4.407  19.751  0.00  0.00    +0.000 OA
ATOM     26  N   UNL     1       2.328   5.658  21.154  0.00  0.00    +0.000 N 
ATOM     27  C   UNL     1       1.900   6.873  20.689  0.00  0.00    +0.000 A 
ATOM     28  N   UNL     1       1.496   7.865  21.446  0.00  0.00    +0.000 NA
ATOM     29  C   UNL     1       1.075   8.832  20.563  0.00  0.00    +0.000 A 
ATOM     30  C   UNL     1       0.306   9.984  20.776  0.00  0.00    +0.000 A 
ATOM     31  C   UNL     1       0.046  10.824  19.686  0.00  0.00    +0.000 A 
ATOM     32  C   UNL     1       0.639  10.587  18.442  0.00  0.00    +0.000 A 
ATOM     33  C   UNL     1       1.388   9.428  18.204  0.00  0.00    +0.000 A 
ATOM     34  C   UNL     1       1.486   8.531  19.270  0.00  0.00    +0.000 A 
ATOM     35  N   UNL     1       1.852   7.210  19.359  0.00  0.00    +0.000 N 
ATOM     36  H   UNL     1       2.654   5.627  22.115  0.00  0.00    +0.000 HD
ATOM     37  H   UNL     1       2.001   6.579  18.586  0.00  0.00    +0.000 HD
ENDBRANCH  23  24
ENDBRANCH  21  23
ENDBRANCH   1  21
TORSDOF 6
ENDMDL
MODEL 2
REMARK VINA RESULT:      -9.5      2.801      8.855
REMARK  Name = 
REMARK  6 active torsions:
REMARK  status: ('A' for Active; 'I' for Inactive)
REMARK    1  A    between atoms: C_2  and  C_3
REMARK    2  A    between atoms: C_2  and  C_23
REMARK    3  A    between atoms: C_3  and  C_4
REMARK    4  A    between atoms: C_9  and  C_10
REMARK    5  A    between atoms: C_10  and  C_12
REMARK    6  A    between atoms: C_21  and  O_22
REMARK                            x       y       z     vdW  Elec       q    Type
REMARK                         _______ _______ _______ _____ _____    ______ ____
ROOT
ATOM      1  C   UNL     1       3.532   5.663  19.576  0.00  0.00    +0.000 A 
ATOM      2  N   UNL     1       3.545   6.623  18.618  0.00  0.00    +0.000 NA
ATOM      3  C   UNL     1       2.657   7.629  18.726  0.00  0.00    +0.000 A 
ATOM      4  C   UNL     1       2.621   8.623  17.753  0.00  0.00    +0.000 A 
ATOM      5  C   UNL     1       1.719   9.683  17.817  0.00  0.00    +0.000 A 
ATOM      6  C   UNL     1       0.843   9.780  18.897  0.00  0.00    +0.000 A 
ATOM      7  C   UNL     1       0.842   8.768  19.862  0.00  0.00    +0.000 A 
ATOM      8  C   UNL     1       1.730   7.690  19.798  0.00  0.00    +0.000 A 
ATOM      9  N   UNL     1       1.708   6.734  20.746  0.00  0.00    +0.000 NA
ATOM     10  C   UNL     1       2.602   5.740  20.607  0.00  0.00    +0.000 A 
ENDROOT
BRANCH   6  11
ATOM     11  C   UNL     1      -0.124  10.913  19.021  0.00  0.00    +0.000 C 
ATOM     12  O   UNL     1       0.228  11.905  19.655  0.00  0.00    +0.000 OA
BRANCH  11  13
ATOM     13  C   UNL     1      -1.481  10.868  18.394  0.00  0.00    +0.000 A 
ATOM     14  C   UNL     1      -2.539  11.659  18.857  0.00  0.00    +0.000 A 
ATOM     15  C   UNL     1      -3.799  11.581  18.252  0.00  0.00    +0.000 A 
ATOM     16  C   UNL     1      -4.012  10.697  17.197  0.00  0.00    +0.000 A 
ATOM     17  C   UNL     1      -2.968   9.884  16.748  0.00  0.00    +0.000 A 
ATOM     18  C   UNL     1      -1.706   9.970  17.350  0.00  0.00    +0.000 A 
ENDBRANCH  11  13
ENDBRANCH   6  11
BRANCH  10  19
ATOM     19  O   UNL     1       2.486   4.762  21.539  0.00  0.00    +0.000 OA
ATOM     20  H   UNL     1       2.839   5.224  22.323  0.00  0.00    +0.000 HD
ENDBRANCH  10  19
BRANCH   1  21
ATOM     21  C   UNL     1       4.456   4.487  19.415  0.00  0.00    +0.000 C 
BRANCH  21  23
ATOM     22  O   UNL     1       6.629   5.255  20.220  0.00  0.00    +0.000 OA
ATOM     23  C   UNL     1       5.918   4.842  19.310  0.00  0.00    +0.000 C 
BRANCH  23  24
ATOM     24  C   UNL     1       6.526   4.741  17.905  0.00  0.00    +0.000 C 
ATOM     25  O   UNL     1       7.671   4.335  17.763  0.00  0.00    +0.000 OA
ATOM     26  N   UNL     1       5.639   5.083  16.903  0.00  0.00    +0.000 N 
ATOM     27  C   UNL     1       5.960   4.827  15.597  0.00  0.00    +0.000 A 
ATOM     28  N   UNL     1       5.208   4.155  14.758  0.00  0.00    +0.000 NA
ATOM     29  C   UNL     1       5.960   4.062  13.610  0.00  0.00    +0.000 A 
ATOM     30  C   UNL     1       5.799   3.243  12.483  0.00  0.00    +0.000 A 
ATOM     31  C   UNL     1       6.708   3.378  11.426  0.00  0.00    +0.000 A 
ATOM     32  C   UNL     1       7.677   4.387  11.438  0.00  0.00    +0.000 A 
ATOM     33  C   UNL     1       7.867   5.195  12.565  0.00  0.00    +0.000 A 
ATOM     34  C   UNL     1       7.051   4.920  13.665  0.00  0.00    +0.000 A 
ATOM     35  N   UNL     1       7.116   5.258  14.994  0.00  0.00    +0.000 N 
ATOM     36  H   UNL     1       4.654   5.039  17.147  0.00  0.00    +0.000 HD
ATOM     37  H   UNL     1       7.898   5.690  15.462  0.00  0.00    +0.000 HD
ENDBRANCH  23  24
ENDBRANCH  21  23
ENDBRANCH   1  21
TORSDOF 6
ENDMDL
MODEL 3
REMARK VINA RESULT:      -9.1      4.858      8.012
REMARK  Name = 
REMARK  6 active torsions:
REMARK  status: ('A' for Active; 'I' for Inactive)
REMARK    1  A    between atoms: C_2  and  C_3
REMARK    2  A    between atoms: C_2  and  C_23
REMARK    3  A    between atoms: C_3  and  C_4
REMARK    4  A    between atoms: C_9  and  C_10
REMARK    5  A    between atoms: C_10  and  C_12
REMARK    6  A    between atoms: C_21  and  O_22
REMARK                            x       y       z     vdW  Elec       q    Type
REMARK                         _______ _______ _______ _____ _____    ______ ____
ROOT
ATOM      1  C   UNL     1       0.108  10.587  21.282  0.00  0.00    +0.000 A 
ATOM      2  N   UNL     1       0.366  10.499  19.953  0.00  0.00    +0.000 NA
ATOM      3  C   UNL     1       1.063   9.433  19.518  0.00  0.00    +0.000 A 
ATOM      4  C   UNL     1       1.369   9.315  18.165  0.00  0.00    +0.000 A 
ATOM      5  C   UNL     1       2.090   8.232  17.666  0.00  0.00    +0.000 A 
ATOM      6  C   UNL     1       2.496   7.216  18.529  0.00  0.00    +0.000 A 
ATOM      7  C   UNL     1       2.229   7.340  19.896  0.00  0.00    +0.000 A 
ATOM      8  C   UNL     1       1.522   8.431  20.411  0.00  0.00    +0.000 A 
ATOM      9  N   UNL     1       1.276   8.518  21.732  0.00  0.00    +0.000 NA
ATOM     10  C   UNL     1       0.584   9.598  22.136  0.00  0.00    +0.000 A 
ENDROOT
BRANCH   6  11
ATOM     11  C   UNL     1       3.249   6.023  18.033  0.00  0.00    +0.000 C 
ATOM     12  O   UNL     1       4.252   6.216  17.351  0.00  0.00    +0.000 OA
BRANCH  11  13
ATOM     13  C   UNL     1       2.818   4.626  18.354  0.00  0.00    +0.000 A 
ATOM     14  C   UNL     1       1.483   4.220  18.251  0.00  0.00    +0.000 A 
ATOM     15  C   UNL     1       1.116   2.908  18.570  0.00  0.00    +0.000 A 
ATOM     16  C   UNL     1       2.078   2.003  19.015  0.00  0.00    +0.000 A 
ATOM     17  C   UNL     1       3.408   2.410  19.147  0.00  0.00    +0.000 A 
ATOM     18  C   UNL     1       3.774   3.722  18.819  0.00  0.00    +0.000 A 
ENDBRANCH  11  13
ENDBRANCH   6  11
BRANCH  10  19
ATOM     19  O   UNL     1       0.433   9.682  23.481  0.00  0.00    +0.000 OA
ATOM     20  H   UNL     1      -0.166  10.451  23.542  0.00  0.00    +0.000 HD
ENDBRANCH  10  19
BRANCH   1  21
ATOM     21  C   UNL     1      -0.587  11.819  21.790  0.00  0.00    +0.000 C 
BRANCH  21  23
ATOM     22  O   UNL     1      -1.483  13.344  20.107  0.00  0.00    +0.000 OA
ATOM     23  C   UNL     1      -0.567  12.993  20.843  0.00  0.00    +0.000 C 
BRANCH  23  24
ATOM     24  C   UNL     1       0.763  13.753  20.757  0.00  0.00    +0.000 C 
ATOM     25  O   UNL     1       1.445  13.906  21.760  0.00  0.00    +0.000 OA
ATOM     26  N   UNL     1       1.079  14.149  19.472  0.00  0.00    +0.000 N 
ATOM     27  C   UNL     1       2.331  14.634  19.201  0.00  0.00    +0.000 A 
ATOM     28  N   UNL     1       3.125  14.177  18.263  0.00  0.00    +0.000 NA
ATOM     29  C   UNL     1       4.295  14.885  18.417  0.00  0.00    +0.000 A 
ATOM     30  C   UNL     1       5.573  14.653  17.890  0.00  0.00    +0.000 A 
ATOM     31  C   UNL     1       6.593  15.565  18.189  0.00  0.00    +0.000 A 
ATOM     32  C   UNL     1       6.319  16.741  18.893  0.00  0.00    +0.000 A 
ATOM     33  C   UNL     1       5.056  16.976  19.449  0.00  0.00    +0.000 A 
ATOM     34  C   UNL     1       4.108  15.964  19.271  0.00  0.00    +0.000 A 
ATOM     35  N   UNL     1       2.911  15.678  19.879  0.00  0.00    +0.000 N 
ATOM     36  H   UNL     1       0.616  13.643  18.723  0.00  0.00    +0.000 HD
ATOM     37  H   UNL     1       2.546  16.113  20.713  0.00  0.00    +0.000 HD
ENDBRANCH  23  24
ENDBRANCH  21  23
ENDBRANCH   1  21
TORSDOF 6
ENDMDL
MODEL 4
REMARK VINA RESULT:      -9.0      5.225      8.779
REMARK  Name = 
REMARK  6 active torsions:
REMARK  status: ('A' for Active; 'I' for Inactive)
REMARK    1  A    between atoms: C_2  and  C_3
REMARK    2  A    between atoms: C_2  and  C_23
REMARK    3  A    between atoms: C_3  and  C_4
REMARK    4  A    between atoms: C_9  and  C_10
REMARK    5  A    between atoms: C_10  and  C_12
REMARK    6  A    between atoms: C_21  and  O_22
REMARK                            x       y       z     vdW  Elec       q    Type
REMARK                         _______ _______ _______ _____ _____    ______ ____
ROOT
ATOM      1  C   UNL     1       0.169  11.645  20.494  0.00  0.00    +0.000 A 
ATOM      2  N   UNL     1       0.664  11.267  19.289  0.00  0.00    +0.000 NA
ATOM      3  C   UNL     1       1.192  10.033  19.186  0.00  0.00    +0.000 A 
ATOM      4  C   UNL     1       1.731   9.614  17.974  0.00  0.00    +0.000 A 
ATOM      5  C   UNL     1       2.293   8.348  17.818  0.00  0.00    +0.000 A 
ATOM      6  C   UNL     1       2.293   7.456  18.888  0.00  0.00    +0.000 A 
ATOM      7  C   UNL     1       1.789   7.877  20.123  0.00  0.00    +0.000 A 
ATOM      8  C   UNL     1       1.240   9.151  20.297  0.00  0.00    +0.000 A 
ATOM      9  N   UNL     1       0.758   9.525  21.497  0.00  0.00    +0.000 NA
ATOM     10  C   UNL     1       0.243  10.765  21.568  0.00  0.00    +0.000 A 
ENDROOT
BRANCH   6  11
ATOM     11  C   UNL     1       2.860   6.078  18.759  0.00  0.00    +0.000 C 
ATOM     12  O   UNL     1       3.841   5.923  18.036  0.00  0.00    +0.000 OA
BRANCH  11  13
ATOM     13  C   UNL     1       2.274   4.910  19.486  0.00  0.00    +0.000 A 
ATOM     14  C   UNL     1       2.588   4.633  20.821  0.00  0.00    +0.000 A 
ATOM     15  C   UNL     1       2.029   3.523  21.465  0.00  0.00    +0.000 A 
ATOM     16  C   UNL     1       1.171   2.673  20.770  0.00  0.00    +0.000 A 
ATOM     17  C   UNL     1       0.875   2.927  19.429  0.00  0.00    +0.000 A 
ATOM     18  C   UNL     1       1.430   4.044  18.789  0.00  0.00    +0.000 A 
ENDBRANCH  11  13
ENDBRANCH   6  11
BRANCH  10  19
ATOM     19  O   UNL     1      -0.154  11.124  22.814  0.00  0.00    +0.000 OA
ATOM     20  H   UNL     1      -0.092  10.264  23.272  0.00  0.00    +0.000 HD
ENDBRANCH  10  19
BRANCH   1  21
ATOM     21  C   UNL     1      -0.339  13.053  20.644  0.00  0.00    +0.000 C 
BRANCH  21  23
ATOM     22  O   UNL     1      -0.162  14.115  22.835  0.00  0.00    +0.000 OA
ATOM     23  C   UNL     1       0.324  13.849  21.740  0.00  0.00    +0.000 C 
BRANCH  23  24
ATOM     24  C   UNL     1       1.701  14.432  21.399  0.00  0.00    +0.000 C 
ATOM     25  O   UNL     1       2.542  14.566  22.276  0.00  0.00    +0.000 OA
ATOM     26  N   UNL     1       1.858  14.700  20.053  0.00  0.00    +0.000 N 
ATOM     27  C   UNL     1       3.099  15.008  19.563  0.00  0.00    +0.000 A 
ATOM     28  N   UNL     1       3.683  14.396  18.561  0.00  0.00    +0.000 NA
ATOM     29  C   UNL     1       4.934  14.962  18.484  0.00  0.00    +0.000 A 
ATOM     30  C   UNL     1       6.082  14.539  17.799  0.00  0.00    +0.000 A 
ATOM     31  C   UNL     1       7.232  15.336  17.869  0.00  0.00    +0.000 A 
ATOM     32  C   UNL     1       7.203  16.581  18.504  0.00  0.00    +0.000 A 
ATOM     33  C   UNL     1       6.074  17.007  19.215  0.00  0.00    +0.000 A 
ATOM     34  C   UNL     1       5.004  16.110  19.263  0.00  0.00    +0.000 A 
ATOM     35  N   UNL     1       3.890  16.015  20.060  0.00  0.00    +0.000 N 
ATOM     36  H   UNL     1       1.231  14.206  19.424  0.00  0.00    +0.000 HD
ATOM     37  H   UNL     1       3.709  16.546  20.898  0.00  0.00    +0.000 HD
ENDBRANCH  23  24
ENDBRANCH  21  23
ENDBRANCH   1  21
TORSDOF 6
ENDMDL
MODEL 5
REMARK VINA RESULT:      -9.0      5.192      8.617
REMARK  Name = 
REMARK  6 active torsions:
REMARK  status: ('A' for Active; 'I' for Inactive)
REMARK    1  A    between atoms: C_2  and  C_3
REMARK    2  A    between atoms: C_2  and  C_23
REMARK    3  A    between atoms: C_3  and  C_4
REMARK    4  A    between atoms: C_9  and  C_10
REMARK    5  A    between atoms: C_10  and  C_12
REMARK    6  A    between atoms: C_21  and  O_22
REMARK                            x       y       z     vdW  Elec       q    Type
REMARK                         _______ _______ _______ _____ _____    ______ ____
ROOT
ATOM      1  C   UNL     1      -0.868  10.951  21.558  0.00  0.00    +0.000 A 
ATOM      2  N   UNL     1      -0.531  10.970  20.245  0.00  0.00    +0.000 NA
ATOM      3  C   UNL     1       0.309  10.018  19.797  0.00  0.00    +0.000 A 
ATOM      4  C   UNL     1       0.698  10.015  18.462  0.00  0.00    +0.000 A 
ATOM      5  C   UNL     1       1.568   9.054  17.951  0.00  0.00    +0.000 A 
ATOM      6  C   UNL     1       2.045   8.043  18.783  0.00  0.00    +0.000 A 
ATOM      7  C   UNL     1       1.694   8.056  20.137  0.00  0.00    +0.000 A 
ATOM      8  C   UNL     1       0.836   9.026  20.664  0.00  0.00    +0.000 A 
ATOM      9  N   UNL     1       0.512   9.008  21.971  0.00  0.00    +0.000 NA
ATOM     10  C   UNL     1      -0.324   9.976  22.387  0.00  0.00    +0.000 A 
ENDROOT
BRANCH   6  11
ATOM     11  C   UNL     1       2.959   6.975  18.273  0.00  0.00    +0.000 C 
ATOM     12  O   UNL     1       3.898   7.313  17.556  0.00  0.00    +0.000 OA
BRANCH  11  13
ATOM     13  C   UNL     1       2.763   5.533  18.619  0.00  0.00    +0.000 A 
ATOM     14  C   UNL     1       3.487   4.911  19.643  0.00  0.00    +0.000 A 
ATOM     15  C   UNL     1       3.285   3.556  19.931  0.00  0.00    +0.000 A 
ATOM     16  C   UNL     1       2.374   2.813  19.182  0.00  0.00    +0.000 A 
ATOM     17  C   UNL     1       1.668   3.421  18.141  0.00  0.00    +0.000 A 
ATOM     18  C   UNL     1       1.867   4.779  17.861  0.00  0.00    +0.000 A 
ENDBRANCH  11  13
ENDBRANCH   6  11
BRANCH  10  19
ATOM     19  O   UNL     1      -0.555   9.964  23.723  0.00  0.00    +0.000 OA
ATOM     20  H   UNL     1      -1.094  10.773  23.815  0.00  0.00    +0.000 HD
ENDBRANCH  10  19
BRANCH   1  21
ATOM     21  C   UNL     1      -1.731  12.063  22.087  0.00  0.00    +0.000 C 
BRANCH  21  23
ATOM     22  O   UNL     1      -0.454  13.413  23.671  0.00  0.00    +0.000 OA
ATOM     23  C   UNL     1      -0.973  13.275  22.568  0.00  0.00    +0.000 C 
BRANCH  23  24
ATOM     24  C   UNL     1      -0.929  14.460  21.594  0.00  0.00    +0.000 C 
ATOM     25  O   UNL     1      -1.291  15.568  21.963  0.00  0.00    +0.000 OA
ATOM     26  N   UNL     1      -0.399  14.130  20.362  0.00  0.00    +0.000 N 
ATOM     27  C   UNL     1      -0.086  15.122  19.471  0.00  0.00    +0.000 A 
ATOM     28  N   UNL     1       1.083  15.272  18.897  0.00  0.00    +0.000 NA
ATOM     29  C   UNL     1       0.972  16.435  18.171  0.00  0.00    +0.000 A 
ATOM     30  C   UNL     1       1.959  17.234  17.578  0.00  0.00    +0.000 A 
ATOM     31  C   UNL     1       1.557  18.367  16.859  0.00  0.00    +0.000 A 
ATOM     32  C   UNL     1       0.202  18.629  16.634  0.00  0.00    +0.000 A 
ATOM     33  C   UNL     1      -0.797  17.858  17.240  0.00  0.00    +0.000 A 
ATOM     34  C   UNL     1      -0.356  16.837  18.086  0.00  0.00    +0.000 A 
ATOM     35  N   UNL     1      -0.972  16.085  19.055  0.00  0.00    +0.000 N 
ATOM     36  H   UNL     1       0.179  13.295  20.335  0.00  0.00    +0.000 HD
ATOM     37  H   UNL     1      -1.890  16.246  19.441  0.00  0.00    +0.000 HD
ENDBRANCH  23  24
ENDBRANCH  21  23
ENDBRANCH   1  21
TORSDOF 6
ENDMDL
MODEL 6
REMARK VINA RESULT:      -9.0      4.601      7.205
REMARK  Name = 
REMARK  6 active torsions:
REMARK  status: ('A' for Active; 'I' for Inactive)
REMARK    1  A    between atoms: C_2  and  C_3
REMARK    2  A    between atoms: C_2  and  C_23
REMARK    3  A    between atoms: C_3  and  C_4
REMARK    4  A    between atoms: C_9  and  C_10
REMARK    5  A    between atoms: C_10  and  C_12
REMARK    6  A    between atoms: C_21  and  O_22
REMARK                            x       y       z     vdW  Elec       q    Type
REMARK                         _______ _______ _______ _____ _____    ______ ____
ROOT
ATOM      1  C   UNL     1       0.963   9.547  19.473  0.00  0.00    +0.000 A 
ATOM      2  N   UNL     1       0.951   8.453  20.274  0.00  0.00    +0.000 NA
ATOM      3  C   UNL     1       1.754   7.425  19.945  0.00  0.00    +0.000 A 
ATOM      4  C   UNL     1       1.756   6.274  20.727  0.00  0.00    +0.000 A 
ATOM      5  C   UNL     1       2.566   5.181  20.426  0.00  0.00    +0.000 A 
ATOM      6  C   UNL     1       3.427   5.240  19.332  0.00  0.00    +0.000 A 
ATOM      7  C   UNL     1       3.408   6.375  18.514  0.00  0.00    +0.000 A 
ATOM      8  C   UNL     1       2.585   7.470  18.796  0.00  0.00    +0.000 A 
ATOM      9  N   UNL     1       2.594   8.551  17.992  0.00  0.00    +0.000 NA
ATOM     10  C   UNL     1       1.776   9.558  18.345  0.00  0.00    +0.000 A 
ENDROOT
BRANCH   6  11
ATOM     11  C   UNL     1       4.333   4.103  18.986  0.00  0.00    +0.000 C 
ATOM     12  O   UNL     1       4.263   3.082  19.665  0.00  0.00    +0.000 OA
BRANCH  11  13
ATOM     13  C   UNL     1       5.299   4.178  17.846  0.00  0.00    +0.000 A 
ATOM     14  C   UNL     1       6.615   4.623  18.017  0.00  0.00    +0.000 A 
ATOM     15  C   UNL     1       7.487   4.692  16.925  0.00  0.00    +0.000 A 
ATOM     16  C   UNL     1       7.041   4.337  15.653  0.00  0.00    +0.000 A 
ATOM     17  C   UNL     1       5.720   3.919  15.470  0.00  0.00    +0.000 A 
ATOM     18  C   UNL     1       4.852   3.844  16.568  0.00  0.00    +0.000 A 
ENDBRANCH  11  13
ENDBRANCH   6  11
BRANCH  10  19
ATOM     19  O   UNL     1       1.760  10.587  17.462  0.00  0.00    +0.000 OA
ATOM     20  H   UNL     1       2.718  10.725  17.337  0.00  0.00    +0.000 HD
ENDBRANCH  10  19
BRANCH   1  21
ATOM     21  C   UNL     1       0.002  10.663  19.779  0.00  0.00    +0.000 C 
BRANCH  21  23
ATOM     22  O   UNL     1       1.412  11.662  21.503  0.00  0.00    +0.000 OA
ATOM     23  C   UNL     1       0.299  11.422  21.048  0.00  0.00    +0.000 C 
BRANCH  23  24
ATOM     24  C   UNL     1      -0.925  11.854  21.866  0.00  0.00    +0.000 C 
ATOM     25  O   UNL     1      -0.840  11.966  23.080  0.00  0.00    +0.000 OA
ATOM     26  N   UNL     1      -2.028  12.137  21.083  0.00  0.00    +0.000 N 
ATOM     27  C   UNL     1      -3.118  12.749  21.643  0.00  0.00    +0.000 A 
ATOM     28  N   UNL     1      -3.674  13.848  21.195  0.00  0.00    +0.000 NA
ATOM     29  C   UNL     1      -4.657  14.144  22.110  0.00  0.00    +0.000 A 
ATOM     30  C   UNL     1      -5.391  15.321  22.306  0.00  0.00    +0.000 A 
ATOM     31  C   UNL     1      -6.370  15.338  23.308  0.00  0.00    +0.000 A 
ATOM     32  C   UNL     1      -6.693  14.175  24.014  0.00  0.00    +0.000 A 
ATOM     33  C   UNL     1      -5.953  12.998  23.849  0.00  0.00    +0.000 A 
ATOM     34  C   UNL     1      -4.877  13.068  22.961  0.00  0.00    +0.000 A 
ATOM     35  N   UNL     1      -3.777  12.274  22.751  0.00  0.00    +0.000 N 
ATOM     36  H   UNL     1      -1.839  12.349  20.108  0.00  0.00    +0.000 HD
ATOM     37  H   UNL     1      -3.469  11.513  23.338  0.00  0.00    +0.000 HD
ENDBRANCH  23  24
ENDBRANCH  21  23
ENDBRANCH   1  21
TORSDOF 6
ENDMDL
MODEL 7
REMARK VINA RESULT:      -9.0      5.140      8.398
REMARK  Name = 
REMARK  6 active torsions:
REMARK  status: ('A' for Active; 'I' for Inactive)
REMARK    1  A    between atoms: C_2  and  C_3
REMARK    2  A    between atoms: C_2  and  C_23
REMARK    3  A    between atoms: C_3  and  C_4
REMARK    4  A    between atoms: C_9  and  C_10
REMARK    5  A    between atoms: C_10  and  C_12
REMARK    6  A    between atoms: C_21  and  O_22
REMARK                            x       y       z     vdW  Elec       q    Type
REMARK                         _______ _______ _______ _____ _____    ______ ____
ROOT
ATOM      1  C   UNL     1      -0.018  10.648  21.650  0.00  0.00    +0.000 A 
ATOM      2  N   UNL     1       0.202  10.639  20.311  0.00  0.00    +0.000 NA
ATOM      3  C   UNL     1       0.894   9.605  19.795  0.00  0.00    +0.000 A 
ATOM      4  C   UNL     1       1.161   9.569  18.431  0.00  0.00    +0.000 A 
ATOM      5  C   UNL     1       1.875   8.523  17.849  0.00  0.00    +0.000 A 
ATOM      6  C   UNL     1       2.314   7.463  18.640  0.00  0.00    +0.000 A 
ATOM      7  C   UNL     1       2.086   7.505  20.019  0.00  0.00    +0.000 A 
ATOM      8  C   UNL     1       1.386   8.558  20.616  0.00  0.00    +0.000 A 
ATOM      9  N   UNL     1       1.178   8.567  21.947  0.00  0.00    +0.000 NA
ATOM     10  C   UNL     1       0.490   9.616  22.431  0.00  0.00    +0.000 A 
ENDROOT
BRANCH   6  11
ATOM     11  C   UNL     1       3.061   6.306  18.055  0.00  0.00    +0.000 C 
ATOM     12  O   UNL     1       3.951   6.546  17.243  0.00  0.00    +0.000 OA
BRANCH  11  13
ATOM     13  C   UNL     1       2.757   4.893  18.439  0.00  0.00    +0.000 A 
ATOM     14  C   UNL     1       1.664   4.198  17.908  0.00  0.00    +0.000 A 
ATOM     15  C   UNL     1       1.405   2.880  18.300  0.00  0.00    +0.000 A 
ATOM     16  C   UNL     1       2.224   2.258  19.240  0.00  0.00    +0.000 A 
ATOM     17  C   UNL     1       3.301   2.955  19.795  0.00  0.00    +0.000 A 
ATOM     18  C   UNL     1       3.562   4.272  19.394  0.00  0.00    +0.000 A 
ENDBRANCH  11  13
ENDBRANCH   6  11
BRANCH  10  19
ATOM     19  O   UNL     1       0.377   9.621  23.783  0.00  0.00    +0.000 OA
ATOM     20  H   UNL     1      -0.026  10.499  23.921  0.00  0.00    +0.000 HD
ENDBRANCH  10  19
BRANCH   1  21
ATOM     21  C   UNL     1      -0.707  11.842  22.249  0.00  0.00    +0.000 C 
BRANCH  21  23
ATOM     22  O   UNL     1       0.409  13.780  21.268  0.00  0.00    +0.000 OA
ATOM     23  C   UNL     1      -0.603  13.107  21.432  0.00  0.00    +0.000 C 
BRANCH  23  24
ATOM     24  C   UNL     1      -1.917  13.616  20.825  0.00  0.00    +0.000 C 
ATOM     25  O   UNL     1      -1.971  14.736  20.338  0.00  0.00    +0.000 OA
ATOM     26  N   UNL     1      -2.927  12.673  20.850  0.00  0.00    +0.000 N 
ATOM     27  C   UNL     1      -4.080  12.898  20.146  0.00  0.00    +0.000 A 
ATOM     28  N   UNL     1      -4.594  12.072  19.267  0.00  0.00    +0.000 NA
ATOM     29  C   UNL     1      -5.678  12.741  18.748  0.00  0.00    +0.000 A 
ATOM     30  C   UNL     1      -6.443  12.481  17.603  0.00  0.00    +0.000 A 
ATOM     31  C   UNL     1      -7.530  13.320  17.321  0.00  0.00    +0.000 A 
ATOM     32  C   UNL     1      -7.916  14.317  18.222  0.00  0.00    +0.000 A 
ATOM     33  C   UNL     1      -7.149  14.607  19.356  0.00  0.00    +0.000 A 
ATOM     34  C   UNL     1      -5.980  13.859  19.516  0.00  0.00    +0.000 A 
ATOM     35  N   UNL     1      -4.855  14.023  20.284  0.00  0.00    +0.000 N 
ATOM     36  H   UNL     1      -2.631  11.706  20.942  0.00  0.00    +0.000 HD
ATOM     37  H   UNL     1      -4.606  14.848  20.810  0.00  0.00    +0.000 HD
ENDBRANCH  23  24
ENDBRANCH  21  23
ENDBRANCH   1  21
TORSDOF 6
ENDMDL
MODEL 8
REMARK VINA RESULT:      -8.9      2.825      8.961
REMARK  Name = 
REMARK  6 active torsions:
REMARK  status: ('A' for Active; 'I' for Inactive)
REMARK    1  A    between atoms: C_2  and  C_3
REMARK    2  A    between atoms: C_2  and  C_23
REMARK    3  A    between atoms: C_3  and  C_4
REMARK    4  A    between atoms: C_9  and  C_10
REMARK    5  A    between atoms: C_10  and  C_12
REMARK    6  A    between atoms: C_21  and  O_22
REMARK                            x       y       z     vdW  Elec       q    Type
REMARK                         _______ _______ _______ _____ _____    ______ ____
ROOT
ATOM      1  C   UNL     1       3.489   6.316  19.333  0.00  0.00    +0.000 A 
ATOM      2  N   UNL     1       2.604   6.653  20.303  0.00  0.00    +0.000 NA
ATOM      3  C   UNL     1       1.789   7.700  20.074  0.00  0.00    +0.000 A 
ATOM      4  C   UNL     1       0.882   8.093  21.052  0.00  0.00    +0.000 A 
ATOM      5  C   UNL     1       0.020   9.172  20.865  0.00  0.00    +0.000 A 
ATOM      6  C   UNL     1       0.036   9.867  19.657  0.00  0.00    +0.000 A 
ATOM      7  C   UNL     1       0.970   9.507  18.679  0.00  0.00    +0.000 A 
ATOM      8  C   UNL     1       1.851   8.438  18.864  0.00  0.00    +0.000 A 
ATOM      9  N   UNL     1       2.735   8.113  17.901  0.00  0.00    +0.000 NA
ATOM     10  C   UNL     1       3.538   7.067  18.163  0.00  0.00    +0.000 A 
ENDROOT
BRANCH   6  11
ATOM     11  C   UNL     1      -0.888  11.014  19.401  0.00  0.00    +0.000 C 
ATOM     12  O   UNL     1      -0.740  12.034  20.070  0.00  0.00    +0.000 OA
BRANCH  11  13
ATOM     13  C   UNL     1      -1.963  10.949  18.363  0.00  0.00    +0.000 A 
ATOM     14  C   UNL     1      -3.146  11.688  18.472  0.00  0.00    +0.000 A 
ATOM     15  C   UNL     1      -4.135  11.592  17.486  0.00  0.00    +0.000 A 
ATOM     16  C   UNL     1      -3.954  10.741  16.398  0.00  0.00    +0.000 A 
ATOM     17  C   UNL     1      -2.787   9.979  16.297  0.00  0.00    +0.000 A 
ATOM     18  C   UNL     1      -1.796  10.083  17.282  0.00  0.00    +0.000 A 
ENDBRANCH  11  13
ENDBRANCH   6  11
BRANCH  10  19
ATOM     19  O   UNL     1       4.463   6.830  17.200  0.00  0.00    +0.000 OA
ATOM     20  H   UNL     1       5.285   6.977  17.707  0.00  0.00    +0.000 HD
ENDBRANCH  10  19
BRANCH   1  21
ATOM     21  C   UNL     1       4.466   5.208  19.615  0.00  0.00    +0.000 C 
BRANCH  21  23
ATOM     22  O   UNL     1       3.788   2.870  19.426  0.00  0.00    +0.000 OA
ATOM     23  C   UNL     1       4.172   3.911  18.903  0.00  0.00    +0.000 C 
BRANCH  23  24
ATOM     24  C   UNL     1       4.463   3.899  17.397  0.00  0.00    +0.000 C 
ATOM     25  O   UNL     1       3.548   4.036  16.597  0.00  0.00    +0.000 OA
ATOM     26  N   UNL     1       5.809   3.787  17.105  0.00  0.00    +0.000 N 
ATOM     27  C   UNL     1       6.243   3.989  15.822  0.00  0.00    +0.000 A 
ATOM     28  N   UNL     1       7.186   4.832  15.474  0.00  0.00    +0.000 NA
ATOM     29  C   UNL     1       7.219   4.774  14.100  0.00  0.00    +0.000 A 
ATOM     30  C   UNL     1       7.824   5.630  13.169  0.00  0.00    +0.000 A 
ATOM     31  C   UNL     1       7.725   5.313  11.808  0.00  0.00    +0.000 A 
ATOM     32  C   UNL     1       7.143   4.111  11.394  0.00  0.00    +0.000 A 
ATOM     33  C   UNL     1       6.512   3.258  12.307  0.00  0.00    +0.000 A 
ATOM     34  C   UNL     1       6.485   3.690  13.635  0.00  0.00    +0.000 A 
ATOM     35  N   UNL     1       5.746   3.320  14.731  0.00  0.00    +0.000 N 
ATOM     36  H   UNL     1       6.449   4.049  17.849  0.00  0.00    +0.000 HD
ATOM     37  H   UNL     1       4.941   2.711  14.730  0.00  0.00    +0.000 HD
ENDBRANCH  23  24
ENDBRANCH  21  23
ENDBRANCH   1  21
TORSDOF 6
ENDMDL
MODEL 9
REMARK VINA RESULT:      -8.9      4.912      7.531
REMARK  Name = 
REMARK  6 active torsions:
REMARK  status: ('A' for Active; 'I' for Inactive)
REMARK    1  A    between atoms: C_2  and  C_3
REMARK    2  A    between atoms: C_2  and  C_23
REMARK    3  A    between atoms: C_3  and  C_4
REMARK    4  A    between atoms: C_9  and  C_10
REMARK    5  A    between atoms: C_10  and  C_12
REMARK    6  A    between atoms: C_21  and  O_22
REMARK                            x       y       z     vdW  Elec       q    Type
REMARK                         _______ _______ _______ _____ _____    ______ ____
ROOT
ATOM      1  C   UNL     1       1.188  10.428  19.277  0.00  0.00    +0.000 A 
ATOM      2  N   UNL     1       0.986   9.344  20.067  0.00  0.00    +0.000 NA
ATOM      3  C   UNL     1       1.602   8.196  19.729  0.00  0.00    +0.000 A 
ATOM      4  C   UNL     1       1.404   7.055  20.499  0.00  0.00    +0.000 A 
ATOM      5  C   UNL     1       2.016   5.842  20.188  0.00  0.00    +0.000 A 
ATOM      6  C   UNL     1       2.877   5.763  19.096  0.00  0.00    +0.000 A 
ATOM      7  C   UNL     1       3.055   6.893  18.289  0.00  0.00    +0.000 A 
ATOM      8  C   UNL     1       2.432   8.110  18.581  0.00  0.00    +0.000 A 
ATOM      9  N   UNL     1       2.628   9.180  17.788  0.00  0.00    +0.000 NA
ATOM     10  C   UNL     1       1.994  10.309  18.150  0.00  0.00    +0.000 A 
ENDROOT
BRANCH   6  11
ATOM     11  C   UNL     1       3.576   4.490  18.739  0.00  0.00    +0.000 C 
ATOM     12  O   UNL     1       3.087   3.434  19.131  0.00  0.00    +0.000 OA
BRANCH  11  13
ATOM     13  C   UNL     1       4.830   4.478  17.924  0.00  0.00    +0.000 A 
ATOM     14  C   UNL     1       6.077   4.797  18.475  0.00  0.00    +0.000 A 
ATOM     15  C   UNL     1       7.227   4.786  17.678  0.00  0.00    +0.000 A 
ATOM     16  C   UNL     1       7.133   4.477  16.322  0.00  0.00    +0.000 A 
ATOM     17  C   UNL     1       5.888   4.185  15.759  0.00  0.00    +0.000 A 
ATOM     18  C   UNL     1       4.739   4.189  16.562  0.00  0.00    +0.000 A 
ENDBRANCH  11  13
ENDBRANCH   6  11
BRANCH  10  19
ATOM     19  O   UNL     1       2.157  11.334  17.278  0.00  0.00    +0.000 OA
ATOM     20  H   UNL     1       1.249  11.692  17.257  0.00  0.00    +0.000 HD
ENDBRANCH  10  19
BRANCH   1  21
ATOM     21  C   UNL     1       0.431  11.688  19.593  0.00  0.00    +0.000 C 
BRANCH  21  23
ATOM     22  O   UNL     1       0.317  12.374  21.934  0.00  0.00    +0.000 OA
ATOM     23  C   UNL     1       0.883  12.398  20.845  0.00  0.00    +0.000 C 
BRANCH  23  24
ATOM     24  C   UNL     1       2.124  13.287  20.695  0.00  0.00    +0.000 C 
ATOM     25  O   UNL     1       2.836  13.510  21.663  0.00  0.00    +0.000 OA
ATOM     26  N   UNL     1       2.336  13.707  19.396  0.00  0.00    +0.000 N 
ATOM     27  C   UNL     1       3.519  14.313  19.064  0.00  0.00    +0.000 A 
ATOM     28  N   UNL     1       4.307  13.933  18.087  0.00  0.00    +0.000 NA
ATOM     29  C   UNL     1       5.407  14.753  18.184  0.00  0.00    +0.000 A 
ATOM     30  C   UNL     1       6.674  14.647  17.595  0.00  0.00    +0.000 A 
ATOM     31  C   UNL     1       7.612  15.657  17.844  0.00  0.00    +0.000 A 
ATOM     32  C   UNL     1       7.258  16.803  18.562  0.00  0.00    +0.000 A 
ATOM     33  C   UNL     1       6.006  16.914  19.180  0.00  0.00    +0.000 A 
ATOM     34  C   UNL     1       5.156  15.812  19.048  0.00  0.00    +0.000 A 
ATOM     35  N   UNL     1       4.025  15.412  19.714  0.00  0.00    +0.000 N 
ATOM     36  H   UNL     1       1.889  13.154  18.670  0.00  0.00    +0.000 HD
ATOM     37  H   UNL     1       3.660  15.812  20.565  0.00  0.00    +0.000 HD
ENDBRANCH  23  24
ENDBRANCH  21  23
ENDBRANCH   1  21
TORSDOF 6
ENDMDL
