MODEL 1
REMARK VINA RESULT:      -7.1      0.000      0.000
REMARK  Name = 
REMARK  11 active torsions:
REMARK  status: ('A' for Active; 'I' for Inactive)
REMARK    1  A    between atoms: C_1  and  C_2
REMARK    2  A    between atoms: C_2  and  O_3
REMARK    3  A    between atoms: O_3  and  C_4
REMARK    4  A    between atoms: C_4  and  C_6
REMARK    5  A    between atoms: C_6  and  O_7
REMARK    6  A    between atoms: O_7  and  C_8
REMARK    7  A    between atoms: C_11  and  C_12
REMARK    8  A    between atoms: C_12  and  C_13
REMARK    9  A    between atoms: C_16  and  O_17
REMARK   10  A    between atoms: C_18  and  C_19
REMARK   11  A    between atoms: C_19  and  N_20
REMARK                            x       y       z     vdW  Elec       q    Type
REMARK                         _______ _______ _______ _____ _____    ______ ____
ROOT
ATOM      1  C   UNL     1       6.653   5.232  15.485  0.00  0.00    +0.000 A 
ATOM      2  C   UNL     1       5.533   5.866  14.935  0.00  0.00    +0.000 A 
ATOM      3  C   UNL     1       4.558   6.441  15.750  0.00  0.00    +0.000 A 
ATOM      4  C   UNL     1       4.670   6.391  17.149  0.00  0.00    +0.000 A 
ATOM      5  C   UNL     1       5.766   5.702  17.708  0.00  0.00    +0.000 A 
ATOM      6 CL   UNL     1       5.901   5.569  19.440  0.00  0.00    +0.000 Cl
ATOM      7  C   UNL     1       6.759   5.122  16.881  0.00  0.00    +0.000 A 
ATOM      8 CL   UNL     1       8.053   4.238  17.643  0.00  0.00    +0.000 Cl
ENDROOT
BRANCH   1   9
ATOM      9  O   UNL     1       7.495   4.748  14.516  0.00  0.00    +0.000 OA
BRANCH   9  10
ATOM     10  C   UNL     1       7.147   4.993  13.162  0.00  0.00    +0.000 C 
BRANCH  10  11
ATOM     11  C   UNL     1       6.768   3.721  12.430  0.00  0.00    +0.000 C 
ATOM     12  O   UNL     1       7.517   3.017  11.765  0.00  0.00    +0.000 OA
BRANCH  11  13
ATOM     13  O   UNL     1       5.417   3.548  12.543  0.00  0.00    +0.000 OA
BRANCH  13  15
ATOM     14  C   UNL     1       3.693   3.505  10.895  0.00  0.00    +0.000 C 
ATOM     15  C   UNL     1       4.819   2.718  11.540  0.00  0.00    +0.000 C 
ENDBRANCH  13  15
ENDBRANCH  11  13
ENDBRANCH  10  11
ENDBRANCH   9  10
ENDBRANCH   1   9
BRANCH   4  16
ATOM     16  C   UNL     1       3.590   7.056  17.985  0.00  0.00    +0.000 C 
BRANCH  16  17
ATOM     17  C   UNL     1       2.720   6.072  18.732  0.00  0.00    +0.000 A 
ATOM     18  C   UNL     1       2.282   6.345  20.033  0.00  0.00    +0.000 A 
ATOM     19  C   UNL     1       1.586   5.385  20.765  0.00  0.00    +0.000 A 
ATOM     20  C   UNL     1       1.302   4.148  20.190  0.00  0.00    +0.000 A 
ATOM     21  C   UNL     1       1.669   3.865  18.870  0.00  0.00    +0.000 A 
ATOM     22  C   UNL     1       2.384   4.840  18.153  0.00  0.00    +0.000 A 
BRANCH  20  23
ATOM     23  O   UNL     1       0.670   3.191  20.929  0.00  0.00    +0.000 OA
ATOM     24  H   UNL     1       0.025   2.740  20.360  0.00  0.00    +0.000 HD
ENDBRANCH  20  23
BRANCH  21  25
ATOM     25  C   UNL     1       1.354   2.544  18.214  0.00  0.00    +0.000 C 
BRANCH  25  26
ATOM     26  N   UNL     1       2.244   1.483  18.683  0.00  0.00    +0.000 NA
ATOM     27  H   UNL     1       3.164   1.646  18.274  0.00  0.00    +0.000 HD
ATOM     28  H   UNL     1       1.922   0.600  18.294  0.00  0.00    +0.000 HD
ENDBRANCH  25  26
ENDBRANCH  21  25
ENDBRANCH  16  17
ENDBRANCH   4  16
TORSDOF 10
ENDMDL
MODEL 2
REMARK VINA RESULT:      -7.0      4.804      7.927
REMARK  Name = 
REMARK  11 active torsions:
REMARK  status: ('A' for Active; 'I' for Inactive)
REMARK    1  A    between atoms: C_1  and  C_2
REMARK    2  A    between atoms: C_2  and  O_3
REMARK    3  A    between atoms: O_3  and  C_4
REMARK    4  A    between atoms: C_4  and  C_6
REMARK    5  A    between atoms: C_6  and  O_7
REMARK    6  A    between atoms: O_7  and  C_8
REMARK    7  A    between atoms: C_11  and  C_12
REMARK    8  A    between atoms: C_12  and  C_13
REMARK    9  A    between atoms: C_16  and  O_17
REMARK   10  A    between atoms: C_18  and  C_19
REMARK   11  A    between atoms: C_19  and  N_20
REMARK                            x       y       z     vdW  Elec       q    Type
REMARK                         _______ _______ _______ _____ _____    ______ ____
ROOT
ATOM      1  C   UNL     1       1.524   9.449  19.340  0.00  0.00    +0.000 A 
ATOM      2  C   UNL     1       1.919   9.194  18.022  0.00  0.00    +0.000 A 
ATOM      3  C   UNL     1       2.218   7.899  17.598  0.00  0.00    +0.000 A 
ATOM      4  C   UNL     1       2.141   6.815  18.487  0.00  0.00    +0.000 A 
ATOM      5  C   UNL     1       1.802   7.077  19.831  0.00  0.00    +0.000 A 
ATOM      6 CL   UNL     1       1.758   5.762  20.974  0.00  0.00    +0.000 Cl
ATOM      7  C   UNL     1       1.492   8.390  20.262  0.00  0.00    +0.000 A 
ATOM      8 CL   UNL     1       1.138   8.643  21.948  0.00  0.00    +0.000 Cl
ENDROOT
BRANCH   1   9
ATOM      9  O   UNL     1       1.262  10.780  19.548  0.00  0.00    +0.000 OA
BRANCH   9  10
ATOM     10  C   UNL     1      -0.098  11.175  19.634  0.00  0.00    +0.000 C 
BRANCH  10  11
ATOM     11  C   UNL     1      -0.477  12.165  18.550  0.00  0.00    +0.000 C 
ATOM     12  O   UNL     1      -0.037  13.300  18.420  0.00  0.00    +0.000 OA
BRANCH  11  13
ATOM     13  O   UNL     1      -1.481  11.617  17.802  0.00  0.00    +0.000 OA
BRANCH  13  15
ATOM     14  C   UNL     1      -2.944   9.824  17.221  0.00  0.00    +0.000 C 
ATOM     15  C   UNL     1      -1.932  10.328  18.234  0.00  0.00    +0.000 C 
ENDBRANCH  13  15
ENDBRANCH  11  13
ENDBRANCH  10  11
ENDBRANCH   9  10
ENDBRANCH   1   9
BRANCH   4  16
ATOM     16  C   UNL     1       2.456   5.425  17.962  0.00  0.00    +0.000 C 
BRANCH  16  17
ATOM     17  C   UNL     1       3.936   5.124  17.917  0.00  0.00    +0.000 A 
ATOM     18  C   UNL     1       4.728   5.242  19.064  0.00  0.00    +0.000 A 
ATOM     19  C   UNL     1       6.111   5.085  18.993  0.00  0.00    +0.000 A 
ATOM     20  C   UNL     1       6.711   4.783  17.772  0.00  0.00    +0.000 A 
ATOM     21  C   UNL     1       5.943   4.594  16.619  0.00  0.00    +0.000 A 
ATOM     22  C   UNL     1       4.551   4.772  16.707  0.00  0.00    +0.000 A 
BRANCH  20  23
ATOM     23  O   UNL     1       8.070   4.685  17.696  0.00  0.00    +0.000 OA
ATOM     24  H   UNL     1       8.437   4.821  18.586  0.00  0.00    +0.000 HD
ENDBRANCH  20  23
BRANCH  21  25
ATOM     25  C   UNL     1       6.563   4.243  15.290  0.00  0.00    +0.000 C 
BRANCH  25  26
ATOM     26  N   UNL     1       7.495   5.277  14.840  0.00  0.00    +0.000 NA
ATOM     27  H   UNL     1       8.434   4.989  15.116  0.00  0.00    +0.000 HD
ATOM     28  H   UNL     1       7.303   6.129  15.363  0.00  0.00    +0.000 HD
ENDBRANCH  25  26
ENDBRANCH  21  25
ENDBRANCH  16  17
ENDBRANCH   4  16
TORSDOF 10
ENDMDL
MODEL 3
REMARK VINA RESULT:      -7.0      4.504      8.531
REMARK  Name = 
REMARK  11 active torsions:
REMARK  status: ('A' for Active; 'I' for Inactive)
REMARK    1  A    between atoms: C_1  and  C_2
REMARK    2  A    between atoms: C_2  and  O_3
REMARK    3  A    between atoms: O_3  and  C_4
REMARK    4  A    between atoms: C_4  and  C_6
REMARK    5  A    between atoms: C_6  and  O_7
REMARK    6  A    between atoms: O_7  and  C_8
REMARK    7  A    between atoms: C_11  and  C_12
REMARK    8  A    between atoms: C_12  and  C_13
REMARK    9  A    between atoms: C_16  and  O_17
REMARK   10  A    between atoms: C_18  and  C_19
REMARK   11  A    between atoms: C_19  and  N_20
REMARK                            x       y       z     vdW  Elec       q    Type
REMARK                         _______ _______ _______ _____ _____    ______ ____
ROOT
ATOM      1  C   UNL     1       1.544   9.130  19.249  0.00  0.00    +0.000 A 
ATOM      2  C   UNL     1       1.939   8.791  17.950  0.00  0.00    +0.000 A 
ATOM      3  C   UNL     1       2.311   7.485  17.629  0.00  0.00    +0.000 A 
ATOM      4  C   UNL     1       2.310   6.476  18.606  0.00  0.00    +0.000 A 
ATOM      5  C   UNL     1       1.971   6.828  19.929  0.00  0.00    +0.000 A 
ATOM      6 CL   UNL     1       2.020   5.612  21.177  0.00  0.00    +0.000 Cl
ATOM      7  C   UNL     1       1.586   8.151  20.255  0.00  0.00    +0.000 A 
ATOM      8 CL   UNL     1       1.236   8.521  21.921  0.00  0.00    +0.000 Cl
ENDROOT
BRANCH   1   9
ATOM      9  O   UNL     1       1.204  10.456  19.351  0.00  0.00    +0.000 OA
BRANCH   9  10
ATOM     10  C   UNL     1       0.079  10.903  18.609  0.00  0.00    +0.000 C 
BRANCH  10  11
ATOM     11  C   UNL     1      -1.055  11.356  19.508  0.00  0.00    +0.000 C 
ATOM     12  O   UNL     1      -2.009  12.048  19.178  0.00  0.00    +0.000 OA
BRANCH  11  13
ATOM     13  O   UNL     1      -0.776  10.953  20.784  0.00  0.00    +0.000 OA
BRANCH  13  15
ATOM     14  C   UNL     1      -1.395  11.221  23.073  0.00  0.00    +0.000 C 
ATOM     15  C   UNL     1      -0.992  11.941  21.799  0.00  0.00    +0.000 C 
ENDBRANCH  13  15
ENDBRANCH  11  13
ENDBRANCH  10  11
ENDBRANCH   9  10
ENDBRANCH   1   9
BRANCH   4  16
ATOM     16  C   UNL     1       2.703   5.069  18.192  0.00  0.00    +0.000 C 
BRANCH  16  17
ATOM     17  C   UNL     1       4.126   4.967  17.693  0.00  0.00    +0.000 A 
ATOM     18  C   UNL     1       4.429   4.246  16.532  0.00  0.00    +0.000 A 
ATOM     19  C   UNL     1       5.753   4.049  16.143  0.00  0.00    +0.000 A 
ATOM     20  C   UNL     1       6.786   4.595  16.903  0.00  0.00    +0.000 A 
ATOM     21  C   UNL     1       6.516   5.375  18.031  0.00  0.00    +0.000 A 
ATOM     22  C   UNL     1       5.175   5.550  18.417  0.00  0.00    +0.000 A 
BRANCH  20  23
ATOM     23  O   UNL     1       8.081   4.354  16.549  0.00  0.00    +0.000 OA
ATOM     24  H   UNL     1       8.470   3.746  17.201  0.00  0.00    +0.000 HD
ENDBRANCH  20  23
BRANCH  21  25
ATOM     25  C   UNL     1       7.613   5.999  18.858  0.00  0.00    +0.000 C 
BRANCH  25  26
ATOM     26  N   UNL     1       7.662   5.429  20.205  0.00  0.00    +0.000 NA
ATOM     27  H   UNL     1       7.780   4.421  20.111  0.00  0.00    +0.000 HD
ATOM     28  H   UNL     1       6.751   5.560  20.640  0.00  0.00    +0.000 HD
ENDBRANCH  25  26
ENDBRANCH  21  25
ENDBRANCH  16  17
ENDBRANCH   4  16
TORSDOF 10
ENDMDL
MODEL 4
REMARK VINA RESULT:      -6.8      5.363      6.940
REMARK  Name = 
REMARK  11 active torsions:
REMARK  status: ('A' for Active; 'I' for Inactive)
REMARK    1  A    between atoms: C_1  and  C_2
REMARK    2  A    between atoms: C_2  and  O_3
REMARK    3  A    between atoms: O_3  and  C_4
REMARK    4  A    between atoms: C_4  and  C_6
REMARK    5  A    between atoms: C_6  and  O_7
REMARK    6  A    between atoms: O_7  and  C_8
REMARK    7  A    between atoms: C_11  and  C_12
REMARK    8  A    between atoms: C_12  and  C_13
REMARK    9  A    between atoms: C_16  and  O_17
REMARK   10  A    between atoms: C_18  and  C_19
REMARK   11  A    between atoms: C_19  and  N_20
REMARK                            x       y       z     vdW  Elec       q    Type
REMARK                         _______ _______ _______ _____ _____    ______ ____
ROOT
ATOM      1  C   UNL     1       2.655   6.955  18.448  0.00  0.00    +0.000 A 
ATOM      2  C   UNL     1       2.707   8.059  17.589  0.00  0.00    +0.000 A 
ATOM      3  C   UNL     1       2.143   9.282  17.953  0.00  0.00    +0.000 A 
ATOM      4  C   UNL     1       1.497   9.435  19.191  0.00  0.00    +0.000 A 
ATOM      5  C   UNL     1       1.390   8.309  20.033  0.00  0.00    +0.000 A 
ATOM      6 CL   UNL     1       0.540   8.452  21.548  0.00  0.00    +0.000 Cl
ATOM      7  C   UNL     1       1.967   7.069  19.667  0.00  0.00    +0.000 A 
ATOM      8 CL   UNL     1       1.745   5.710  20.733  0.00  0.00    +0.000 Cl
ENDROOT
BRANCH   1   9
ATOM      9  O   UNL     1       3.279   5.858  17.910  0.00  0.00    +0.000 OA
BRANCH   9  10
ATOM     10  C   UNL     1       4.450   5.386  18.559  0.00  0.00    +0.000 C 
BRANCH  10  11
ATOM     11  C   UNL     1       4.442   3.879  18.727  0.00  0.00    +0.000 C 
ATOM     12  O   UNL     1       5.091   3.237  19.543  0.00  0.00    +0.000 OA
BRANCH  11  13
ATOM     13  O   UNL     1       3.670   3.342  17.734  0.00  0.00    +0.000 OA
BRANCH  13  15
ATOM     14  C   UNL     1       1.597   2.439  18.494  0.00  0.00    +0.000 C 
ATOM     15  C   UNL     1       3.016   2.112  18.066  0.00  0.00    +0.000 C 
ENDBRANCH  13  15
ENDBRANCH  11  13
ENDBRANCH  10  11
ENDBRANCH   9  10
ENDBRANCH   1   9
BRANCH   4  16
ATOM     16  C   UNL     1       0.922  10.797  19.542  0.00  0.00    +0.000 C 
BRANCH  16  17
ATOM     17  C   UNL     1      -0.475  11.013  19.009  0.00  0.00    +0.000 A 
ATOM     18  C   UNL     1      -1.381  11.840  19.682  0.00  0.00    +0.000 A 
ATOM     19  C   UNL     1      -2.705  11.939  19.259  0.00  0.00    +0.000 A 
ATOM     20  C   UNL     1      -3.128  11.226  18.139  0.00  0.00    +0.000 A 
ATOM     21  C   UNL     1      -2.234  10.440  17.405  0.00  0.00    +0.000 A 
ATOM     22  C   UNL     1      -0.907  10.340  17.856  0.00  0.00    +0.000 A 
BRANCH  20  23
ATOM     23  O   UNL     1      -4.438  11.282  17.761  0.00  0.00    +0.000 OA
ATOM     24  H   UNL     1      -4.480  11.238  16.791  0.00  0.00    +0.000 HD
ENDBRANCH  20  23
BRANCH  21  25
ATOM     25  C   UNL     1      -2.658   9.677  16.175  0.00  0.00    +0.000 C 
BRANCH  25  26
ATOM     26  N   UNL     1      -2.995  10.577  15.072  0.00  0.00    +0.000 NA
ATOM     27  H   UNL     1      -3.964  10.398  14.811  0.00  0.00    +0.000 HD
ATOM     28  H   UNL     1      -2.438  10.312  14.262  0.00  0.00    +0.000 HD
ENDBRANCH  25  26
ENDBRANCH  21  25
ENDBRANCH  16  17
ENDBRANCH   4  16
TORSDOF 10
ENDMDL
MODEL 5
REMARK VINA RESULT:      -6.8      4.900      8.287
REMARK  Name = 
REMARK  11 active torsions:
REMARK  status: ('A' for Active; 'I' for Inactive)
REMARK    1  A    between atoms: C_1  and  C_2
REMARK    2  A    between atoms: C_2  and  O_3
REMARK    3  A    between atoms: O_3  and  C_4
REMARK    4  A    between atoms: C_4  and  C_6
REMARK    5  A    between atoms: C_6  and  O_7
REMARK    6  A    between atoms: O_7  and  C_8
REMARK    7  A    between atoms: C_11  and  C_12
REMARK    8  A    between atoms: C_12  and  C_13
REMARK    9  A    between atoms: C_16  and  O_17
REMARK   10  A    between atoms: C_18  and  C_19
REMARK   11  A    between atoms: C_19  and  N_20
REMARK                            x       y       z     vdW  Elec       q    Type
REMARK                         _______ _______ _______ _____ _____    ______ ____
ROOT
ATOM      1  C   UNL     1       1.586   9.246  19.223  0.00  0.00    +0.000 A 
ATOM      2  C   UNL     1       1.978   8.971  17.908  0.00  0.00    +0.000 A 
ATOM      3  C   UNL     1       2.317   7.676  17.513  0.00  0.00    +0.000 A 
ATOM      4  C   UNL     1       2.283   6.613  18.430  0.00  0.00    +0.000 A 
ATOM      5  C   UNL     1       1.947   6.897  19.770  0.00  0.00    +0.000 A 
ATOM      6 CL   UNL     1       1.957   5.610  20.946  0.00  0.00    +0.000 Cl
ATOM      7  C   UNL     1       1.597   8.209  20.171  0.00  0.00    +0.000 A 
ATOM      8 CL   UNL     1       1.249   8.492  21.854  0.00  0.00    +0.000 Cl
ENDROOT
BRANCH   1   9
ATOM      9  O   UNL     1       1.282  10.572  19.400  0.00  0.00    +0.000 OA
BRANCH   9  10
ATOM     10  C   UNL     1      -0.089  10.921  19.509  0.00  0.00    +0.000 C 
BRANCH  10  11
ATOM     11  C   UNL     1      -0.378  12.292  18.929  0.00  0.00    +0.000 C 
ATOM     12  O   UNL     1      -1.093  12.535  17.965  0.00  0.00    +0.000 OA
BRANCH  11  13
ATOM     13  O   UNL     1       0.387  13.208  19.595  0.00  0.00    +0.000 OA
BRANCH  13  15
ATOM     14  C   UNL     1       2.280  13.666  18.218  0.00  0.00    +0.000 C 
ATOM     15  C   UNL     1       0.982  14.221  18.775  0.00  0.00    +0.000 C 
ENDBRANCH  13  15
ENDBRANCH  11  13
ENDBRANCH  10  11
ENDBRANCH   9  10
ENDBRANCH   1   9
BRANCH   4  16
ATOM     16  C   UNL     1       2.640   5.221  17.937  0.00  0.00    +0.000 C 
BRANCH  16  17
ATOM     17  C   UNL     1       4.117   5.039  17.675  0.00  0.00    +0.000 A 
ATOM     18  C   UNL     1       4.567   4.389  16.520  0.00  0.00    +0.000 A 
ATOM     19  C   UNL     1       5.921   4.112  16.341  0.00  0.00    +0.000 A 
ATOM     20  C   UNL     1       6.842   4.507  17.310  0.00  0.00    +0.000 A 
ATOM     21  C   UNL     1       6.435   5.215  18.445  0.00  0.00    +0.000 A 
ATOM     22  C   UNL     1       5.063   5.472  18.616  0.00  0.00    +0.000 A 
BRANCH  20  23
ATOM     23  O   UNL     1       8.158   4.185  17.158  0.00  0.00    +0.000 OA
ATOM     24  H   UNL     1       8.675   4.686  17.812  0.00  0.00    +0.000 HD
ENDBRANCH  20  23
BRANCH  21  25
ATOM     25  C   UNL     1       7.411   5.677  19.498  0.00  0.00    +0.000 C 
BRANCH  25  26
ATOM     26  N   UNL     1       8.281   6.740  18.996  0.00  0.00    +0.000 NA
ATOM     27  H   UNL     1       9.027   6.879  19.678  0.00  0.00    +0.000 HD
ATOM     28  H   UNL     1       7.751   7.609  18.986  0.00  0.00    +0.000 HD
ENDBRANCH  25  26
ENDBRANCH  21  25
ENDBRANCH  16  17
ENDBRANCH   4  16
TORSDOF 10
ENDMDL
MODEL 6
REMARK VINA RESULT:      -6.8      4.731      6.322
REMARK  Name = 
REMARK  11 active torsions:
REMARK  status: ('A' for Active; 'I' for Inactive)
REMARK    1  A    between atoms: C_1  and  C_2
REMARK    2  A    between atoms: C_2  and  O_3
REMARK    3  A    between atoms: O_3  and  C_4
REMARK    4  A    between atoms: C_4  and  C_6
REMARK    5  A    between atoms: C_6  and  O_7
REMARK    6  A    between atoms: O_7  and  C_8
REMARK    7  A    between atoms: C_11  and  C_12
REMARK    8  A    between atoms: C_12  and  C_13
REMARK    9  A    between atoms: C_16  and  O_17
REMARK   10  A    between atoms: C_18  and  C_19
REMARK   11  A    between atoms: C_19  and  N_20
REMARK                            x       y       z     vdW  Elec       q    Type
REMARK                         _______ _______ _______ _____ _____    ______ ____
ROOT
ATOM      1  C   UNL     1       3.557   6.216  17.668  0.00  0.00    +0.000 A 
ATOM      2  C   UNL     1       3.335   7.564  17.366  0.00  0.00    +0.000 A 
ATOM      3  C   UNL     1       2.582   8.377  18.214  0.00  0.00    +0.000 A 
ATOM      4  C   UNL     1       2.016   7.860  19.390  0.00  0.00    +0.000 A 
ATOM      5  C   UNL     1       2.187   6.487  19.667  0.00  0.00    +0.000 A 
ATOM      6 CL   UNL     1       1.445   5.802  21.087  0.00  0.00    +0.000 Cl
ATOM      7  C   UNL     1       2.957   5.663  18.811  0.00  0.00    +0.000 A 
ATOM      8 CL   UNL     1       3.076   3.967  19.188  0.00  0.00    +0.000 Cl
ENDROOT
BRANCH   1   9
ATOM      9  O   UNL     1       4.333   5.599  16.718  0.00  0.00    +0.000 OA
BRANCH   9  10
ATOM     10  C   UNL     1       5.368   6.364  16.120  0.00  0.00    +0.000 C 
BRANCH  10  11
ATOM     11  C   UNL     1       6.693   5.626  16.113  0.00  0.00    +0.000 C 
ATOM     12  O   UNL     1       6.852   4.424  15.945  0.00  0.00    +0.000 OA
BRANCH  11  13
ATOM     13  O   UNL     1       7.678   6.516  16.439  0.00  0.00    +0.000 OA
BRANCH  13  15
ATOM     14  C   UNL     1       7.863   6.271  18.805  0.00  0.00    +0.000 C 
ATOM     15  C   UNL     1       7.488   7.213  17.676  0.00  0.00    +0.000 C 
ENDBRANCH  13  15
ENDBRANCH  11  13
ENDBRANCH  10  11
ENDBRANCH   9  10
ENDBRANCH   1   9
BRANCH   4  16
ATOM     16  C   UNL     1       1.225   8.799  20.285  0.00  0.00    +0.000 C 
BRANCH  16  17
ATOM     17  C   UNL     1       0.690  10.010  19.558  0.00  0.00    +0.000 A 
ATOM     18  C   UNL     1       1.371  11.231  19.599  0.00  0.00    +0.000 A 
ATOM     19  C   UNL     1       0.814  12.377  19.033  0.00  0.00    +0.000 A 
ATOM     20  C   UNL     1      -0.424  12.302  18.397  0.00  0.00    +0.000 A 
ATOM     21  C   UNL     1      -1.102  11.084  18.281  0.00  0.00    +0.000 A 
ATOM     22  C   UNL     1      -0.531   9.943  18.872  0.00  0.00    +0.000 A 
BRANCH  20  23
ATOM     23  O   UNL     1      -0.991  13.435  17.893  0.00  0.00    +0.000 OA
ATOM     24  H   UNL     1      -0.411  14.187  18.099  0.00  0.00    +0.000 HD
ENDBRANCH  20  23
BRANCH  21  25
ATOM     25  C   UNL     1      -2.431  10.968  17.577  0.00  0.00    +0.000 C 
BRANCH  25  26
ATOM     26  N   UNL     1      -2.349  11.434  16.193  0.00  0.00    +0.000 NA
ATOM     27  H   UNL     1      -3.042  10.919  15.651  0.00  0.00    +0.000 HD
ATOM     28  H   UNL     1      -1.444  11.159  15.816  0.00  0.00    +0.000 HD
ENDBRANCH  25  26
ENDBRANCH  21  25
ENDBRANCH  16  17
ENDBRANCH   4  16
TORSDOF 10
ENDMDL
MODEL 7
REMARK VINA RESULT:      -6.8      3.816      5.526
REMARK  Name = 
REMARK  11 active torsions:
REMARK  status: ('A' for Active; 'I' for Inactive)
REMARK    1  A    between atoms: C_1  and  C_2
REMARK    2  A    between atoms: C_2  and  O_3
REMARK    3  A    between atoms: O_3  and  C_4
REMARK    4  A    between atoms: C_4  and  C_6
REMARK    5  A    between atoms: C_6  and  O_7
REMARK    6  A    between atoms: O_7  and  C_8
REMARK    7  A    between atoms: C_11  and  C_12
REMARK    8  A    between atoms: C_12  and  C_13
REMARK    9  A    between atoms: C_16  and  O_17
REMARK   10  A    between atoms: C_18  and  C_19
REMARK   11  A    between atoms: C_19  and  N_20
REMARK                            x       y       z     vdW  Elec       q    Type
REMARK                         _______ _______ _______ _____ _____    ______ ____
ROOT
ATOM      1  C   UNL     1       3.878   4.767  17.138  0.00  0.00    +0.000 A 
ATOM      2  C   UNL     1       4.143   6.084  17.530  0.00  0.00    +0.000 A 
ATOM      3  C   UNL     1       3.537   6.634  18.660  0.00  0.00    +0.000 A 
ATOM      4  C   UNL     1       2.635   5.883  19.430  0.00  0.00    +0.000 A 
ATOM      5  C   UNL     1       2.320   4.576  19.003  0.00  0.00    +0.000 A 
ATOM      6 CL   UNL     1       1.157   3.639  19.903  0.00  0.00    +0.000 Cl
ATOM      7  C   UNL     1       2.938   4.014  17.860  0.00  0.00    +0.000 A 
ATOM      8 CL   UNL     1       2.456   2.416  17.363  0.00  0.00    +0.000 Cl
ENDROOT
BRANCH   1   9
ATOM      9  O   UNL     1       4.584   4.416  16.014  0.00  0.00    +0.000 OA
BRANCH   9  10
ATOM     10  C   UNL     1       5.928   3.997  16.189  0.00  0.00    +0.000 C 
BRANCH  10  11
ATOM     11  C   UNL     1       6.917   4.994  15.615  0.00  0.00    +0.000 C 
ATOM     12  O   UNL     1       7.136   5.194  14.428  0.00  0.00    +0.000 OA
BRANCH  11  13
ATOM     13  O   UNL     1       7.607   5.557  16.652  0.00  0.00    +0.000 OA
BRANCH  13  15
ATOM     14  C   UNL     1       7.637   5.766  19.028  0.00  0.00    +0.000 C 
ATOM     15  C   UNL     1       7.621   4.793  17.864  0.00  0.00    +0.000 C 
ENDBRANCH  13  15
ENDBRANCH  11  13
ENDBRANCH  10  11
ENDBRANCH   9  10
ENDBRANCH   1   9
BRANCH   4  16
ATOM     16  C   UNL     1       2.025   6.528  20.663  0.00  0.00    +0.000 C 
BRANCH  16  17
ATOM     17  C   UNL     1       1.444   7.897  20.396  0.00  0.00    +0.000 A 
ATOM     18  C   UNL     1       1.590   8.507  19.145  0.00  0.00    +0.000 A 
ATOM     19  C   UNL     1       1.164   9.818  18.940  0.00  0.00    +0.000 A 
ATOM     20  C   UNL     1       0.565  10.523  19.983  0.00  0.00    +0.000 A 
ATOM     21  C   UNL     1       0.346   9.922  21.226  0.00  0.00    +0.000 A 
ATOM     22  C   UNL     1       0.796   8.604  21.419  0.00  0.00    +0.000 A 
BRANCH  20  23
ATOM     23  O   UNL     1       0.200  11.824  19.793  0.00  0.00    +0.000 OA
ATOM     24  H   UNL     1      -0.761  11.895  19.921  0.00  0.00    +0.000 HD
ENDBRANCH  20  23
BRANCH  21  25
ATOM     25  C   UNL     1      -0.322  10.652  22.365  0.00  0.00    +0.000 C 
BRANCH  25  26
ATOM     26  N   UNL     1      -0.439   9.805  23.552  0.00  0.00    +0.000 NA
ATOM     27  H   UNL     1       0.492   9.455  23.776  0.00  0.00    +0.000 HD
ATOM     28  H   UNL     1      -0.989   8.985  23.306  0.00  0.00    +0.000 HD
ENDBRANCH  25  26
ENDBRANCH  21  25
ENDBRANCH  16  17
ENDBRANCH   4  16
TORSDOF 10
ENDMDL
MODEL 8
REMARK VINA RESULT:      -6.8      5.031      8.053
REMARK  Name = 
REMARK  11 active torsions:
REMARK  status: ('A' for Active; 'I' for Inactive)
REMARK    1  A    between atoms: C_1  and  C_2
REMARK    2  A    between atoms: C_2  and  O_3
REMARK    3  A    between atoms: O_3  and  C_4
REMARK    4  A    between atoms: C_4  and  C_6
REMARK    5  A    between atoms: C_6  and  O_7
REMARK    6  A    between atoms: O_7  and  C_8
REMARK    7  A    between atoms: C_11  and  C_12
REMARK    8  A    between atoms: C_12  and  C_13
REMARK    9  A    between atoms: C_16  and  O_17
REMARK   10  A    between atoms: C_18  and  C_19
REMARK   11  A    between atoms: C_19  and  N_20
REMARK                            x       y       z     vdW  Elec       q    Type
REMARK                         _______ _______ _______ _____ _____    ______ ____
ROOT
ATOM      1  C   UNL     1       1.678   9.279  19.179  0.00  0.00    +0.000 A 
ATOM      2  C   UNL     1       2.090   8.985  17.875  0.00  0.00    +0.000 A 
ATOM      3  C   UNL     1       2.371   7.675  17.486  0.00  0.00    +0.000 A 
ATOM      4  C   UNL     1       2.258   6.615  18.399  0.00  0.00    +0.000 A 
ATOM      5  C   UNL     1       1.901   6.914  19.730  0.00  0.00    +0.000 A 
ATOM      6 CL   UNL     1       1.812   5.627  20.902  0.00  0.00    +0.000 Cl
ATOM      7  C   UNL     1       1.609   8.243  20.125  0.00  0.00    +0.000 A 
ATOM      8 CL   UNL     1       1.231   8.541  21.798  0.00  0.00    +0.000 Cl
ENDROOT
BRANCH   1   9
ATOM      9  O   UNL     1       1.438  10.619  19.351  0.00  0.00    +0.000 OA
BRANCH   9  10
ATOM     10  C   UNL     1       1.942  11.507  18.365  0.00  0.00    +0.000 C 
BRANCH  10  11
ATOM     11  C   UNL     1       2.295  12.863  18.944  0.00  0.00    +0.000 C 
ATOM     12  O   UNL     1       2.219  13.191  20.121  0.00  0.00    +0.000 OA
BRANCH  11  13
ATOM     13  O   UNL     1       2.608  13.701  17.910  0.00  0.00    +0.000 OA
BRANCH  13  15
ATOM     14  C   UNL     1       3.229  15.993  17.679  0.00  0.00    +0.000 C 
ATOM     15  C   UNL     1       3.670  14.627  18.173  0.00  0.00    +0.000 C 
ENDBRANCH  13  15
ENDBRANCH  11  13
ENDBRANCH  10  11
ENDBRANCH   9  10
ENDBRANCH   1   9
BRANCH   4  16
ATOM     16  C   UNL     1       2.554   5.206  17.912  0.00  0.00    +0.000 C 
BRANCH  16  17
ATOM     17  C   UNL     1       4.032   4.917  17.783  0.00  0.00    +0.000 A 
ATOM     18  C   UNL     1       4.876   4.986  18.897  0.00  0.00    +0.000 A 
ATOM     19  C   UNL     1       6.255   4.842  18.754  0.00  0.00    +0.000 A 
ATOM     20  C   UNL     1       6.798   4.601  17.493  0.00  0.00    +0.000 A 
ATOM     21  C   UNL     1       5.978   4.461  16.370  0.00  0.00    +0.000 A 
ATOM     22  C   UNL     1       4.591   4.626  16.531  0.00  0.00    +0.000 A 
BRANCH  20  23
ATOM     23  O   UNL     1       8.152   4.515  17.350  0.00  0.00    +0.000 OA
ATOM     24  H   UNL     1       8.403   3.576  17.357  0.00  0.00    +0.000 HD
ENDBRANCH  20  23
BRANCH  21  25
ATOM     25  C   UNL     1       6.536   4.176  14.998  0.00  0.00    +0.000 C 
BRANCH  25  26
ATOM     26  N   UNL     1       7.459   5.224  14.563  0.00  0.00    +0.000 NA
ATOM     27  H   UNL     1       8.238   5.244  15.221  0.00  0.00    +0.000 HD
ATOM     28  H   UNL     1       6.991   6.123  14.663  0.00  0.00    +0.000 HD
ENDBRANCH  25  26
ENDBRANCH  21  25
ENDBRANCH  16  17
ENDBRANCH   4  16
TORSDOF 10
ENDMDL
MODEL 9
REMARK VINA RESULT:      -6.8      4.028      6.027
REMARK  Name = 
REMARK  11 active torsions:
REMARK  status: ('A' for Active; 'I' for Inactive)
REMARK    1  A    between atoms: C_1  and  C_2
REMARK    2  A    between atoms: C_2  and  O_3
REMARK    3  A    between atoms: O_3  and  C_4
REMARK    4  A    between atoms: C_4  and  C_6
REMARK    5  A    between atoms: C_6  and  O_7
REMARK    6  A    between atoms: O_7  and  C_8
REMARK    7  A    between atoms: C_11  and  C_12
REMARK    8  A    between atoms: C_12  and  C_13
REMARK    9  A    between atoms: C_16  and  O_17
REMARK   10  A    between atoms: C_18  and  C_19
REMARK   11  A    between atoms: C_19  and  N_20
REMARK                            x       y       z     vdW  Elec       q    Type
REMARK                         _______ _______ _______ _____ _____    ______ ____
ROOT
ATOM      1  C   UNL     1       3.938   3.809  17.639  0.00  0.00    +0.000 A 
ATOM      2  C   UNL     1       2.619   4.246  17.805  0.00  0.00    +0.000 A 
ATOM      3  C   UNL     1       2.303   5.604  17.784  0.00  0.00    +0.000 A 
ATOM      4  C   UNL     1       3.304   6.573  17.607  0.00  0.00    +0.000 A 
ATOM      5  C   UNL     1       4.641   6.140  17.499  0.00  0.00    +0.000 A 
ATOM      6 CL   UNL     1       5.913   7.320  17.339  0.00  0.00    +0.000 Cl
ATOM      7  C   UNL     1       4.963   4.761  17.513  0.00  0.00    +0.000 A 
ATOM      8 CL   UNL     1       6.642   4.305  17.432  0.00  0.00    +0.000 Cl
ENDROOT
BRANCH   1   9
ATOM      9  O   UNL     1       4.032   2.440  17.675  0.00  0.00    +0.000 OA
BRANCH   9  10
ATOM     10  C   UNL     1       3.488   1.776  18.804  0.00  0.00    +0.000 C 
BRANCH  10  11
ATOM     11  C   UNL     1       4.238   2.108  20.080  0.00  0.00    +0.000 C 
ATOM     12  O   UNL     1       5.236   1.540  20.502  0.00  0.00    +0.000 OA
BRANCH  11  13
ATOM     13  O   UNL     1       3.543   3.082  20.742  0.00  0.00    +0.000 OA
BRANCH  13  15
ATOM     14  C   UNL     1       1.202   3.468  20.989  0.00  0.00    +0.000 C 
ATOM     15  C   UNL     1       2.382   2.631  21.449  0.00  0.00    +0.000 C 
ENDBRANCH  13  15
ENDBRANCH  11  13
ENDBRANCH  10  11
ENDBRANCH   9  10
ENDBRANCH   1   9
BRANCH   4  16
ATOM     16  C   UNL     1       2.895   8.036  17.570  0.00  0.00    +0.000 C 
BRANCH  16  17
ATOM     17  C   UNL     1       2.058   8.454  18.756  0.00  0.00    +0.000 A 
ATOM     18  C   UNL     1       2.107   7.737  19.957  0.00  0.00    +0.000 A 
ATOM     19  C   UNL     1       1.243   8.047  21.006  0.00  0.00    +0.000 A 
ATOM     20  C   UNL     1       0.337   9.098  20.869  0.00  0.00    +0.000 A 
ATOM     21  C   UNL     1       0.306   9.875  19.707  0.00  0.00    +0.000 A 
ATOM     22  C   UNL     1       1.174   9.537  18.654  0.00  0.00    +0.000 A 
BRANCH  20  23
ATOM     23  O   UNL     1      -0.543   9.362  21.877  0.00  0.00    +0.000 OA
ATOM     24  H   UNL     1      -1.375   9.675  21.483  0.00  0.00    +0.000 HD
ENDBRANCH  20  23
BRANCH  21  25
ATOM     25  C   UNL     1      -0.647  11.033  19.540  0.00  0.00    +0.000 C 
BRANCH  25  26
ATOM     26  N   UNL     1      -0.904  11.320  18.129  0.00  0.00    +0.000 NA
ATOM     27  H   UNL     1      -0.913  10.431  17.629  0.00  0.00    +0.000 HD
ATOM     28  H   UNL     1      -0.109  11.836  17.759  0.00  0.00    +0.000 HD
ENDBRANCH  25  26
ENDBRANCH  21  25
ENDBRANCH  16  17
ENDBRANCH   4  16
TORSDOF 10
ENDMDL
