MODEL 1
REMARK VINA RESULT:      -7.9      0.000      0.000
REMARK  Name = 
REMARK  3 active torsions:
REMARK  status: ('A' for Active; 'I' for Inactive)
REMARK    1  A    between atoms: S_2  and  N_4
REMARK    2  A    between atoms: S_2  and  C_12
REMARK    3  A    between atoms: N_4  and  C_5
REMARK                            x       y       z     vdW  Elec       q    Type
REMARK                         _______ _______ _______ _____ _____    ______ ____
ROOT
ATOM      1  O   UNL     1       3.152   3.230  19.829  0.00  0.00    +0.000 OA
ATOM      2  S   UNL     1       3.022   4.384  18.953  0.00  0.00    +0.000 S 
ATOM      3  O   UNL     1       1.839   4.504  18.124  0.00  0.00    +0.000 OA
ENDROOT
BRANCH   2   4
ATOM      4  C   UNL     1       4.443   4.491  17.952  0.00  0.00    +0.000 A 
ATOM      5  C   UNL     1       4.379   4.139  16.648  0.00  0.00    +0.000 A 
ATOM      6  C   UNL     1       5.576   4.095  15.816  0.00  0.00    +0.000 A 
ATOM      7  C   UNL     1       6.763   4.390  16.370  0.00  0.00    +0.000 A 
ATOM      8  N   UNL     1       6.805   4.768  17.708  0.00  0.00    +0.000 N 
ATOM      9  C   UNL     1       7.859   5.098  18.510  0.00  0.00    +0.000 A 
ATOM     10  N   UNL     1       7.432   5.382  19.720  0.00  0.00    +0.000 NA
ATOM     11  N   UNL     1       6.064   5.226  19.731  0.00  0.00    +0.000 NA
ATOM     12  C   UNL     1       5.689   4.858  18.524  0.00  0.00    +0.000 A 
ENDBRANCH   2   4
BRANCH   2  13
ATOM     13  N   UNL     1       3.005   5.733  19.961  0.00  0.00    +0.000 N 
ATOM     14  H   UNL     1       2.982   5.512  20.961  0.00  0.00    +0.000 HD
BRANCH  13  15
ATOM     15  C   UNL     1       2.514   6.988  19.510  0.00  0.00    +0.000 A 
ATOM     16  C   UNL     1       2.780   7.441  18.213  0.00  0.00    +0.000 A 
ATOM     17  C   UNL     1       2.231   8.647  17.768  0.00  0.00    +0.000 A 
ATOM     18  C   UNL     1       1.406   9.389  18.614  0.00  0.00    +0.000 A 
ATOM     19  C   UNL     1       1.140   8.924  19.902  0.00  0.00    +0.000 A 
ATOM     20 CL   UNL     1       0.091   9.821  20.929  0.00  0.00    +0.000 Cl
ATOM     21  C   UNL     1       1.699   7.729  20.356  0.00  0.00    +0.000 A 
ENDBRANCH  13  15
ENDBRANCH   2  13
TORSDOF 3
ENDMDL
MODEL 2
REMARK VINA RESULT:      -7.5      1.683      2.167
REMARK  Name = 
REMARK  3 active torsions:
REMARK  status: ('A' for Active; 'I' for Inactive)
REMARK    1  A    between atoms: S_2  and  N_4
REMARK    2  A    between atoms: S_2  and  C_12
REMARK    3  A    between atoms: N_4  and  C_5
REMARK                            x       y       z     vdW  Elec       q    Type
REMARK                         _______ _______ _______ _____ _____    ______ ____
ROOT
ATOM      1  O   UNL     1       4.180   2.799  19.959  0.00  0.00    +0.000 OA
ATOM      2  S   UNL     1       3.797   2.862  18.557  0.00  0.00    +0.000 S 
ATOM      3  O   UNL     1       3.617   1.625  17.824  0.00  0.00    +0.000 OA
ENDROOT
BRANCH   2   4
ATOM      4  C   UNL     1       4.933   3.875  17.709  0.00  0.00    +0.000 A 
ATOM      5  C   UNL     1       4.941   3.895  16.357  0.00  0.00    +0.000 A 
ATOM      6  C   UNL     1       5.960   4.631  15.618  0.00  0.00    +0.000 A 
ATOM      7  C   UNL     1       6.917   5.280  16.302  0.00  0.00    +0.000 A 
ATOM      8  N   UNL     1       6.879   5.262  17.692  0.00  0.00    +0.000 N 
ATOM      9  C   UNL     1       7.721   5.813  18.616  0.00  0.00    +0.000 A 
ATOM     10  N   UNL     1       7.301   5.534  19.829  0.00  0.00    +0.000 NA
ATOM     11  N   UNL     1       6.161   4.768  19.715  0.00  0.00    +0.000 NA
ATOM     12  C   UNL     1       5.910   4.606  18.433  0.00  0.00    +0.000 A 
ENDBRANCH   2   4
BRANCH   2  13
ATOM     13  N   UNL     1       2.300   3.632  18.518  0.00  0.00    +0.000 N 
ATOM     14  H   UNL     1       1.667   3.288  17.790  0.00  0.00    +0.000 HD
BRANCH  13  15
ATOM     15  C   UNL     1       2.130   4.947  19.027  0.00  0.00    +0.000 A 
ATOM     16  C   UNL     1       1.812   5.163  20.372  0.00  0.00    +0.000 A 
ATOM     17  C   UNL     1       1.715   6.466  20.868  0.00  0.00    +0.000 A 
ATOM     18  C   UNL     1       1.953   7.551  20.022  0.00  0.00    +0.000 A 
ATOM     19  C   UNL     1       2.279   7.325  18.684  0.00  0.00    +0.000 A 
ATOM     20 CL   UNL     1       2.610   8.661  17.653  0.00  0.00    +0.000 Cl
ATOM     21  C   UNL     1       2.360   6.025  18.181  0.00  0.00    +0.000 A 
ENDBRANCH  13  15
ENDBRANCH   2  13
TORSDOF 3
ENDMDL
MODEL 3
REMARK VINA RESULT:      -7.4      4.090      6.570
REMARK  Name = 
REMARK  3 active torsions:
REMARK  status: ('A' for Active; 'I' for Inactive)
REMARK    1  A    between atoms: S_2  and  N_4
REMARK    2  A    between atoms: S_2  and  C_12
REMARK    3  A    between atoms: N_4  and  C_5
REMARK                            x       y       z     vdW  Elec       q    Type
REMARK                         _______ _______ _______ _____ _____    ______ ____
ROOT
ATOM      1  O   UNL     1       6.788   6.662  17.255  0.00  0.00    +0.000 OA
ATOM      2  S   UNL     1       5.599   6.238  16.533  0.00  0.00    +0.000 S 
ATOM      3  O   UNL     1       5.137   7.036  15.415  0.00  0.00    +0.000 OA
ENDROOT
BRANCH   2   4
ATOM      4  C   UNL     1       4.296   6.028  17.670  0.00  0.00    +0.000 A 
ATOM      5  C   UNL     1       3.450   7.052  17.924  0.00  0.00    +0.000 A 
ATOM      6  C   UNL     1       2.430   6.952  18.962  0.00  0.00    +0.000 A 
ATOM      7  C   UNL     1       2.352   5.825  19.689  0.00  0.00    +0.000 A 
ATOM      8  N   UNL     1       3.220   4.777  19.399  0.00  0.00    +0.000 N 
ATOM      9  C   UNL     1       3.365   3.551  19.982  0.00  0.00    +0.000 A 
ATOM     10  N   UNL     1       4.324   2.880  19.385  0.00  0.00    +0.000 NA
ATOM     11  N   UNL     1       4.841   3.679  18.389  0.00  0.00    +0.000 NA
ATOM     12  C   UNL     1       4.178   4.817  18.399  0.00  0.00    +0.000 A 
ENDBRANCH   2   4
BRANCH   2  13
ATOM     13  N   UNL     1       5.961   4.725  15.888  0.00  0.00    +0.000 N 
ATOM     14  H   UNL     1       6.266   4.034  16.580  0.00  0.00    +0.000 HD
BRANCH  13  15
ATOM     15  C   UNL     1       6.349   4.572  14.530  0.00  0.00    +0.000 A 
ATOM     16  C   UNL     1       7.432   5.287  14.007  0.00  0.00    +0.000 A 
ATOM     17  C   UNL     1       7.839   5.073  12.686  0.00  0.00    +0.000 A 
ATOM     18  C   UNL     1       7.173   4.134  11.898  0.00  0.00    +0.000 A 
ATOM     19  C   UNL     1       6.100   3.420  12.433  0.00  0.00    +0.000 A 
ATOM     20 CL   UNL     1       5.306   2.235  11.472  0.00  0.00    +0.000 Cl
ATOM     21  C   UNL     1       5.680   3.642  13.745  0.00  0.00    +0.000 A 
ENDBRANCH  13  15
ENDBRANCH   2  13
TORSDOF 3
ENDMDL
MODEL 4
REMARK VINA RESULT:      -7.3      1.017      1.521
REMARK  Name = 
REMARK  3 active torsions:
REMARK  status: ('A' for Active; 'I' for Inactive)
REMARK    1  A    between atoms: S_2  and  N_4
REMARK    2  A    between atoms: S_2  and  C_12
REMARK    3  A    between atoms: N_4  and  C_5
REMARK                            x       y       z     vdW  Elec       q    Type
REMARK                         _______ _______ _______ _____ _____    ______ ____
ROOT
ATOM      1  O   UNL     1       3.129   2.978  19.814  0.00  0.00    +0.000 OA
ATOM      2  S   UNL     1       2.972   4.223  19.076  0.00  0.00    +0.000 S 
ATOM      3  O   UNL     1       1.727   4.470  18.377  0.00  0.00    +0.000 OA
ENDROOT
BRANCH   2   4
ATOM      4  C   UNL     1       4.302   4.388  17.964  0.00  0.00    +0.000 A 
ATOM      5  C   UNL     1       4.127   4.099  16.655  0.00  0.00    +0.000 A 
ATOM      6  C   UNL     1       5.248   4.104  15.722  0.00  0.00    +0.000 A 
ATOM      7  C   UNL     1       6.478   4.379  16.187  0.00  0.00    +0.000 A 
ATOM      8  N   UNL     1       6.633   4.692  17.533  0.00  0.00    +0.000 N 
ATOM      9  C   UNL     1       7.752   4.989  18.258  0.00  0.00    +0.000 A 
ATOM     10  N   UNL     1       7.429   5.211  19.511  0.00  0.00    +0.000 NA
ATOM     11  N   UNL     1       6.067   5.046  19.632  0.00  0.00    +0.000 NA
ATOM     12  C   UNL     1       5.591   4.734  18.445  0.00  0.00    +0.000 A 
ENDBRANCH   2   4
BRANCH   2  13
ATOM     13  N   UNL     1       3.103   5.457  20.214  0.00  0.00    +0.000 N 
ATOM     14  H   UNL     1       3.442   5.151  21.131  0.00  0.00    +0.000 HD
BRANCH  13  15
ATOM     15  C   UNL     1       2.322   6.640  20.116  0.00  0.00    +0.000 A 
ATOM     16  C   UNL     1       1.452   7.016  21.146  0.00  0.00    +0.000 A 
ATOM     17  C   UNL     1       0.743   8.217  21.059  0.00  0.00    +0.000 A 
ATOM     18  C   UNL     1       0.918   9.049  19.952  0.00  0.00    +0.000 A 
ATOM     19  C   UNL     1       1.795   8.669  18.935  0.00  0.00    +0.000 A 
ATOM     20 CL   UNL     1       2.038   9.713  17.589  0.00  0.00    +0.000 Cl
ATOM     21  C   UNL     1       2.492   7.462  19.010  0.00  0.00    +0.000 A 
ENDBRANCH  13  15
ENDBRANCH   2  13
TORSDOF 3
ENDMDL
MODEL 5
REMARK VINA RESULT:      -7.3      4.155      6.325
REMARK  Name = 
REMARK  3 active torsions:
REMARK  status: ('A' for Active; 'I' for Inactive)
REMARK    1  A    between atoms: S_2  and  N_4
REMARK    2  A    between atoms: S_2  and  C_12
REMARK    3  A    between atoms: N_4  and  C_5
REMARK                            x       y       z     vdW  Elec       q    Type
REMARK                         _______ _______ _______ _____ _____    ______ ____
ROOT
ATOM      1  O   UNL     1       6.207   5.908  18.164  0.00  0.00    +0.000 OA
ATOM      2  S   UNL     1       5.313   5.380  17.144  0.00  0.00    +0.000 S 
ATOM      3  O   UNL     1       4.820   6.273  16.115  0.00  0.00    +0.000 OA
ENDROOT
BRANCH   2   4
ATOM      4  C   UNL     1       3.967   4.601  17.927  0.00  0.00    +0.000 A 
ATOM      5  C   UNL     1       2.703   4.989  17.643  0.00  0.00    +0.000 A 
ATOM      6  C   UNL     1       1.563   4.448  18.373  0.00  0.00    +0.000 A 
ATOM      7  C   UNL     1       1.783   3.563  19.359  0.00  0.00    +0.000 A 
ATOM      8  N   UNL     1       3.089   3.163  19.623  0.00  0.00    +0.000 N 
ATOM      9  C   UNL     1       3.588   2.307  20.563  0.00  0.00    +0.000 A 
ATOM     10  N   UNL     1       4.895   2.232  20.454  0.00  0.00    +0.000 NA
ATOM     11  N   UNL     1       5.281   3.067  19.428  0.00  0.00    +0.000 NA
ATOM     12  C   UNL     1       4.197   3.625  18.931  0.00  0.00    +0.000 A 
ENDBRANCH   2   4
BRANCH   2  13
ATOM     13  N   UNL     1       6.187   4.192  16.330  0.00  0.00    +0.000 N 
ATOM     14  H   UNL     1       6.814   3.646  16.928  0.00  0.00    +0.000 HD
BRANCH  13  15
ATOM     15  C   UNL     1       6.460   4.297  14.940  0.00  0.00    +0.000 A 
ATOM     16  C   UNL     1       7.521   5.080  14.472  0.00  0.00    +0.000 A 
ATOM     17  C   UNL     1       7.814   5.116  13.105  0.00  0.00    +0.000 A 
ATOM     18  C   UNL     1       7.057   4.357  12.212  0.00  0.00    +0.000 A 
ATOM     19  C   UNL     1       6.006   3.572  12.691  0.00  0.00    +0.000 A 
ATOM     20 CL   UNL     1       5.099   2.608  11.593  0.00  0.00    +0.000 Cl
ATOM     21  C   UNL     1       5.700   3.546  14.052  0.00  0.00    +0.000 A 
ENDBRANCH  13  15
ENDBRANCH   2  13
TORSDOF 3
ENDMDL
MODEL 6
REMARK VINA RESULT:      -7.0      3.684      6.235
REMARK  Name = 
REMARK  3 active torsions:
REMARK  status: ('A' for Active; 'I' for Inactive)
REMARK    1  A    between atoms: S_2  and  N_4
REMARK    2  A    between atoms: S_2  and  C_12
REMARK    3  A    between atoms: N_4  and  C_5
REMARK                            x       y       z     vdW  Elec       q    Type
REMARK                         _______ _______ _______ _____ _____    ______ ____
ROOT
ATOM      1  O   UNL     1       5.829   5.597  19.537  0.00  0.00    +0.000 OA
ATOM      2  S   UNL     1       4.876   5.459  18.446  0.00  0.00    +0.000 S 
ATOM      3  O   UNL     1       4.693   6.569  17.532  0.00  0.00    +0.000 OA
ENDROOT
BRANCH   2   4
ATOM      4  C   UNL     1       3.333   4.993  19.105  0.00  0.00    +0.000 A 
ATOM      5  C   UNL     1       2.801   5.688  20.136  0.00  0.00    +0.000 A 
ATOM      6  C   UNL     1       1.575   5.248  20.792  0.00  0.00    +0.000 A 
ATOM      7  C   UNL     1       0.983   4.117  20.373  0.00  0.00    +0.000 A 
ATOM      8  N   UNL     1       1.537   3.428  19.300  0.00  0.00    +0.000 N 
ATOM      9  C   UNL     1       1.156   2.265  18.693  0.00  0.00    +0.000 A 
ATOM     10  N   UNL     1       1.983   1.976  17.715  0.00  0.00    +0.000 NA
ATOM     11  N   UNL     1       2.947   2.960  17.673  0.00  0.00    +0.000 NA
ATOM     12  C   UNL     1       2.678   3.829  18.625  0.00  0.00    +0.000 A 
ENDBRANCH   2   4
BRANCH   2  13
ATOM     13  N   UNL     1       5.434   4.182  17.500  0.00  0.00    +0.000 N 
ATOM     14  H   UNL     1       5.735   3.362  18.034  0.00  0.00    +0.000 HD
BRANCH  13  15
ATOM     15  C   UNL     1       5.958   4.400  16.197  0.00  0.00    +0.000 A 
ATOM     16  C   UNL     1       7.217   4.982  16.017  0.00  0.00    +0.000 A 
ATOM     17  C   UNL     1       7.742   5.126  14.729  0.00  0.00    +0.000 A 
ATOM     18  C   UNL     1       7.016   4.673  13.628  0.00  0.00    +0.000 A 
ATOM     19  C   UNL     1       5.765   4.085  13.819  0.00  0.00    +0.000 A 
ATOM     20 CL   UNL     1       4.888   3.493  12.464  0.00  0.00    +0.000 Cl
ATOM     21  C   UNL     1       5.229   3.955  15.102  0.00  0.00    +0.000 A 
ENDBRANCH  13  15
ENDBRANCH   2  13
TORSDOF 3
ENDMDL
MODEL 7
REMARK VINA RESULT:      -7.0      4.056      6.300
REMARK  Name = 
REMARK  3 active torsions:
REMARK  status: ('A' for Active; 'I' for Inactive)
REMARK    1  A    between atoms: S_2  and  N_4
REMARK    2  A    between atoms: S_2  and  C_12
REMARK    3  A    between atoms: N_4  and  C_5
REMARK                            x       y       z     vdW  Elec       q    Type
REMARK                         _______ _______ _______ _____ _____    ______ ____
ROOT
ATOM      1  O   UNL     1       6.242   4.835  18.809  0.00  0.00    +0.000 OA
ATOM      2  S   UNL     1       5.341   4.667  17.680  0.00  0.00    +0.000 S 
ATOM      3  O   UNL     1       4.959   5.833  16.909  0.00  0.00    +0.000 OA
ENDROOT
BRANCH   2   4
ATOM      4  C   UNL     1       3.907   3.839  18.224  0.00  0.00    +0.000 A 
ATOM      5  C   UNL     1       3.552   2.663  17.660  0.00  0.00    +0.000 A 
ATOM      6  C   UNL     1       2.293   2.010  18.002  0.00  0.00    +0.000 A 
ATOM      7  C   UNL     1       1.468   2.608  18.878  0.00  0.00    +0.000 A 
ATOM      8  N   UNL     1       1.862   3.808  19.460  0.00  0.00    +0.000 N 
ATOM      9  C   UNL     1       1.221   4.620  20.352  0.00  0.00    +0.000 A 
ATOM     10  N   UNL     1       1.969   5.665  20.624  0.00  0.00    +0.000 NA
ATOM     11  N   UNL     1       3.129   5.558  19.889  0.00  0.00    +0.000 NA
ATOM     12  C   UNL     1       3.063   4.443  19.192  0.00  0.00    +0.000 A 
ENDBRANCH   2   4
BRANCH   2  13
ATOM     13  N   UNL     1       6.136   3.651  16.598  0.00  0.00    +0.000 N 
ATOM     14  H   UNL     1       6.762   2.971  17.040  0.00  0.00    +0.000 HD
BRANCH  13  15
ATOM     15  C   UNL     1       6.363   4.037  15.250  0.00  0.00    +0.000 A 
ATOM     16  C   UNL     1       7.408   4.907  14.917  0.00  0.00    +0.000 A 
ATOM     17  C   UNL     1       7.655   5.222  13.577  0.00  0.00    +0.000 A 
ATOM     18  C   UNL     1       6.869   4.655  12.574  0.00  0.00    +0.000 A 
ATOM     19  C   UNL     1       5.835   3.782  12.916  0.00  0.00    +0.000 A 
ATOM     20 CL   UNL     1       4.892   3.055  11.675  0.00  0.00    +0.000 Cl
ATOM     21  C   UNL     1       5.574   3.478  14.253  0.00  0.00    +0.000 A 
ENDBRANCH  13  15
ENDBRANCH   2  13
TORSDOF 3
ENDMDL
MODEL 8
REMARK VINA RESULT:      -7.0      3.256      4.332
REMARK  Name = 
REMARK  3 active torsions:
REMARK  status: ('A' for Active; 'I' for Inactive)
REMARK    1  A    between atoms: S_2  and  N_4
REMARK    2  A    between atoms: S_2  and  C_12
REMARK    3  A    between atoms: N_4  and  C_5
REMARK                            x       y       z     vdW  Elec       q    Type
REMARK                         _______ _______ _______ _____ _____    ______ ____
ROOT
ATOM      1  O   UNL     1       3.339   7.901  17.367  0.00  0.00    +0.000 OA
ATOM      2  S   UNL     1       3.353   6.760  18.270  0.00  0.00    +0.000 S 
ATOM      3  O   UNL     1       3.032   6.970  19.668  0.00  0.00    +0.000 OA
ENDROOT
BRANCH   2   4
ATOM      4  C   UNL     1       4.896   5.963  18.145  0.00  0.00    +0.000 A 
ATOM      5  C   UNL     1       5.609   5.693  19.261  0.00  0.00    +0.000 A 
ATOM      6  C   UNL     1       6.958   5.144  19.183  0.00  0.00    +0.000 A 
ATOM      7  C   UNL     1       7.503   4.928  17.975  0.00  0.00    +0.000 A 
ATOM      8  N   UNL     1       6.745   5.196  16.839  0.00  0.00    +0.000 N 
ATOM      9  C   UNL     1       7.054   5.085  15.514  0.00  0.00    +0.000 A 
ATOM     10  N   UNL     1       6.030   5.459  14.781  0.00  0.00    +0.000 NA
ATOM     11  N   UNL     1       5.018   5.841  15.634  0.00  0.00    +0.000 NA
ATOM     12  C   UNL     1       5.449   5.683  16.868  0.00  0.00    +0.000 A 
ENDBRANCH   2   4
BRANCH   2  13
ATOM     13  N   UNL     1       2.181   5.697  17.693  0.00  0.00    +0.000 N 
ATOM     14  H   UNL     1       1.344   6.153  17.321  0.00  0.00    +0.000 HD
BRANCH  13  15
ATOM     15  C   UNL     1       2.097   4.360  18.166  0.00  0.00    +0.000 A 
ATOM     16  C   UNL     1       2.473   3.284  17.354  0.00  0.00    +0.000 A 
ATOM     17  C   UNL     1       2.445   1.982  17.862  0.00  0.00    +0.000 A 
ATOM     18  C   UNL     1       2.060   1.760  19.185  0.00  0.00    +0.000 A 
ATOM     19  C   UNL     1       1.696   2.841  19.989  0.00  0.00    +0.000 A 
ATOM     20 CL   UNL     1       1.258   2.569  21.630  0.00  0.00    +0.000 Cl
ATOM     21  C   UNL     1       1.706   4.141  19.481  0.00  0.00    +0.000 A 
ENDBRANCH  13  15
ENDBRANCH   2  13
TORSDOF 3
ENDMDL
MODEL 9
REMARK VINA RESULT:      -6.9      3.085      3.845
REMARK  Name = 
REMARK  3 active torsions:
REMARK  status: ('A' for Active; 'I' for Inactive)
REMARK    1  A    between atoms: S_2  and  N_4
REMARK    2  A    between atoms: S_2  and  C_12
REMARK    3  A    between atoms: N_4  and  C_5
REMARK                            x       y       z     vdW  Elec       q    Type
REMARK                         _______ _______ _______ _____ _____    ______ ____
ROOT
ATOM      1  O   UNL     1       3.105   8.055  17.510  0.00  0.00    +0.000 OA
ATOM      2  S   UNL     1       3.439   6.748  18.055  0.00  0.00    +0.000 S 
ATOM      3  O   UNL     1       3.664   6.620  19.480  0.00  0.00    +0.000 OA
ENDROOT
BRANCH   2   4
ATOM      4  C   UNL     1       4.816   6.117  17.194  0.00  0.00    +0.000 A 
ATOM      5  C   UNL     1       4.766   5.975  15.850  0.00  0.00    +0.000 A 
ATOM      6  C   UNL     1       5.850   5.333  15.116  0.00  0.00    +0.000 A 
ATOM      7  C   UNL     1       6.904   4.856  15.799  0.00  0.00    +0.000 A 
ATOM      8  N   UNL     1       6.944   5.028  17.178  0.00  0.00    +0.000 N 
ATOM      9  C   UNL     1       7.871   4.634  18.100  0.00  0.00    +0.000 A 
ATOM     10  N   UNL     1       7.495   5.006  19.303  0.00  0.00    +0.000 NA
ATOM     11  N   UNL     1       6.284   5.651  19.185  0.00  0.00    +0.000 NA
ATOM     12  C   UNL     1       5.955   5.664  17.910  0.00  0.00    +0.000 A 
ENDBRANCH   2   4
BRANCH   2  13
ATOM     13  N   UNL     1       2.125   5.752  17.713  0.00  0.00    +0.000 N 
ATOM     14  H   UNL     1       1.254   6.255  17.518  0.00  0.00    +0.000 HD
BRANCH  13  15
ATOM     15  C   UNL     1       2.069   4.413  18.185  0.00  0.00    +0.000 A 
ATOM     16  C   UNL     1       2.477   3.347  17.375  0.00  0.00    +0.000 A 
ATOM     17  C   UNL     1       2.477   2.044  17.881  0.00  0.00    +0.000 A 
ATOM     18  C   UNL     1       2.084   1.811  19.199  0.00  0.00    +0.000 A 
ATOM     19  C   UNL     1       1.686   2.882  20.001  0.00  0.00    +0.000 A 
ATOM     20 CL   UNL     1       1.239   2.597  21.637  0.00  0.00    +0.000 Cl
ATOM     21  C   UNL     1       1.670   4.182  19.495  0.00  0.00    +0.000 A 
ENDBRANCH  13  15
ENDBRANCH   2  13
TORSDOF 3
ENDMDL
