MODEL 1
REMARK VINA RESULT:      -6.4      0.000      0.000
REMARK  Name = 
REMARK  7 active torsions:
REMARK  status: ('A' for Active; 'I' for Inactive)
REMARK    1  A    between atoms: C_1  and  C_2
REMARK    2  A    between atoms: C_2  and  N_3
REMARK    3  A    between atoms: C_5  and  C_6
REMARK    4  A    between atoms: N_8  and  C_9
REMARK    5  A    between atoms: C_9  and  C_10
REMARK    6  A    between atoms: C_9  and  C_11
REMARK    7  A    between atoms: C_9  and  C_12
REMARK                            x       y       z     vdW  Elec       q    Type
REMARK                         _______ _______ _______ _____ _____    ______ ____
ROOT
ATOM      1  N   UNL     1       1.926   3.377  19.622  0.00  0.00    +0.000 N 
ATOM      2  C   UNL     1       3.078   2.698  20.168  0.00  0.00    +0.000 C 
ATOM      3  C   UNL     1       3.926   2.385  18.940  0.00  0.00    +0.000 C 
ATOM      4  C   UNL     1       2.893   2.240  17.821  0.00  0.00    +0.000 C 
ATOM      5  C   UNL     1       1.788   3.172  18.261  0.00  0.00    +0.000 C 
ATOM      6  O   UNL     1       0.925   3.628  17.529  0.00  0.00    +0.000 OA
ENDROOT
BRANCH   3   7
ATOM      7  C   UNL     1       4.920   3.509  18.673  0.00  0.00    +0.000 C 
ATOM      8  O   UNL     1       5.385   4.193  19.578  0.00  0.00    +0.000 OA
ATOM      9  N   UNL     1       5.295   3.660  17.353  0.00  0.00    +0.000 N 
ATOM     10  H   UNL     1       4.888   3.048  16.657  0.00  0.00    +0.000 HD
BRANCH   9  11
ATOM     11  C   UNL     1       6.239   4.697  16.893  0.00  0.00    +0.000 C 
ATOM     12  C   UNL     1       7.573   4.600  17.653  0.00  0.00    +0.000 C 
ATOM     13  C   UNL     1       6.526   4.478  15.397  0.00  0.00    +0.000 C 
ATOM     14  C   UNL     1       5.631   6.100  17.063  0.00  0.00    +0.000 C 
ENDBRANCH   9  11
ENDBRANCH   3   7
BRANCH   1  16
ATOM     15  C   UNL     1       1.943   5.658  20.552  0.00  0.00    +0.000 C 
ATOM     16  C   UNL     1       1.169   4.360  20.376  0.00  0.00    +0.000 C 
ENDBRANCH   1  16
TORSDOF 3
ENDMDL
MODEL 2
REMARK VINA RESULT:      -6.3      0.193      1.117
REMARK  Name = 
REMARK  7 active torsions:
REMARK  status: ('A' for Active; 'I' for Inactive)
REMARK    1  A    between atoms: C_1  and  C_2
REMARK    2  A    between atoms: C_2  and  N_3
REMARK    3  A    between atoms: C_5  and  C_6
REMARK    4  A    between atoms: N_8  and  C_9
REMARK    5  A    between atoms: C_9  and  C_10
REMARK    6  A    between atoms: C_9  and  C_11
REMARK    7  A    between atoms: C_9  and  C_12
REMARK                            x       y       z     vdW  Elec       q    Type
REMARK                         _______ _______ _______ _____ _____    ______ ____
ROOT
ATOM      1  N   UNL     1       1.984   3.431  19.744  0.00  0.00    +0.000 N 
ATOM      2  C   UNL     1       3.166   2.768  20.244  0.00  0.00    +0.000 C 
ATOM      3  C   UNL     1       3.930   2.394  18.979  0.00  0.00    +0.000 C 
ATOM      4  C   UNL     1       2.827   2.209  17.937  0.00  0.00    +0.000 C 
ATOM      5  C   UNL     1       1.757   3.167  18.405  0.00  0.00    +0.000 C 
ATOM      6  O   UNL     1       0.851   3.599  17.711  0.00  0.00    +0.000 OA
ENDROOT
BRANCH   3   7
ATOM      7  C   UNL     1       4.911   3.497  18.599  0.00  0.00    +0.000 C 
ATOM      8  O   UNL     1       5.428   4.225  19.440  0.00  0.00    +0.000 OA
ATOM      9  N   UNL     1       5.212   3.578  17.255  0.00  0.00    +0.000 N 
ATOM     10  H   UNL     1       4.766   2.933  16.615  0.00  0.00    +0.000 HD
BRANCH   9  11
ATOM     11  C   UNL     1       6.131   4.584  16.690  0.00  0.00    +0.000 C 
ATOM     12  C   UNL     1       6.410   4.299  15.203  0.00  0.00    +0.000 C 
ATOM     13  C   UNL     1       5.474   5.972  16.793  0.00  0.00    +0.000 C 
ATOM     14  C   UNL     1       7.451   4.621  17.481  0.00  0.00    +0.000 C 
ENDBRANCH   9  11
ENDBRANCH   3   7
BRANCH   1  16
ATOM     15  C   UNL     1       1.975   5.804  20.407  0.00  0.00    +0.000 C 
ATOM     16  C   UNL     1       1.283   4.452  20.501  0.00  0.00    +0.000 C 
ENDBRANCH   1  16
TORSDOF 3
ENDMDL
MODEL 3
REMARK VINA RESULT:      -6.3      0.247      1.153
REMARK  Name = 
REMARK  7 active torsions:
REMARK  status: ('A' for Active; 'I' for Inactive)
REMARK    1  A    between atoms: C_1  and  C_2
REMARK    2  A    between atoms: C_2  and  N_3
REMARK    3  A    between atoms: C_5  and  C_6
REMARK    4  A    between atoms: N_8  and  C_9
REMARK    5  A    between atoms: C_9  and  C_10
REMARK    6  A    between atoms: C_9  and  C_11
REMARK    7  A    between atoms: C_9  and  C_12
REMARK                            x       y       z     vdW  Elec       q    Type
REMARK                         _______ _______ _______ _____ _____    ______ ____
ROOT
ATOM      1  N   UNL     1       2.021   3.376  19.808  0.00  0.00    +0.000 N 
ATOM      2  C   UNL     1       3.235   2.776  20.312  0.00  0.00    +0.000 C 
ATOM      3  C   UNL     1       3.997   2.390  19.050  0.00  0.00    +0.000 C 
ATOM      4  C   UNL     1       2.887   2.127  18.031  0.00  0.00    +0.000 C 
ATOM      5  C   UNL     1       1.787   3.059  18.482  0.00  0.00    +0.000 C 
ATOM      6  O   UNL     1       0.856   3.431  17.787  0.00  0.00    +0.000 OA
ENDROOT
BRANCH   3   7
ATOM      7  C   UNL     1       4.928   3.517  18.618  0.00  0.00    +0.000 C 
ATOM      8  O   UNL     1       5.432   4.289  19.428  0.00  0.00    +0.000 OA
ATOM      9  N   UNL     1       5.202   3.568  17.267  0.00  0.00    +0.000 N 
ATOM     10  H   UNL     1       4.769   2.887  16.655  0.00  0.00    +0.000 HD
BRANCH   9  11
ATOM     11  C   UNL     1       6.072   4.590  16.655  0.00  0.00    +0.000 C 
ATOM     12  C   UNL     1       5.454   5.992  16.795  0.00  0.00    +0.000 C 
ATOM     13  C   UNL     1       7.427   4.591  17.387  0.00  0.00    +0.000 C 
ATOM     14  C   UNL     1       6.331   4.268  15.172  0.00  0.00    +0.000 C 
ENDBRANCH   9  11
ENDBRANCH   3   7
BRANCH   1  16
ATOM     15  C   UNL     1       1.939   5.764  20.407  0.00  0.00    +0.000 C 
ATOM     16  C   UNL     1       1.291   4.394  20.541  0.00  0.00    +0.000 C 
ENDBRANCH   1  16
TORSDOF 3
ENDMDL
MODEL 4
REMARK VINA RESULT:      -6.3      2.011      5.340
REMARK  Name = 
REMARK  7 active torsions:
REMARK  status: ('A' for Active; 'I' for Inactive)
REMARK    1  A    between atoms: C_1  and  C_2
REMARK    2  A    between atoms: C_2  and  N_3
REMARK    3  A    between atoms: C_5  and  C_6
REMARK    4  A    between atoms: N_8  and  C_9
REMARK    5  A    between atoms: C_9  and  C_10
REMARK    6  A    between atoms: C_9  and  C_11
REMARK    7  A    between atoms: C_9  and  C_12
REMARK                            x       y       z     vdW  Elec       q    Type
REMARK                         _______ _______ _______ _____ _____    ______ ____
ROOT
ATOM      1  N   UNL     1       7.170   6.139  17.230  0.00  0.00    +0.000 N 
ATOM      2  C   UNL     1       6.051   6.600  16.441  0.00  0.00    +0.000 C 
ATOM      3  C   UNL     1       5.280   5.323  16.128  0.00  0.00    +0.000 C 
ATOM      4  C   UNL     1       6.366   4.246  16.117  0.00  0.00    +0.000 C 
ATOM      5  C   UNL     1       7.378   4.777  17.104  0.00  0.00    +0.000 C 
ATOM      6  O   UNL     1       8.232   4.106  17.659  0.00  0.00    +0.000 OA
ENDROOT
BRANCH   3   7
ATOM      7  C   UNL     1       4.215   5.065  17.187  0.00  0.00    +0.000 C 
ATOM      8  O   UNL     1       3.634   5.981  17.760  0.00  0.00    +0.000 OA
ATOM      9  N   UNL     1       3.919   3.736  17.411  0.00  0.00    +0.000 N 
ATOM     10  H   UNL     1       4.422   3.029  16.889  0.00  0.00    +0.000 HD
BRANCH   9  11
ATOM     11  C   UNL     1       2.924   3.284  18.402  0.00  0.00    +0.000 C 
ATOM     12  C   UNL     1       2.892   1.748  18.486  0.00  0.00    +0.000 C 
ATOM     13  C   UNL     1       3.320   3.828  19.787  0.00  0.00    +0.000 C 
ATOM     14  C   UNL     1       1.526   3.827  18.057  0.00  0.00    +0.000 C 
ENDBRANCH   9  11
ENDBRANCH   3   7
BRANCH   1  16
ATOM     15  C   UNL     1       7.953   8.413  17.762  0.00  0.00    +0.000 C 
ATOM     16  C   UNL     1       7.818   6.971  18.227  0.00  0.00    +0.000 C 
ENDBRANCH   1  16
TORSDOF 3
ENDMDL
MODEL 5
REMARK VINA RESULT:      -6.3      2.017      5.293
REMARK  Name = 
REMARK  7 active torsions:
REMARK  status: ('A' for Active; 'I' for Inactive)
REMARK    1  A    between atoms: C_1  and  C_2
REMARK    2  A    between atoms: C_2  and  N_3
REMARK    3  A    between atoms: C_5  and  C_6
REMARK    4  A    between atoms: N_8  and  C_9
REMARK    5  A    between atoms: C_9  and  C_10
REMARK    6  A    between atoms: C_9  and  C_11
REMARK    7  A    between atoms: C_9  and  C_12
REMARK                            x       y       z     vdW  Elec       q    Type
REMARK                         _______ _______ _______ _____ _____    ______ ____
ROOT
ATOM      1  N   UNL     1       6.980   6.188  17.144  0.00  0.00    +0.000 N 
ATOM      2  C   UNL     1       5.763   6.684  16.546  0.00  0.00    +0.000 C 
ATOM      3  C   UNL     1       5.018   5.416  16.142  0.00  0.00    +0.000 C 
ATOM      4  C   UNL     1       6.142   4.414  15.871  0.00  0.00    +0.000 C 
ATOM      5  C   UNL     1       7.232   4.869  16.812  0.00  0.00    +0.000 C 
ATOM      6  O   UNL     1       8.171   4.182  17.179  0.00  0.00    +0.000 OA
ENDROOT
BRANCH   3   7
ATOM      7  C   UNL     1       4.088   4.960  17.260  0.00  0.00    +0.000 C 
ATOM      8  O   UNL     1       3.404   5.752  17.899  0.00  0.00    +0.000 OA
ATOM      9  N   UNL     1       4.035   3.595  17.459  0.00  0.00    +0.000 N 
ATOM     10  H   UNL     1       4.610   2.995  16.883  0.00  0.00    +0.000 HD
BRANCH   9  11
ATOM     11  C   UNL     1       3.202   2.961  18.499  0.00  0.00    +0.000 C 
ATOM     12  C   UNL     1       3.517   3.545  19.887  0.00  0.00    +0.000 C 
ATOM     13  C   UNL     1       1.720   3.244  18.189  0.00  0.00    +0.000 C 
ATOM     14  C   UNL     1       3.406   1.436  18.504  0.00  0.00    +0.000 C 
ENDBRANCH   9  11
ENDBRANCH   3   7
BRANCH   1  16
ATOM     15  C   UNL     1       7.979   8.354  17.759  0.00  0.00    +0.000 C 
ATOM     16  C   UNL     1       7.698   6.918  18.173  0.00  0.00    +0.000 C 
ENDBRANCH   1  16
TORSDOF 3
ENDMDL
MODEL 6
REMARK VINA RESULT:      -6.2      1.933      5.345
REMARK  Name = 
REMARK  7 active torsions:
REMARK  status: ('A' for Active; 'I' for Inactive)
REMARK    1  A    between atoms: C_1  and  C_2
REMARK    2  A    between atoms: C_2  and  N_3
REMARK    3  A    between atoms: C_5  and  C_6
REMARK    4  A    between atoms: N_8  and  C_9
REMARK    5  A    between atoms: C_9  and  C_10
REMARK    6  A    between atoms: C_9  and  C_11
REMARK    7  A    between atoms: C_9  and  C_12
REMARK                            x       y       z     vdW  Elec       q    Type
REMARK                         _______ _______ _______ _____ _____    ______ ____
ROOT
ATOM      1  N   UNL     1       6.818   6.268  17.318  0.00  0.00    +0.000 N 
ATOM      2  C   UNL     1       5.484   6.750  17.049  0.00  0.00    +0.000 C 
ATOM      3  C   UNL     1       4.673   5.473  16.852  0.00  0.00    +0.000 C 
ATOM      4  C   UNL     1       5.700   4.480  16.307  0.00  0.00    +0.000 C 
ATOM      5  C   UNL     1       6.990   4.949  16.937  0.00  0.00    +0.000 C 
ATOM      6  O   UNL     1       7.998   4.272  17.054  0.00  0.00    +0.000 OA
ENDROOT
BRANCH   3   7
ATOM      7  C   UNL     1       4.064   5.015  18.172  0.00  0.00    +0.000 C 
ATOM      8  O   UNL     1       4.372   5.529  19.243  0.00  0.00    +0.000 OA
ATOM      9  N   UNL     1       3.110   4.025  18.066  0.00  0.00    +0.000 N 
ATOM     10  H   UNL     1       2.887   3.657  17.149  0.00  0.00    +0.000 HD
BRANCH   9  11
ATOM     11  C   UNL     1       2.413   3.443  19.229  0.00  0.00    +0.000 C 
ATOM     12  C   UNL     1       1.378   2.397  18.782  0.00  0.00    +0.000 C 
ATOM     13  C   UNL     1       3.447   2.737  20.126  0.00  0.00    +0.000 C 
ATOM     14  C   UNL     1       1.732   4.544  20.062  0.00  0.00    +0.000 C 
ENDBRANCH   9  11
ENDBRANCH   3   7
BRANCH   1  16
ATOM     15  C   UNL     1       7.918   8.447  17.652  0.00  0.00    +0.000 C 
ATOM     16  C   UNL     1       7.768   7.009  18.127  0.00  0.00    +0.000 C 
ENDBRANCH   1  16
TORSDOF 3
ENDMDL
MODEL 7
REMARK VINA RESULT:      -6.2      1.162      1.708
REMARK  Name = 
REMARK  7 active torsions:
REMARK  status: ('A' for Active; 'I' for Inactive)
REMARK    1  A    between atoms: C_1  and  C_2
REMARK    2  A    between atoms: C_2  and  N_3
REMARK    3  A    between atoms: C_5  and  C_6
REMARK    4  A    between atoms: N_8  and  C_9
REMARK    5  A    between atoms: C_9  and  C_10
REMARK    6  A    between atoms: C_9  and  C_11
REMARK    7  A    between atoms: C_9  and  C_12
REMARK                            x       y       z     vdW  Elec       q    Type
REMARK                         _______ _______ _______ _____ _____    ______ ____
ROOT
ATOM      1  N   UNL     1       2.003   3.182  19.967  0.00  0.00    +0.000 N 
ATOM      2  C   UNL     1       3.367   3.003  20.409  0.00  0.00    +0.000 C 
ATOM      3  C   UNL     1       4.057   2.377  19.202  0.00  0.00    +0.000 C 
ATOM      4  C   UNL     1       2.932   1.607  18.509  0.00  0.00    +0.000 C 
ATOM      5  C   UNL     1       1.707   2.420  18.851  0.00  0.00    +0.000 C 
ATOM      6  O   UNL     1       0.647   2.376  18.248  0.00  0.00    +0.000 OA
ENDROOT
BRANCH   3   7
ATOM      7  C   UNL     1       4.661   3.454  18.310  0.00  0.00    +0.000 C 
ATOM      8  O   UNL     1       4.147   3.778  17.244  0.00  0.00    +0.000 OA
ATOM      9  N   UNL     1       5.790   4.068  18.811  0.00  0.00    +0.000 N 
ATOM     10  H   UNL     1       6.153   3.766  19.707  0.00  0.00    +0.000 HD
BRANCH   9  11
ATOM     11  C   UNL     1       6.525   5.126  18.092  0.00  0.00    +0.000 C 
ATOM     12  C   UNL     1       5.577   6.265  17.676  0.00  0.00    +0.000 C 
ATOM     13  C   UNL     1       7.594   5.715  19.030  0.00  0.00    +0.000 C 
ATOM     14  C   UNL     1       7.238   4.549  16.856  0.00  0.00    +0.000 C 
ENDBRANCH   9  11
ENDBRANCH   3   7
BRANCH   1  16
ATOM     15  C   UNL     1       1.873   5.565  20.575  0.00  0.00    +0.000 C 
ATOM     16  C   UNL     1       1.146   4.232  20.485  0.00  0.00    +0.000 C 
ENDBRANCH   1  16
TORSDOF 3
ENDMDL
MODEL 8
REMARK VINA RESULT:      -6.1      1.179      1.532
REMARK  Name = 
REMARK  7 active torsions:
REMARK  status: ('A' for Active; 'I' for Inactive)
REMARK    1  A    between atoms: C_1  and  C_2
REMARK    2  A    between atoms: C_2  and  N_3
REMARK    3  A    between atoms: C_5  and  C_6
REMARK    4  A    between atoms: N_8  and  C_9
REMARK    5  A    between atoms: C_9  and  C_10
REMARK    6  A    between atoms: C_9  and  C_11
REMARK    7  A    between atoms: C_9  and  C_12
REMARK                            x       y       z     vdW  Elec       q    Type
REMARK                         _______ _______ _______ _____ _____    ______ ____
ROOT
ATOM      1  N   UNL     1       2.086   3.054  20.084  0.00  0.00    +0.000 N 
ATOM      2  C   UNL     1       3.463   2.766  20.410  0.00  0.00    +0.000 C 
ATOM      3  C   UNL     1       4.047   2.263  19.094  0.00  0.00    +0.000 C 
ATOM      4  C   UNL     1       2.845   1.632  18.390  0.00  0.00    +0.000 C 
ATOM      5  C   UNL     1       1.685   2.448  18.907  0.00  0.00    +0.000 C 
ATOM      6  O   UNL     1       0.589   2.524  18.374  0.00  0.00    +0.000 OA
ENDROOT
BRANCH   3   7
ATOM      7  C   UNL     1       4.649   3.415  18.299  0.00  0.00    +0.000 C 
ATOM      8  O   UNL     1       4.121   3.846  17.278  0.00  0.00    +0.000 OA
ATOM      9  N   UNL     1       5.793   3.967  18.838  0.00  0.00    +0.000 N 
ATOM     10  H   UNL     1       6.166   3.577  19.695  0.00  0.00    +0.000 HD
BRANCH   9  11
ATOM     11  C   UNL     1       6.527   5.083  18.211  0.00  0.00    +0.000 C 
ATOM     12  C   UNL     1       7.239   4.619  16.929  0.00  0.00    +0.000 C 
ATOM     13  C   UNL     1       5.523   6.184  17.826  0.00  0.00    +0.000 C 
ATOM     14  C   UNL     1       7.544   5.686  19.196  0.00  0.00    +0.000 C 
ENDBRANCH   9  11
ENDBRANCH   3   7
BRANCH   1  16
ATOM     15  C   UNL     1       1.851   5.467  20.518  0.00  0.00    +0.000 C 
ATOM     16  C   UNL     1       1.315   4.068  20.780  0.00  0.00    +0.000 C 
ENDBRANCH   1  16
TORSDOF 3
ENDMDL
MODEL 9
REMARK VINA RESULT:      -6.1      1.991      5.212
REMARK  Name = 
REMARK  7 active torsions:
REMARK  status: ('A' for Active; 'I' for Inactive)
REMARK    1  A    between atoms: C_1  and  C_2
REMARK    2  A    between atoms: C_2  and  N_3
REMARK    3  A    between atoms: C_5  and  C_6
REMARK    4  A    between atoms: N_8  and  C_9
REMARK    5  A    between atoms: C_9  and  C_10
REMARK    6  A    between atoms: C_9  and  C_11
REMARK    7  A    between atoms: C_9  and  C_12
REMARK                            x       y       z     vdW  Elec       q    Type
REMARK                         _______ _______ _______ _____ _____    ______ ____
ROOT
ATOM      1  N   UNL     1       6.565   5.855  17.078  0.00  0.00    +0.000 N 
ATOM      2  C   UNL     1       5.253   6.082  16.518  0.00  0.00    +0.000 C 
ATOM      3  C   UNL     1       4.804   4.693  16.081  0.00  0.00    +0.000 C 
ATOM      4  C   UNL     1       6.117   3.980  15.756  0.00  0.00    +0.000 C 
ATOM      5  C   UNL     1       7.100   4.638  16.694  0.00  0.00    +0.000 C 
ATOM      6  O   UNL     1       8.178   4.170  17.021  0.00  0.00    +0.000 OA
ENDROOT
BRANCH   3   7
ATOM      7  C   UNL     1       4.028   4.003  17.197  0.00  0.00    +0.000 C 
ATOM      8  O   UNL     1       4.045   2.785  17.343  0.00  0.00    +0.000 OA
ATOM      9  N   UNL     1       3.354   4.849  18.054  0.00  0.00    +0.000 N 
ATOM     10  H   UNL     1       3.398   5.847  17.889  0.00  0.00    +0.000 HD
BRANCH   9  11
ATOM     11  C   UNL     1       2.540   4.372  19.188  0.00  0.00    +0.000 C 
ATOM     12  C   UNL     1       3.345   3.404  20.073  0.00  0.00    +0.000 C 
ATOM     13  C   UNL     1       2.135   5.581  20.051  0.00  0.00    +0.000 C 
ATOM     14  C   UNL     1       1.254   3.691  18.687  0.00  0.00    +0.000 C 
ENDBRANCH   9  11
ENDBRANCH   3   7
BRANCH   1  16
ATOM     15  C   UNL     1       7.781   7.944  17.553  0.00  0.00    +0.000 C 
ATOM     16  C   UNL     1       7.125   6.696  18.121  0.00  0.00    +0.000 C 
ENDBRANCH   1  16
TORSDOF 3
ENDMDL
