MODEL 1
REMARK VINA RESULT:      -8.2      0.000      0.000
REMARK  Name = 
REMARK  5 active torsions:
REMARK  status: ('A' for Active; 'I' for Inactive)
REMARK    1  A    between atoms: C_1  and  N_2
REMARK    2  A    between atoms: N_2  and  C_3
REMARK    3  A    between atoms: N_2  and  C_4
REMARK    4  A    between atoms: C_4  and  C_5
REMARK    5  A    between atoms: C_8  and  C_9
REMARK                            x       y       z     vdW  Elec       q    Type
REMARK                         _______ _______ _______ _____ _____    ______ ____
ROOT
ATOM      1  C   UNL     1       2.175   6.823  19.884  0.00  0.00    +0.000 A 
ATOM      2  N   UNL     1       3.261   6.750  19.007  0.00  0.00    +0.000 N 
ATOM      3  C   UNL     1       3.215   5.607  18.249  0.00  0.00    +0.000 A 
ATOM      4  C   UNL     1       4.086   5.045  17.316  0.00  0.00    +0.000 A 
ATOM      5  C   UNL     1       3.762   3.764  16.824  0.00  0.00    +0.000 A 
ATOM      6  C   UNL     1       2.621   3.068  17.236  0.00  0.00    +0.000 A 
ATOM      7  C   UNL     1       1.820   3.630  18.220  0.00  0.00    +0.000 A 
ATOM      8  C   UNL     1       2.101   4.922  18.681  0.00  0.00    +0.000 A 
ATOM      9  C   UNL     1       1.757   5.486  19.934  0.00  0.00    +0.000 A 
ATOM     10  C   UNL     1       1.556   4.401  20.952  0.00  0.00    +0.000 C 
ATOM     11  N   UNL     1       0.710   3.337  20.363  0.00  0.00    +0.000 N 
ATOM     12  C   UNL     1       0.886   2.841  19.071  0.00  0.00    +0.000 C 
ATOM     13  O   UNL     1       0.370   1.793  18.678  0.00  0.00    +0.000 OA
ATOM     14  H   UNL     1       3.951   7.478  18.896  0.00  0.00    +0.000 HD
ATOM     15  H   UNL     1       0.337   2.633  20.985  0.00  0.00    +0.000 HD
ENDROOT
BRANCH   1  19
ATOM     16  C   UNL     1       0.136  10.585  20.813  0.00  0.00    +0.000 A 
ATOM     17  C   UNL     1       0.657  10.321  19.547  0.00  0.00    +0.000 A 
ATOM     18  C   UNL     1       1.369   9.129  19.286  0.00  0.00    +0.000 A 
ATOM     19  C   UNL     1       1.620   8.151  20.277  0.00  0.00    +0.000 A 
ATOM     20  C   UNL     1       1.159   8.456  21.562  0.00  0.00    +0.000 A 
ATOM     21  C   UNL     1       0.439   9.653  21.825  0.00  0.00    +0.000 A 
BRANCH  16  22
ATOM     22  C   UNL     1      -0.664  11.850  21.142  0.00  0.00    +0.000 C 
BRANCH  22  24
ATOM     23  C   UNL     1       0.489  13.953  21.646  0.00  0.00    +0.000 C 
ATOM     24  N   UNL     1      -0.133  12.748  22.199  0.00  0.00    +0.000 NA
ATOM     25  C   UNL     1      -1.231  13.172  23.091  0.00  0.00    +0.000 C 
ENDBRANCH  22  24
ENDBRANCH  16  22
ENDBRANCH   1  19
TORSDOF 3
ENDMDL
MODEL 2
REMARK VINA RESULT:      -8.0      0.898      1.201
REMARK  Name = 
REMARK  5 active torsions:
REMARK  status: ('A' for Active; 'I' for Inactive)
REMARK    1  A    between atoms: C_1  and  N_2
REMARK    2  A    between atoms: N_2  and  C_3
REMARK    3  A    between atoms: N_2  and  C_4
REMARK    4  A    between atoms: C_4  and  C_5
REMARK    5  A    between atoms: C_8  and  C_9
REMARK                            x       y       z     vdW  Elec       q    Type
REMARK                         _______ _______ _______ _____ _____    ______ ____
ROOT
ATOM      1  C   UNL     1       2.190   6.803  19.854  0.00  0.00    +0.000 A 
ATOM      2  N   UNL     1       3.319   6.718  19.034  0.00  0.00    +0.000 N 
ATOM      3  C   UNL     1       3.284   5.590  18.253  0.00  0.00    +0.000 A 
ATOM      4  C   UNL     1       4.190   5.022  17.356  0.00  0.00    +0.000 A 
ATOM      5  C   UNL     1       3.861   3.759  16.824  0.00  0.00    +0.000 A 
ATOM      6  C   UNL     1       2.683   3.085  17.164  0.00  0.00    +0.000 A 
ATOM      7  C   UNL     1       1.845   3.650  18.114  0.00  0.00    +0.000 A 
ATOM      8  C   UNL     1       2.133   4.927  18.614  0.00  0.00    +0.000 A 
ATOM      9  C   UNL     1       1.737   5.476  19.857  0.00  0.00    +0.000 A 
ATOM     10  C   UNL     1       1.457   4.380  20.843  0.00  0.00    +0.000 C 
ATOM     11  N   UNL     1       0.617   3.347  20.191  0.00  0.00    +0.000 N 
ATOM     12  C   UNL     1       0.849   2.870  18.900  0.00  0.00    +0.000 C 
ATOM     13  O   UNL     1       0.329   1.843  18.462  0.00  0.00    +0.000 OA
ATOM     14  H   UNL     1       4.031   7.430  18.973  0.00  0.00    +0.000 HD
ATOM     15  H   UNL     1       0.195   2.642  20.779  0.00  0.00    +0.000 HD
ENDROOT
BRANCH   1  19
ATOM     16  C   UNL     1       0.188  10.589  20.766  0.00  0.00    +0.000 A 
ATOM     17  C   UNL     1       0.717  10.319  19.505  0.00  0.00    +0.000 A 
ATOM     18  C   UNL     1       1.417   9.119  19.250  0.00  0.00    +0.000 A 
ATOM     19  C   UNL     1       1.648   8.138  20.243  0.00  0.00    +0.000 A 
ATOM     20  C   UNL     1       1.179   8.448  21.523  0.00  0.00    +0.000 A 
ATOM     21  C   UNL     1       0.471   9.654  21.780  0.00  0.00    +0.000 A 
BRANCH  16  22
ATOM     22  C   UNL     1      -0.599  11.864  21.088  0.00  0.00    +0.000 C 
BRANCH  22  24
ATOM     23  C   UNL     1      -2.794  12.672  20.354  0.00  0.00    +0.000 C 
ATOM     24  N   UNL     1      -1.386  12.485  19.993  0.00  0.00    +0.000 NA
ATOM     25  C   UNL     1      -0.824  13.810  19.662  0.00  0.00    +0.000 C 
ENDBRANCH  22  24
ENDBRANCH  16  22
ENDBRANCH   1  19
TORSDOF 3
ENDMDL
MODEL 3
REMARK VINA RESULT:      -7.9      1.653      2.234
REMARK  Name = 
REMARK  5 active torsions:
REMARK  status: ('A' for Active; 'I' for Inactive)
REMARK    1  A    between atoms: C_1  and  N_2
REMARK    2  A    between atoms: N_2  and  C_3
REMARK    3  A    between atoms: N_2  and  C_4
REMARK    4  A    between atoms: C_4  and  C_5
REMARK    5  A    between atoms: C_8  and  C_9
REMARK                            x       y       z     vdW  Elec       q    Type
REMARK                         _______ _______ _______ _____ _____    ______ ____
ROOT
ATOM      1  C   UNL     1       3.115   7.036  18.582  0.00  0.00    +0.000 A 
ATOM      2  N   UNL     1       4.019   7.381  17.574  0.00  0.00    +0.000 N 
ATOM      3  C   UNL     1       4.415   6.279  16.859  0.00  0.00    +0.000 A 
ATOM      4  C   UNL     1       5.344   6.088  15.836  0.00  0.00    +0.000 A 
ATOM      5  C   UNL     1       5.585   4.761  15.425  0.00  0.00    +0.000 A 
ATOM      6  C   UNL     1       4.931   3.667  16.001  0.00  0.00    +0.000 A 
ATOM      7  C   UNL     1       4.069   3.893  17.065  0.00  0.00    +0.000 A 
ATOM      8  C   UNL     1       3.783   5.209  17.451  0.00  0.00    +0.000 A 
ATOM      9  C   UNL     1       3.354   5.661  18.722  0.00  0.00    +0.000 A 
ATOM     10  C   UNL     1       3.771   4.689  19.786  0.00  0.00    +0.000 C 
ATOM     11  N   UNL     1       3.441   3.315  19.342  0.00  0.00    +0.000 N 
ATOM     12  C   UNL     1       3.686   2.844  18.051  0.00  0.00    +0.000 C 
ATOM     13  O   UNL     1       3.661   1.648  17.757  0.00  0.00    +0.000 OA
ATOM     14  H   UNL     1       4.291   8.328  17.355  0.00  0.00    +0.000 HD
ATOM     15  H   UNL     1       3.492   2.572  20.026  0.00  0.00    +0.000 HD
ENDROOT
BRANCH   1  19
ATOM     16  C   UNL     1       0.383  10.103  20.098  0.00  0.00    +0.000 A 
ATOM     17  C   UNL     1       0.780   9.018  20.878  0.00  0.00    +0.000 A 
ATOM     18  C   UNL     1       1.609   8.005  20.348  0.00  0.00    +0.000 A 
ATOM     19  C   UNL     1       2.065   8.007  19.009  0.00  0.00    +0.000 A 
ATOM     20  C   UNL     1       1.603   9.059  18.212  0.00  0.00    +0.000 A 
ATOM     21  C   UNL     1       0.772  10.081  18.745  0.00  0.00    +0.000 A 
BRANCH  16  22
ATOM     22  C   UNL     1      -0.496  11.240  20.631  0.00  0.00    +0.000 C 
BRANCH  22  24
ATOM     23  C   UNL     1      -0.236  13.249  22.012  0.00  0.00    +0.000 C 
ATOM     24  N   UNL     1      -0.180  11.785  21.976  0.00  0.00    +0.000 NA
ATOM     25  C   UNL     1      -1.150  11.269  22.963  0.00  0.00    +0.000 C 
ENDBRANCH  22  24
ENDBRANCH  16  22
ENDBRANCH   1  19
TORSDOF 3
ENDMDL
MODEL 4
REMARK VINA RESULT:      -7.8      1.206      1.356
REMARK  Name = 
REMARK  5 active torsions:
REMARK  status: ('A' for Active; 'I' for Inactive)
REMARK    1  A    between atoms: C_1  and  N_2
REMARK    2  A    between atoms: N_2  and  C_3
REMARK    3  A    between atoms: N_2  and  C_4
REMARK    4  A    between atoms: C_4  and  C_5
REMARK    5  A    between atoms: C_8  and  C_9
REMARK                            x       y       z     vdW  Elec       q    Type
REMARK                         _______ _______ _______ _____ _____    ______ ____
ROOT
ATOM      1  C   UNL     1       2.336   6.856  19.417  0.00  0.00    +0.000 A 
ATOM      2  N   UNL     1       3.463   6.609  18.627  0.00  0.00    +0.000 N 
ATOM      3  C   UNL     1       3.391   5.377  18.026  0.00  0.00    +0.000 A 
ATOM      4  C   UNL     1       4.278   4.650  17.232  0.00  0.00    +0.000 A 
ATOM      5  C   UNL     1       3.907   3.332  16.895  0.00  0.00    +0.000 A 
ATOM      6  C   UNL     1       2.706   2.758  17.324  0.00  0.00    +0.000 A 
ATOM      7  C   UNL     1       1.886   3.489  18.172  0.00  0.00    +0.000 A 
ATOM      8  C   UNL     1       2.217   4.816  18.474  0.00  0.00    +0.000 A 
ATOM      9  C   UNL     1       1.838   5.561  19.617  0.00  0.00    +0.000 A 
ATOM     10  C   UNL     1       1.517   4.637  20.755  0.00  0.00    +0.000 C 
ATOM     11  N   UNL     1       0.644   3.546  20.261  0.00  0.00    +0.000 N 
ATOM     12  C   UNL     1       0.862   2.872  19.060  0.00  0.00    +0.000 C 
ATOM     13  O   UNL     1       0.307   1.808  18.778  0.00  0.00    +0.000 OA
ATOM     14  H   UNL     1       4.200   7.279  18.464  0.00  0.00    +0.000 HD
ATOM     15  H   UNL     1       0.195   2.954  20.947  0.00  0.00    +0.000 HD
ENDROOT
BRANCH   1  19
ATOM     16  C   UNL     1       0.501  10.824  19.660  0.00  0.00    +0.000 A 
ATOM     17  C   UNL     1       1.195  10.400  18.528  0.00  0.00    +0.000 A 
ATOM     18  C   UNL     1       1.836   9.142  18.495  0.00  0.00    +0.000 A 
ATOM     19  C   UNL     1       1.840   8.252  19.595  0.00  0.00    +0.000 A 
ATOM     20  C   UNL     1       1.204   8.714  20.752  0.00  0.00    +0.000 A 
ATOM     21  C   UNL     1       0.555   9.978  20.785  0.00  0.00    +0.000 A 
BRANCH  16  22
ATOM     22  C   UNL     1      -0.231  12.167  19.738  0.00  0.00    +0.000 C 
BRANCH  22  24
ATOM     23  C   UNL     1      -0.372  14.551  19.185  0.00  0.00    +0.000 C 
ATOM     24  N   UNL     1       0.503  13.381  19.300  0.00  0.00    +0.000 NA
ATOM     25  C   UNL     1       1.564  13.703  20.275  0.00  0.00    +0.000 C 
ENDBRANCH  22  24
ENDBRANCH  16  22
ENDBRANCH   1  19
TORSDOF 3
ENDMDL
MODEL 5
REMARK VINA RESULT:      -7.8      0.897      1.423
REMARK  Name = 
REMARK  5 active torsions:
REMARK  status: ('A' for Active; 'I' for Inactive)
REMARK    1  A    between atoms: C_1  and  N_2
REMARK    2  A    between atoms: N_2  and  C_3
REMARK    3  A    between atoms: N_2  and  C_4
REMARK    4  A    between atoms: C_4  and  C_5
REMARK    5  A    between atoms: C_8  and  C_9
REMARK                            x       y       z     vdW  Elec       q    Type
REMARK                         _______ _______ _______ _____ _____    ______ ____
ROOT
ATOM      1  C   UNL     1       2.159   6.980  19.445  0.00  0.00    +0.000 A 
ATOM      2  N   UNL     1       3.287   6.808  18.637  0.00  0.00    +0.000 N 
ATOM      3  C   UNL     1       3.279   5.582  18.022  0.00  0.00    +0.000 A 
ATOM      4  C   UNL     1       4.195   4.916  17.208  0.00  0.00    +0.000 A 
ATOM      5  C   UNL     1       3.897   3.583  16.860  0.00  0.00    +0.000 A 
ATOM      6  C   UNL     1       2.738   2.934  17.299  0.00  0.00    +0.000 A 
ATOM      7  C   UNL     1       1.889   3.607  18.167  0.00  0.00    +0.000 A 
ATOM      8  C   UNL     1       2.146   4.947  18.481  0.00  0.00    +0.000 A 
ATOM      9  C   UNL     1       1.741   5.656  19.637  0.00  0.00    +0.000 A 
ATOM     10  C   UNL     1       1.492   4.701  20.769  0.00  0.00    +0.000 C 
ATOM     11  N   UNL     1       0.677   3.567  20.274  0.00  0.00    +0.000 N 
ATOM     12  C   UNL     1       0.916   2.920  19.062  0.00  0.00    +0.000 C 
ATOM     13  O   UNL     1       0.420   1.829  18.775  0.00  0.00    +0.000 OA
ATOM     14  H   UNL     1       3.981   7.522  18.472  0.00  0.00    +0.000 HD
ATOM     15  H   UNL     1       0.274   2.942  20.958  0.00  0.00    +0.000 HD
ENDROOT
BRANCH   1  19
ATOM     16  C   UNL     1       0.886  11.085  20.280  0.00  0.00    +0.000 A 
ATOM     17  C   UNL     1       0.836  10.085  21.250  0.00  0.00    +0.000 A 
ATOM     18  C   UNL     1       1.189   8.753  20.942  0.00  0.00    +0.000 A 
ATOM     19  C   UNL     1       1.585   8.342  19.647  0.00  0.00    +0.000 A 
ATOM     20  C   UNL     1       1.562   9.335  18.662  0.00  0.00    +0.000 A 
ATOM     21  C   UNL     1       1.211  10.677  18.972  0.00  0.00    +0.000 A 
BRANCH  16  22
ATOM     22  C   UNL     1       0.537  12.549  20.568  0.00  0.00    +0.000 C 
BRANCH  22  24
ATOM     23  C   UNL     1       2.675  13.745  20.665  0.00  0.00    +0.000 C 
ATOM     24  N   UNL     1       1.480  13.333  21.406  0.00  0.00    +0.000 NA
ATOM     25  C   UNL     1       0.811  14.551  21.904  0.00  0.00    +0.000 C 
ENDBRANCH  22  24
ENDBRANCH  16  22
ENDBRANCH   1  19
TORSDOF 3
ENDMDL
MODEL 6
REMARK VINA RESULT:      -7.7      2.032      2.677
REMARK  Name = 
REMARK  5 active torsions:
REMARK  status: ('A' for Active; 'I' for Inactive)
REMARK    1  A    between atoms: C_1  and  N_2
REMARK    2  A    between atoms: N_2  and  C_3
REMARK    3  A    between atoms: N_2  and  C_4
REMARK    4  A    between atoms: C_4  and  C_5
REMARK    5  A    between atoms: C_8  and  C_9
REMARK                            x       y       z     vdW  Elec       q    Type
REMARK                         _______ _______ _______ _____ _____    ______ ____
ROOT
ATOM      1  C   UNL     1       3.209   6.961  18.422  0.00  0.00    +0.000 A 
ATOM      2  N   UNL     1       4.150   7.260  17.433  0.00  0.00    +0.000 N 
ATOM      3  C   UNL     1       4.561   6.127  16.776  0.00  0.00    +0.000 A 
ATOM      4  C   UNL     1       5.523   5.890  15.795  0.00  0.00    +0.000 A 
ATOM      5  C   UNL     1       5.766   4.546  15.445  0.00  0.00    +0.000 A 
ATOM      6  C   UNL     1       5.083   3.480  16.040  0.00  0.00    +0.000 A 
ATOM      7  C   UNL     1       4.187   3.754  17.063  0.00  0.00    +0.000 A 
ATOM      8  C   UNL     1       3.899   5.086  17.387  0.00  0.00    +0.000 A 
ATOM      9  C   UNL     1       3.430   5.591  18.624  0.00  0.00    +0.000 A 
ATOM     10  C   UNL     1       3.802   4.659  19.739  0.00  0.00    +0.000 C 
ATOM     11  N   UNL     1       3.475   3.270  19.337  0.00  0.00    +0.000 N 
ATOM     12  C   UNL     1       3.761   2.748  18.076  0.00  0.00    +0.000 C 
ATOM     13  O   UNL     1       3.736   1.541  17.828  0.00  0.00    +0.000 OA
ATOM     14  H   UNL     1       4.437   8.195  17.187  0.00  0.00    +0.000 HD
ATOM     15  H   UNL     1       3.497   2.555  20.051  0.00  0.00    +0.000 HD
ENDROOT
BRANCH   1  19
ATOM     16  C   UNL     1       0.458  10.121  19.697  0.00  0.00    +0.000 A 
ATOM     17  C   UNL     1       0.866   9.105  20.560  0.00  0.00    +0.000 A 
ATOM     18  C   UNL     1       1.701   8.058  20.111  0.00  0.00    +0.000 A 
ATOM     19  C   UNL     1       2.153   7.956  18.773  0.00  0.00    +0.000 A 
ATOM     20  C   UNL     1       1.681   8.937  17.896  0.00  0.00    +0.000 A 
ATOM     21  C   UNL     1       0.843   9.993  18.348  0.00  0.00    +0.000 A 
BRANCH  16  22
ATOM     22  C   UNL     1      -0.426  11.291  20.140  0.00  0.00    +0.000 C 
BRANCH  22  24
ATOM     23  C   UNL     1      -2.485  11.896  18.955  0.00  0.00    +0.000 C 
ATOM     24  N   UNL     1      -1.044  12.130  19.082  0.00  0.00    +0.000 NA
ATOM     25  C   UNL     1      -0.843  13.559  19.397  0.00  0.00    +0.000 C 
ENDBRANCH  22  24
ENDBRANCH  16  22
ENDBRANCH   1  19
TORSDOF 3
ENDMDL
MODEL 7
REMARK VINA RESULT:      -7.7      0.531      1.203
REMARK  Name = 
REMARK  5 active torsions:
REMARK  status: ('A' for Active; 'I' for Inactive)
REMARK    1  A    between atoms: C_1  and  N_2
REMARK    2  A    between atoms: N_2  and  C_3
REMARK    3  A    between atoms: N_2  and  C_4
REMARK    4  A    between atoms: C_4  and  C_5
REMARK    5  A    between atoms: C_8  and  C_9
REMARK                            x       y       z     vdW  Elec       q    Type
REMARK                         _______ _______ _______ _____ _____    ______ ____
ROOT
ATOM      1  C   UNL     1       2.076   6.931  19.702  0.00  0.00    +0.000 A 
ATOM      2  N   UNL     1       3.192   6.855  18.864  0.00  0.00    +0.000 N 
ATOM      3  C   UNL     1       3.205   5.680  18.154  0.00  0.00    +0.000 A 
ATOM      4  C   UNL     1       4.123   5.107  17.275  0.00  0.00    +0.000 A 
ATOM      5  C   UNL     1       3.854   3.797  16.829  0.00  0.00    +0.000 A 
ATOM      6  C   UNL     1       2.721   3.083  17.234  0.00  0.00    +0.000 A 
ATOM      7  C   UNL     1       1.871   3.662  18.166  0.00  0.00    +0.000 A 
ATOM      8  C   UNL     1       2.098   4.981  18.580  0.00  0.00    +0.000 A 
ATOM      9  C   UNL     1       1.696   5.585  19.796  0.00  0.00    +0.000 A 
ATOM     10  C   UNL     1       1.493   4.539  20.853  0.00  0.00    +0.000 C 
ATOM     11  N   UNL     1       0.700   3.425  20.284  0.00  0.00    +0.000 N 
ATOM     12  C   UNL     1       0.933   2.881  19.021  0.00  0.00    +0.000 C 
ATOM     13  O   UNL     1       0.462   1.802  18.657  0.00  0.00    +0.000 OA
ATOM     14  H   UNL     1       3.864   7.599  18.744  0.00  0.00    +0.000 HD
ATOM     15  H   UNL     1       0.327   2.736  20.924  0.00  0.00    +0.000 HD
ENDROOT
BRANCH   1  19
ATOM     16  C   UNL     1       0.721  10.933  20.852  0.00  0.00    +0.000 A 
ATOM     17  C   UNL     1       0.781   9.883  21.766  0.00  0.00    +0.000 A 
ATOM     18  C   UNL     1       1.157   8.584  21.361  0.00  0.00    +0.000 A 
ATOM     19  C   UNL     1       1.470   8.257  20.020  0.00  0.00    +0.000 A 
ATOM     20  C   UNL     1       1.337   9.298  19.095  0.00  0.00    +0.000 A 
ATOM     21  C   UNL     1       0.962  10.607  19.503  0.00  0.00    +0.000 A 
BRANCH  16  22
ATOM     22  C   UNL     1       0.343  12.365  21.245  0.00  0.00    +0.000 C 
BRANCH  22  24
ATOM     23  C   UNL     1      -0.799  13.813  22.859  0.00  0.00    +0.000 C 
ATOM     24  N   UNL     1      -0.845  12.551  22.116  0.00  0.00    +0.000 NA
ATOM     25  C   UNL     1      -2.072  12.553  21.295  0.00  0.00    +0.000 C 
ENDBRANCH  22  24
ENDBRANCH  16  22
ENDBRANCH   1  19
TORSDOF 3
ENDMDL
MODEL 8
REMARK VINA RESULT:      -7.6      1.363      1.915
REMARK  Name = 
REMARK  5 active torsions:
REMARK  status: ('A' for Active; 'I' for Inactive)
REMARK    1  A    between atoms: C_1  and  N_2
REMARK    2  A    between atoms: N_2  and  C_3
REMARK    3  A    between atoms: N_2  and  C_4
REMARK    4  A    between atoms: C_4  and  C_5
REMARK    5  A    between atoms: C_8  and  C_9
REMARK                            x       y       z     vdW  Elec       q    Type
REMARK                         _______ _______ _______ _____ _____    ______ ____
ROOT
ATOM      1  C   UNL     1       2.299   7.065  19.071  0.00  0.00    +0.000 A 
ATOM      2  N   UNL     1       3.434   6.783  18.306  0.00  0.00    +0.000 N 
ATOM      3  C   UNL     1       3.398   5.502  17.813  0.00  0.00    +0.000 A 
ATOM      4  C   UNL     1       4.307   4.734  17.085  0.00  0.00    +0.000 A 
ATOM      5  C   UNL     1       3.973   3.383  16.863  0.00  0.00    +0.000 A 
ATOM      6  C   UNL     1       2.787   2.814  17.339  0.00  0.00    +0.000 A 
ATOM      7  C   UNL     1       1.945   3.593  18.120  0.00  0.00    +0.000 A 
ATOM      8  C   UNL     1       2.238   4.949  18.307  0.00  0.00    +0.000 A 
ATOM      9  C   UNL     1       1.835   5.779  19.382  0.00  0.00    +0.000 A 
ATOM     10  C   UNL     1       1.537   4.948  20.595  0.00  0.00    +0.000 C 
ATOM     11  N   UNL     1       0.695   3.795  20.196  0.00  0.00    +0.000 N 
ATOM     12  C   UNL     1       0.935   3.026  19.058  0.00  0.00    +0.000 C 
ATOM     13  O   UNL     1       0.411   1.927  18.868  0.00  0.00    +0.000 OA
ATOM     14  H   UNL     1       4.152   7.456  18.087  0.00  0.00    +0.000 HD
ATOM     15  H   UNL     1       0.261   3.252  20.930  0.00  0.00    +0.000 HD
ENDROOT
BRANCH   1  19
ATOM     16  C   UNL     1       1.094  11.248  19.549  0.00  0.00    +0.000 A 
ATOM     17  C   UNL     1       0.817  10.284  20.518  0.00  0.00    +0.000 A 
ATOM     18  C   UNL     1       1.155   8.928  20.315  0.00  0.00    +0.000 A 
ATOM     19  C   UNL     1       1.764   8.458  19.128  0.00  0.00    +0.000 A 
ATOM     20  C   UNL     1       1.973   9.416  18.131  0.00  0.00    +0.000 A 
ATOM     21  C   UNL     1       1.636  10.782  18.336  0.00  0.00    +0.000 A 
BRANCH  16  22
ATOM     22  C   UNL     1       0.770  12.734  19.731  0.00  0.00    +0.000 C 
BRANCH  22  24
ATOM     23  C   UNL     1      -1.665  13.018  19.673  0.00  0.00    +0.000 C 
ATOM     24  N   UNL     1      -0.395  13.283  18.990  0.00  0.00    +0.000 NA
ATOM     25  C   UNL     1      -0.253  14.746  18.848  0.00  0.00    +0.000 C 
ENDBRANCH  22  24
ENDBRANCH  16  22
ENDBRANCH   1  19
TORSDOF 3
ENDMDL
MODEL 9
REMARK VINA RESULT:      -7.6      2.216      2.756
REMARK  Name = 
REMARK  5 active torsions:
REMARK  status: ('A' for Active; 'I' for Inactive)
REMARK    1  A    between atoms: C_1  and  N_2
REMARK    2  A    between atoms: N_2  and  C_3
REMARK    3  A    between atoms: N_2  and  C_4
REMARK    4  A    between atoms: C_4  and  C_5
REMARK    5  A    between atoms: C_8  and  C_9
REMARK                            x       y       z     vdW  Elec       q    Type
REMARK                         _______ _______ _______ _____ _____    ______ ____
ROOT
ATOM      1  C   UNL     1       3.055   7.212  18.544  0.00  0.00    +0.000 A 
ATOM      2  N   UNL     1       4.083   7.449  17.628  0.00  0.00    +0.000 N 
ATOM      3  C   UNL     1       4.447   6.298  16.976  0.00  0.00    +0.000 A 
ATOM      4  C   UNL     1       5.453   5.998  16.058  0.00  0.00    +0.000 A 
ATOM      5  C   UNL     1       5.612   4.645  15.696  0.00  0.00    +0.000 A 
ATOM      6  C   UNL     1       4.807   3.628  16.221  0.00  0.00    +0.000 A 
ATOM      7  C   UNL     1       3.867   3.958  17.187  0.00  0.00    +0.000 A 
ATOM      8  C   UNL     1       3.664   5.304  17.519  0.00  0.00    +0.000 A 
ATOM      9  C   UNL     1       3.152   5.826  18.731  0.00  0.00    +0.000 A 
ATOM     10  C   UNL     1       3.370   4.849  19.850  0.00  0.00    +0.000 C 
ATOM     11  N   UNL     1       2.964   3.498  19.397  0.00  0.00    +0.000 N 
ATOM     12  C   UNL     1       3.294   2.974  18.147  0.00  0.00    +0.000 C 
ATOM     13  O   UNL     1       3.190   1.777  17.873  0.00  0.00    +0.000 OA
ATOM     14  H   UNL     1       4.460   8.362  17.421  0.00  0.00    +0.000 HD
ATOM     15  H   UNL     1       2.879   2.772  20.096  0.00  0.00    +0.000 HD
ENDROOT
BRANCH   1  19
ATOM     16  C   UNL     1      -0.192  10.080  19.182  0.00  0.00    +0.000 A 
ATOM     17  C   UNL     1       0.472   9.977  17.960  0.00  0.00    +0.000 A 
ATOM     18  C   UNL     1       1.560   9.091  17.795  0.00  0.00    +0.000 A 
ATOM     19  C   UNL     1       2.059   8.283  18.844  0.00  0.00    +0.000 A 
ATOM     20  C   UNL     1       1.436   8.445  20.085  0.00  0.00    +0.000 A 
ATOM     21  C   UNL     1       0.338   9.333  20.251  0.00  0.00    +0.000 A 
BRANCH  16  22
ATOM     22  C   UNL     1      -1.392  11.006  19.407  0.00  0.00    +0.000 C 
BRANCH  22  24
ATOM     23  C   UNL     1      -2.858   9.830  17.833  0.00  0.00    +0.000 C 
ATOM     24  N   UNL     1      -2.383  11.132  18.308  0.00  0.00    +0.000 NA
ATOM     25  C   UNL     1      -3.554  11.899  18.777  0.00  0.00    +0.000 C 
ENDBRANCH  22  24
ENDBRANCH  16  22
ENDBRANCH   1  19
TORSDOF 3
ENDMDL
