MODEL 1
REMARK VINA RESULT:      -8.1      0.000      0.000
REMARK  Name = 
REMARK  6 active torsions:
REMARK  status: ('A' for Active; 'I' for Inactive)
REMARK    1  A    between atoms: C_1  and  C_2
REMARK    2  A    between atoms: C_5  and  C_6
REMARK    3  A    between atoms: C_7  and  C_8
REMARK    4  A    between atoms: C_13  and  C_14
REMARK    5  A    between atoms: C_13  and  C_15
REMARK    6  A    between atoms: C_18  and  O_19
REMARK                            x       y       z     vdW  Elec       q    Type
REMARK                         _______ _______ _______ _____ _____    ______ ____
ROOT
ATOM      1  C   UNL     1       4.901   4.510  16.470  0.00  0.00    +0.000 C 
ATOM      2  C   UNL     1       5.653   5.119  17.362  0.00  0.00    +0.000 C 
ATOM      3  C   UNL     1       5.389   4.853  18.770  0.00  0.00    +0.000 C 
ATOM      4  O   UNL     1       5.815   3.913  19.409  0.00  0.00    +0.000 OA
ATOM      5  N   UNL     1       4.277   5.588  19.102  0.00  0.00    +0.000 N 
ATOM      6  C   UNL     1       3.045   4.935  18.709  0.00  0.00    +0.000 C 
ATOM      7  C   UNL     1       1.534   4.754  18.383  0.00  0.00    +0.000 C 
ATOM      8  C   UNL     1       3.582   4.089  17.171  0.00  0.00    +0.000 C 
ATOM      9  H   UNL     1       4.351   6.528  18.697  0.00  0.00    +0.000 HD
ENDROOT
BRANCH   1  14
ATOM     10  C   UNL     1       7.552   4.374  11.188  0.00  0.00    +0.000 C 
ATOM     11  C   UNL     1       7.012   4.315  12.602  0.00  0.00    +0.000 A 
ATOM     12  C   UNL     1       7.585   4.993  13.680  0.00  0.00    +0.000 A 
ATOM     13  C   UNL     1       7.004   4.938  14.997  0.00  0.00    +0.000 A 
ATOM     14  C   UNL     1       5.834   4.179  15.302  0.00  0.00    +0.000 A 
ATOM     15  C   UNL     1       5.295   3.508  14.181  0.00  0.00    +0.000 A 
ATOM     16  C   UNL     1       5.851   3.588  12.873  0.00  0.00    +0.000 A 
ENDBRANCH   1  14
BRANCH   6  17
ATOM     17  C   UNL     1       2.430   6.376  19.412  0.00  0.00    +0.000 A 
ATOM     18  C   UNL     1       1.815   6.432  20.672  0.00  0.00    +0.000 A 
ATOM     19  C   UNL     1       1.225   7.639  21.141  0.00  0.00    +0.000 A 
ATOM     20  C   UNL     1       1.225   8.781  20.330  0.00  0.00    +0.000 A 
ATOM     21  C   UNL     1       1.783   8.752  19.060  0.00  0.00    +0.000 A 
ATOM     22  C   UNL     1       2.383   7.565  18.594  0.00  0.00    +0.000 A 
BRANCH  20  23
ATOM     23  O   UNL     1       0.654   9.949  20.751  0.00  0.00    +0.000 OA
ATOM     24  H   UNL     1      -0.156  10.114  20.239  0.00  0.00    +0.000 HD
ENDBRANCH  20  23
ENDBRANCH   6  17
BRANCH   2  25
ATOM     25  C   UNL     1       6.268   6.490  17.140  0.00  0.00    +0.000 C 
ATOM     26  N   UNL     1       6.779   7.630  16.956  0.00  0.00    +0.000 NA
ENDBRANCH   2  25
TORSDOF 4
ENDMDL
MODEL 2
REMARK VINA RESULT:      -7.8      0.264      1.024
REMARK  Name = 
REMARK  6 active torsions:
REMARK  status: ('A' for Active; 'I' for Inactive)
REMARK    1  A    between atoms: C_1  and  C_2
REMARK    2  A    between atoms: C_5  and  C_6
REMARK    3  A    between atoms: C_7  and  C_8
REMARK    4  A    between atoms: C_13  and  C_14
REMARK    5  A    between atoms: C_13  and  C_15
REMARK    6  A    between atoms: C_18  and  O_19
REMARK                            x       y       z     vdW  Elec       q    Type
REMARK                         _______ _______ _______ _____ _____    ______ ____
ROOT
ATOM      1  C   UNL     1       4.881   4.394  16.347  0.00  0.00    +0.000 C 
ATOM      2  C   UNL     1       5.592   5.062  17.229  0.00  0.00    +0.000 C 
ATOM      3  C   UNL     1       5.339   4.807  18.642  0.00  0.00    +0.000 C 
ATOM      4  O   UNL     1       5.816   3.905  19.299  0.00  0.00    +0.000 OA
ATOM      5  N   UNL     1       4.184   5.482  18.956  0.00  0.00    +0.000 N 
ATOM      6  C   UNL     1       2.994   4.751  18.571  0.00  0.00    +0.000 C 
ATOM      7  C   UNL     1       1.497   4.476  18.243  0.00  0.00    +0.000 C 
ATOM      8  C   UNL     1       3.586   3.909  17.051  0.00  0.00    +0.000 C 
ATOM      9  H   UNL     1       4.205   6.417  18.534  0.00  0.00    +0.000 HD
ENDROOT
BRANCH   1  14
ATOM     10  C   UNL     1       7.619   4.391  11.108  0.00  0.00    +0.000 C 
ATOM     11  C   UNL     1       7.057   4.298  12.511  0.00  0.00    +0.000 A 
ATOM     12  C   UNL     1       7.604   4.962  13.611  0.00  0.00    +0.000 A 
ATOM     13  C   UNL     1       7.002   4.875  14.917  0.00  0.00    +0.000 A 
ATOM     14  C   UNL     1       5.838   4.097  15.188  0.00  0.00    +0.000 A 
ATOM     15  C   UNL     1       5.325   3.441  14.046  0.00  0.00    +0.000 A 
ATOM     16  C   UNL     1       5.901   3.552  12.749  0.00  0.00    +0.000 A 
ENDBRANCH   1  14
BRANCH   6  17
ATOM     17  C   UNL     1       2.292   6.166  19.245  0.00  0.00    +0.000 A 
ATOM     18  C   UNL     1       2.301   7.421  18.617  0.00  0.00    +0.000 A 
ATOM     19  C   UNL     1       1.802   8.573  19.286  0.00  0.00    +0.000 A 
ATOM     20  C   UNL     1       1.324   8.470  20.598  0.00  0.00    +0.000 A 
ATOM     21  C   UNL     1       1.341   7.256  21.269  0.00  0.00    +0.000 A 
ATOM     22  C   UNL     1       1.819   6.107  20.609  0.00  0.00    +0.000 A 
BRANCH  20  23
ATOM     23  O   UNL     1       0.851   9.564  21.268  0.00  0.00    +0.000 OA
ATOM     24  H   UNL     1       0.081   9.306  21.801  0.00  0.00    +0.000 HD
ENDBRANCH  20  23
ENDBRANCH   6  17
BRANCH   2  25
ATOM     25  C   UNL     1       6.128   6.463  16.984  0.00  0.00    +0.000 C 
ATOM     26  N   UNL     1       6.572   7.626  16.781  0.00  0.00    +0.000 NA
ENDBRANCH   2  25
TORSDOF 4
ENDMDL
MODEL 3
REMARK VINA RESULT:      -7.3      3.493      5.840
REMARK  Name = 
REMARK  6 active torsions:
REMARK  status: ('A' for Active; 'I' for Inactive)
REMARK    1  A    between atoms: C_1  and  C_2
REMARK    2  A    between atoms: C_5  and  C_6
REMARK    3  A    between atoms: C_7  and  C_8
REMARK    4  A    between atoms: C_13  and  C_14
REMARK    5  A    between atoms: C_13  and  C_15
REMARK    6  A    between atoms: C_18  and  O_19
REMARK                            x       y       z     vdW  Elec       q    Type
REMARK                         _______ _______ _______ _____ _____    ______ ____
ROOT
ATOM      1  C   UNL     1       6.969   7.871  17.775  0.00  0.00    +0.000 C 
ATOM      2  C   UNL     1       7.482   6.659  17.766  0.00  0.00    +0.000 C 
ATOM      3  C   UNL     1       6.943   5.698  16.812  0.00  0.00    +0.000 C 
ATOM      4  O   UNL     1       7.276   5.586  15.651  0.00  0.00    +0.000 OA
ATOM      5  N   UNL     1       5.747   5.265  17.332  0.00  0.00    +0.000 N 
ATOM      6  C   UNL     1       4.663   6.190  17.071  0.00  0.00    +0.000 C 
ATOM      7  C   UNL     1       3.266   6.867  17.192  0.00  0.00    +0.000 C 
ATOM      8  C   UNL     1       5.557   7.792  17.135  0.00  0.00    +0.000 C 
ATOM      9  H   UNL     1       5.853   5.083  18.337  0.00  0.00    +0.000 HD
ENDROOT
BRANCH   1  14
ATOM     10  C   UNL     1      10.280  12.464  19.473  0.00  0.00    +0.000 C 
ATOM     11  C   UNL     1       9.585  11.199  19.016  0.00  0.00    +0.000 A 
ATOM     12  C   UNL     1       9.544  10.021  19.765  0.00  0.00    +0.000 A 
ATOM     13  C   UNL     1       8.830   8.859  19.303  0.00  0.00    +0.000 A 
ATOM     14  C   UNL     1       8.144   8.813  18.053  0.00  0.00    +0.000 A 
ATOM     15  C   UNL     1       8.218  10.025  17.329  0.00  0.00    +0.000 A 
ATOM     16  C   UNL     1       8.897  11.184  17.801  0.00  0.00    +0.000 A 
ENDBRANCH   1  14
BRANCH   6  17
ATOM     17  C   UNL     1       3.836   4.974  17.957  0.00  0.00    +0.000 A 
ATOM     18  C   UNL     1       3.121   3.922  17.364  0.00  0.00    +0.000 A 
ATOM     19  C   UNL     1       2.364   3.017  18.160  0.00  0.00    +0.000 A 
ATOM     20  C   UNL     1       2.298   3.190  19.548  0.00  0.00    +0.000 A 
ATOM     21  C   UNL     1       2.954   4.245  20.166  0.00  0.00    +0.000 A 
ATOM     22  C   UNL     1       3.719   5.136  19.388  0.00  0.00    +0.000 A 
BRANCH  20  23
ATOM     23  O   UNL     1       1.568   2.342  20.334  0.00  0.00    +0.000 OA
ATOM     24  H   UNL     1       1.572   2.670  21.249  0.00  0.00    +0.000 HD
ENDBRANCH  20  23
ENDBRANCH   6  17
BRANCH   2  25
ATOM     25  C   UNL     1       8.054   5.985  19.002  0.00  0.00    +0.000 C 
ATOM     26  N   UNL     1       8.529   5.425  20.028  0.00  0.00    +0.000 NA
ENDBRANCH   2  25
TORSDOF 4
ENDMDL
MODEL 4
REMARK VINA RESULT:      -7.3      2.363      7.734
REMARK  Name = 
REMARK  6 active torsions:
REMARK  status: ('A' for Active; 'I' for Inactive)
REMARK    1  A    between atoms: C_1  and  C_2
REMARK    2  A    between atoms: C_5  and  C_6
REMARK    3  A    between atoms: C_7  and  C_8
REMARK    4  A    between atoms: C_13  and  C_14
REMARK    5  A    between atoms: C_13  and  C_15
REMARK    6  A    between atoms: C_18  and  O_19
REMARK                            x       y       z     vdW  Elec       q    Type
REMARK                         _______ _______ _______ _____ _____    ______ ____
ROOT
ATOM      1  C   UNL     1       2.367   6.236  20.136  0.00  0.00    +0.000 C 
ATOM      2  C   UNL     1       1.994   6.503  18.903  0.00  0.00    +0.000 C 
ATOM      3  C   UNL     1       1.971   5.405  17.945  0.00  0.00    +0.000 C 
ATOM      4  O   UNL     1       1.064   4.613  17.791  0.00  0.00    +0.000 OA
ATOM      5  N   UNL     1       3.276   5.183  17.578  0.00  0.00    +0.000 N 
ATOM      6  C   UNL     1       3.993   4.377  18.544  0.00  0.00    +0.000 C 
ATOM      7  C   UNL     1       5.193   3.717  19.286  0.00  0.00    +0.000 C 
ATOM      8  C   UNL     1       3.201   4.928  20.106  0.00  0.00    +0.000 C 
ATOM      9  H   UNL     1       3.746   6.081  17.414  0.00  0.00    +0.000 HD
ENDROOT
BRANCH   1  14
ATOM     10  C   UNL     1      -0.756  10.736  22.359  0.00  0.00    +0.000 C 
ATOM     11  C   UNL     1      -0.033   9.482  21.915  0.00  0.00    +0.000 A 
ATOM     12  C   UNL     1      -0.664   8.398  21.300  0.00  0.00    +0.000 A 
ATOM     13  C   UNL     1       0.079   7.248  20.856  0.00  0.00    +0.000 A 
ATOM     14  C   UNL     1       1.489   7.116  21.031  0.00  0.00    +0.000 A 
ATOM     15  C   UNL     1       2.082   8.233  21.662  0.00  0.00    +0.000 A 
ATOM     16  C   UNL     1       1.351   9.385  22.072  0.00  0.00    +0.000 A 
ENDBRANCH   1  14
BRANCH   6  17
ATOM     17  C   UNL     1       5.230   4.659  17.387  0.00  0.00    +0.000 A 
ATOM     18  C   UNL     1       6.148   5.718  17.463  0.00  0.00    +0.000 A 
ATOM     19  C   UNL     1       7.072   5.958  16.408  0.00  0.00    +0.000 A 
ATOM     20  C   UNL     1       7.053   5.153  15.263  0.00  0.00    +0.000 A 
ATOM     21  C   UNL     1       6.131   4.124  15.130  0.00  0.00    +0.000 A 
ATOM     22  C   UNL     1       5.222   3.870  16.177  0.00  0.00    +0.000 A 
BRANCH  20  23
ATOM     23  O   UNL     1       7.921   5.369  14.229  0.00  0.00    +0.000 OA
ATOM     24  H   UNL     1       7.718   6.223  13.813  0.00  0.00    +0.000 HD
ENDBRANCH  20  23
ENDBRANCH   6  17
BRANCH   2  25
ATOM     25  C   UNL     1       2.225   7.847  18.232  0.00  0.00    +0.000 C 
ATOM     26  N   UNL     1       2.416   8.962  17.674  0.00  0.00    +0.000 NA
ENDBRANCH   2  25
TORSDOF 4
ENDMDL
MODEL 5
REMARK VINA RESULT:      -7.2      3.441      5.266
REMARK  Name = 
REMARK  6 active torsions:
REMARK  status: ('A' for Active; 'I' for Inactive)
REMARK    1  A    between atoms: C_1  and  C_2
REMARK    2  A    between atoms: C_5  and  C_6
REMARK    3  A    between atoms: C_7  and  C_8
REMARK    4  A    between atoms: C_13  and  C_14
REMARK    5  A    between atoms: C_13  and  C_15
REMARK    6  A    between atoms: C_18  and  O_19
REMARK                            x       y       z     vdW  Elec       q    Type
REMARK                         _______ _______ _______ _____ _____    ______ ____
ROOT
ATOM      1  C   UNL     1       6.330   7.022  17.855  0.00  0.00    +0.000 C 
ATOM      2  C   UNL     1       6.880   5.868  18.163  0.00  0.00    +0.000 C 
ATOM      3  C   UNL     1       6.336   4.667  17.543  0.00  0.00    +0.000 C 
ATOM      4  O   UNL     1       6.627   4.237  16.445  0.00  0.00    +0.000 OA
ATOM      5  N   UNL     1       5.175   4.374  18.217  0.00  0.00    +0.000 N 
ATOM      6  C   UNL     1       4.054   5.167  17.757  0.00  0.00    +0.000 C 
ATOM      7  C   UNL     1       2.642   5.824  17.746  0.00  0.00    +0.000 C 
ATOM      8  C   UNL     1       4.899   6.739  17.328  0.00  0.00    +0.000 C 
ATOM      9  H   UNL     1       5.325   4.484  19.227  0.00  0.00    +0.000 HD
ENDROOT
BRANCH   1  14
ATOM     10  C   UNL     1       9.798  11.730  18.721  0.00  0.00    +0.000 C 
ATOM     11  C   UNL     1       9.051  10.448  18.420  0.00  0.00    +0.000 A 
ATOM     12  C   UNL     1       9.318   9.229  19.047  0.00  0.00    +0.000 A 
ATOM     13  C   UNL     1       8.546   8.049  18.757  0.00  0.00    +0.000 A 
ATOM     14  C   UNL     1       7.485   8.027  17.802  0.00  0.00    +0.000 A 
ATOM     15  C   UNL     1       7.256   9.281  17.191  0.00  0.00    +0.000 A 
ATOM     16  C   UNL     1       7.999  10.455  17.502  0.00  0.00    +0.000 A 
ENDBRANCH   1  14
BRANCH   6  17
ATOM     17  C   UNL     1       3.299   4.234  18.985  0.00  0.00    +0.000 A 
ATOM     18  C   UNL     1       2.711   2.979  18.767  0.00  0.00    +0.000 A 
ATOM     19  C   UNL     1       2.002   2.316  19.807  0.00  0.00    +0.000 A 
ATOM     20  C   UNL     1       1.857   2.929  21.058  0.00  0.00    +0.000 A 
ATOM     21  C   UNL     1       2.385   4.189  21.299  0.00  0.00    +0.000 A 
ATOM     22  C   UNL     1       3.102   4.846  20.279  0.00  0.00    +0.000 A 
BRANCH  20  23
ATOM     23  O   UNL     1       1.171   2.319  22.070  0.00  0.00    +0.000 OA
ATOM     24  H   UNL     1       0.555   2.956  22.470  0.00  0.00    +0.000 HD
ENDBRANCH  20  23
ENDBRANCH   6  17
BRANCH   2  25
ATOM     25  C   UNL     1       7.520   5.580  19.511  0.00  0.00    +0.000 C 
ATOM     26  N   UNL     1       8.052   5.340  20.630  0.00  0.00    +0.000 NA
ENDBRANCH   2  25
TORSDOF 4
ENDMDL
MODEL 6
REMARK VINA RESULT:      -7.2      3.518      5.910
REMARK  Name = 
REMARK  6 active torsions:
REMARK  status: ('A' for Active; 'I' for Inactive)
REMARK    1  A    between atoms: C_1  and  C_2
REMARK    2  A    between atoms: C_5  and  C_6
REMARK    3  A    between atoms: C_7  and  C_8
REMARK    4  A    between atoms: C_13  and  C_14
REMARK    5  A    between atoms: C_13  and  C_15
REMARK    6  A    between atoms: C_18  and  O_19
REMARK                            x       y       z     vdW  Elec       q    Type
REMARK                         _______ _______ _______ _____ _____    ______ ____
ROOT
ATOM      1  C   UNL     1       6.998   7.973  17.785  0.00  0.00    +0.000 C 
ATOM      2  C   UNL     1       7.478   6.748  17.770  0.00  0.00    +0.000 C 
ATOM      3  C   UNL     1       6.924   5.810  16.802  0.00  0.00    +0.000 C 
ATOM      4  O   UNL     1       7.265   5.699  15.643  0.00  0.00    +0.000 OA
ATOM      5  N   UNL     1       5.712   5.404  17.306  0.00  0.00    +0.000 N 
ATOM      6  C   UNL     1       4.656   6.360  17.042  0.00  0.00    +0.000 C 
ATOM      7  C   UNL     1       3.276   7.074  17.155  0.00  0.00    +0.000 C 
ATOM      8  C   UNL     1       5.592   7.937  17.130  0.00  0.00    +0.000 C 
ATOM      9  H   UNL     1       5.802   5.211  18.310  0.00  0.00    +0.000 HD
ENDROOT
BRANCH   1  14
ATOM     10  C   UNL     1      10.409  12.477  19.523  0.00  0.00    +0.000 C 
ATOM     11  C   UNL     1       9.687  11.229  19.060  0.00  0.00    +0.000 A 
ATOM     12  C   UNL     1       9.590  10.061  19.818  0.00  0.00    +0.000 A 
ATOM     13  C   UNL     1       8.852   8.917  19.349  0.00  0.00    +0.000 A 
ATOM     14  C   UNL     1       8.195   8.881  18.083  0.00  0.00    +0.000 A 
ATOM     15  C   UNL     1       8.324  10.083  17.350  0.00  0.00    +0.000 A 
ATOM     16  C   UNL     1       9.027  11.225  17.829  0.00  0.00    +0.000 A 
ENDBRANCH   1  14
BRANCH   6  17
ATOM     17  C   UNL     1       3.787   5.159  17.909  0.00  0.00    +0.000 A 
ATOM     18  C   UNL     1       3.766   5.064  19.308  0.00  0.00    +0.000 A 
ATOM     19  C   UNL     1       3.118   3.974  19.954  0.00  0.00    +0.000 A 
ATOM     20  C   UNL     1       2.519   2.963  19.192  0.00  0.00    +0.000 A 
ATOM     21  C   UNL     1       2.558   2.999  17.806  0.00  0.00    +0.000 A 
ATOM     22  C   UNL     1       3.184   4.082  17.158  0.00  0.00    +0.000 A 
BRANCH  20  23
ATOM     23  O   UNL     1       1.901   1.899  19.787  0.00  0.00    +0.000 OA
ATOM     24  H   UNL     1       2.573   1.269  20.096  0.00  0.00    +0.000 HD
ENDBRANCH  20  23
ENDBRANCH   6  17
BRANCH   2  25
ATOM     25  C   UNL     1       8.020   6.048  19.005  0.00  0.00    +0.000 C 
ATOM     26  N   UNL     1       8.469   5.466  20.031  0.00  0.00    +0.000 NA
ENDBRANCH   2  25
TORSDOF 4
ENDMDL
MODEL 7
REMARK VINA RESULT:      -7.1      5.591      9.070
REMARK  Name = 
REMARK  6 active torsions:
REMARK  status: ('A' for Active; 'I' for Inactive)
REMARK    1  A    between atoms: C_1  and  C_2
REMARK    2  A    between atoms: C_5  and  C_6
REMARK    3  A    between atoms: C_7  and  C_8
REMARK    4  A    between atoms: C_13  and  C_14
REMARK    5  A    between atoms: C_13  and  C_15
REMARK    6  A    between atoms: C_18  and  O_19
REMARK                            x       y       z     vdW  Elec       q    Type
REMARK                         _______ _______ _______ _____ _____    ______ ____
ROOT
ATOM      1  C   UNL     1      -0.015  10.700  19.860  0.00  0.00    +0.000 C 
ATOM      2  C   UNL     1      -0.722  11.184  18.862  0.00  0.00    +0.000 C 
ATOM      3  C   UNL     1      -0.770  12.632  18.701  0.00  0.00    +0.000 C 
ATOM      4  O   UNL     1       0.056  13.313  18.130  0.00  0.00    +0.000 OA
ATOM      5  N   UNL     1      -1.654  13.097  19.645  0.00  0.00    +0.000 N 
ATOM      6  C   UNL     1      -1.048  13.224  20.955  0.00  0.00    +0.000 C 
ATOM      7  C   UNL     1      -0.941  13.389  22.499  0.00  0.00    +0.000 C 
ATOM      8  C   UNL     1       0.136  11.821  20.921  0.00  0.00    +0.000 C 
ATOM      9  H   UNL     1      -2.483  12.492  19.671  0.00  0.00    +0.000 HD
ENDROOT
BRANCH   1  14
ATOM     10  C   UNL     1       3.860   6.652  17.978  0.00  0.00    +0.000 C 
ATOM     11  C   UNL     1       2.747   7.556  18.464  0.00  0.00    +0.000 A 
ATOM     12  C   UNL     1       2.193   7.486  19.744  0.00  0.00    +0.000 A 
ATOM     13  C   UNL     1       1.166   8.401  20.171  0.00  0.00    +0.000 A 
ATOM     14  C   UNL     1       0.627   9.416  19.325  0.00  0.00    +0.000 A 
ATOM     15  C   UNL     1       1.215   9.445  18.040  0.00  0.00    +0.000 A 
ATOM     16  C   UNL     1       2.253   8.561  17.629  0.00  0.00    +0.000 A 
ENDBRANCH   1  14
BRANCH   6  17
ATOM     17  C   UNL     1      -2.650  13.739  21.296  0.00  0.00    +0.000 A 
ATOM     18  C   UNL     1      -3.046  15.084  21.352  0.00  0.00    +0.000 A 
ATOM     19  C   UNL     1      -4.363  15.439  21.754  0.00  0.00    +0.000 A 
ATOM     20  C   UNL     1      -5.274  14.444  22.131  0.00  0.00    +0.000 A 
ATOM     21  C   UNL     1      -4.906  13.106  22.132  0.00  0.00    +0.000 A 
ATOM     22  C   UNL     1      -3.608  12.745  21.721  0.00  0.00    +0.000 A 
BRANCH  20  23
ATOM     23  O   UNL     1      -6.542  14.759  22.533  0.00  0.00    +0.000 OA
ATOM     24  H   UNL     1      -6.500  15.266  23.361  0.00  0.00    +0.000 HD
ENDBRANCH  20  23
ENDBRANCH   6  17
BRANCH   2  25
ATOM     25  C   UNL     1      -1.959  10.501  18.304  0.00  0.00    +0.000 C 
ATOM     26  N   UNL     1      -2.987   9.934  17.841  0.00  0.00    +0.000 NA
ENDBRANCH   2  25
TORSDOF 4
ENDMDL
MODEL 8
REMARK VINA RESULT:      -7.1      5.893     11.531
REMARK  Name = 
REMARK  6 active torsions:
REMARK  status: ('A' for Active; 'I' for Inactive)
REMARK    1  A    between atoms: C_1  and  C_2
REMARK    2  A    between atoms: C_5  and  C_6
REMARK    3  A    between atoms: C_7  and  C_8
REMARK    4  A    between atoms: C_13  and  C_14
REMARK    5  A    between atoms: C_13  and  C_15
REMARK    6  A    between atoms: C_18  and  O_19
REMARK                            x       y       z     vdW  Elec       q    Type
REMARK                         _______ _______ _______ _____ _____    ______ ____
ROOT
ATOM      1  C   UNL     1      -2.659  12.562  19.958  0.00  0.00    +0.000 C 
ATOM      2  C   UNL     1      -1.518  12.978  20.462  0.00  0.00    +0.000 C 
ATOM      3  C   UNL     1      -0.370  13.066  19.568  0.00  0.00    +0.000 C 
ATOM      4  O   UNL     1      -0.109  13.997  18.835  0.00  0.00    +0.000 OA
ATOM      5  N   UNL     1       0.090  11.782  19.400  0.00  0.00    +0.000 N 
ATOM      6  C   UNL     1      -0.672  11.046  18.412  0.00  0.00    +0.000 C 
ATOM      7  C   UNL     1      -1.221   9.833  17.604  0.00  0.00    +0.000 C 
ATOM      8  C   UNL     1      -2.344  11.761  18.667  0.00  0.00    +0.000 C 
ATOM      9  H   UNL     1       0.101  11.298  20.305  0.00  0.00    +0.000 HD
ENDROOT
BRANCH   1  14
ATOM     10  C   UNL     1      -5.828  15.495  23.995  0.00  0.00    +0.000 C 
ATOM     11  C   UNL     1      -5.125  14.817  22.839  0.00  0.00    +0.000 A 
ATOM     12  C   UNL     1      -4.350  15.495  21.896  0.00  0.00    +0.000 A 
ATOM     13  C   UNL     1      -3.664  14.795  20.841  0.00  0.00    +0.000 A 
ATOM     14  C   UNL     1      -3.744  13.381  20.665  0.00  0.00    +0.000 A 
ATOM     15  C   UNL     1      -4.541  12.739  21.639  0.00  0.00    +0.000 A 
ATOM     16  C   UNL     1      -5.193  13.428  22.701  0.00  0.00    +0.000 A 
ENDBRANCH   1  14
BRANCH   6  17
ATOM     17  C   UNL     1       0.464   9.851  18.891  0.00  0.00    +0.000 A 
ATOM     18  C   UNL     1       1.360   9.224  18.012  0.00  0.00    +0.000 A 
ATOM     19  C   UNL     1       2.193   8.160  18.457  0.00  0.00    +0.000 A 
ATOM     20  C   UNL     1       2.102   7.704  19.778  0.00  0.00    +0.000 A 
ATOM     21  C   UNL     1       1.196   8.267  20.665  0.00  0.00    +0.000 A 
ATOM     22  C   UNL     1       0.379   9.332  20.236  0.00  0.00    +0.000 A 
BRANCH  20  23
ATOM     23  O   UNL     1       2.882   6.675  20.227  0.00  0.00    +0.000 OA
ATOM     24  H   UNL     1       2.361   5.855  20.230  0.00  0.00    +0.000 HD
ENDBRANCH  20  23
ENDBRANCH   6  17
BRANCH   2  25
ATOM     25  C   UNL     1      -1.105  12.742  21.905  0.00  0.00    +0.000 C 
ATOM     26  N   UNL     1      -0.762  12.546  23.104  0.00  0.00    +0.000 NA
ENDBRANCH   2  25
TORSDOF 4
ENDMDL
MODEL 9
REMARK VINA RESULT:      -7.1      5.677      9.115
REMARK  Name = 
REMARK  6 active torsions:
REMARK  status: ('A' for Active; 'I' for Inactive)
REMARK    1  A    between atoms: C_1  and  C_2
REMARK    2  A    between atoms: C_5  and  C_6
REMARK    3  A    between atoms: C_7  and  C_8
REMARK    4  A    between atoms: C_13  and  C_14
REMARK    5  A    between atoms: C_13  and  C_15
REMARK    6  A    between atoms: C_18  and  O_19
REMARK                            x       y       z     vdW  Elec       q    Type
REMARK                         _______ _______ _______ _____ _____    ______ ____
ROOT
ATOM      1  C   UNL     1      -0.156  10.698  19.851  0.00  0.00    +0.000 C 
ATOM      2  C   UNL     1      -0.890  11.177  18.871  0.00  0.00    +0.000 C 
ATOM      3  C   UNL     1      -1.010  12.625  18.754  0.00  0.00    +0.000 C 
ATOM      4  O   UNL     1      -0.221  13.362  18.200  0.00  0.00    +0.000 OA
ATOM      5  N   UNL     1      -1.909  13.019  19.716  0.00  0.00    +0.000 N 
ATOM      6  C   UNL     1      -1.302  13.136  21.026  0.00  0.00    +0.000 C 
ATOM      7  C   UNL     1      -1.193  13.260  22.574  0.00  0.00    +0.000 C 
ATOM      8  C   UNL     1      -0.052  11.794  20.945  0.00  0.00    +0.000 C 
ATOM      9  H   UNL     1      -2.707  12.373  19.727  0.00  0.00    +0.000 HD
ENDROOT
BRANCH   1  14
ATOM     10  C   UNL     1       3.898   6.902  17.825  0.00  0.00    +0.000 C 
ATOM     11  C   UNL     1       2.746   7.736  18.345  0.00  0.00    +0.000 A 
ATOM     12  C   UNL     1       2.208   7.603  19.627  0.00  0.00    +0.000 A 
ATOM     13  C   UNL     1       1.142   8.454  20.088  0.00  0.00    +0.000 A 
ATOM     14  C   UNL     1       0.545   9.464  19.275  0.00  0.00    +0.000 A 
ATOM     15  C   UNL     1       1.118   9.558  17.987  0.00  0.00    +0.000 A 
ATOM     16  C   UNL     1       2.194   8.738  17.543  0.00  0.00    +0.000 A 
ENDBRANCH   1  14
BRANCH   6  17
ATOM     17  C   UNL     1      -2.925  13.563  21.390  0.00  0.00    +0.000 A 
ATOM     18  C   UNL     1      -3.942  12.631  21.647  0.00  0.00    +0.000 A 
ATOM     19  C   UNL     1      -5.288  13.053  21.828  0.00  0.00    +0.000 A 
ATOM     20  C   UNL     1      -5.618  14.410  21.717  0.00  0.00    +0.000 A 
ATOM     21  C   UNL     1      -4.649  15.356  21.418  0.00  0.00    +0.000 A 
ATOM     22  C   UNL     1      -3.311  14.948  21.254  0.00  0.00    +0.000 A 
BRANCH  20  23
ATOM     23  O   UNL     1      -6.906  14.841  21.873  0.00  0.00    +0.000 OA
ATOM     24  H   UNL     1      -7.299  14.404  22.647  0.00  0.00    +0.000 HD
ENDBRANCH  20  23
ENDBRANCH   6  17
BRANCH   2  25
ATOM     25  C   UNL     1      -2.097  10.452  18.299  0.00  0.00    +0.000 C 
ATOM     26  N   UNL     1      -3.100   9.851  17.825  0.00  0.00    +0.000 NA
ENDBRANCH   2  25
TORSDOF 4
ENDMDL
