MODEL 1
REMARK VINA RESULT:      -7.1      0.000      0.000
REMARK  Name = 
REMARK  9 active torsions:
REMARK  status: ('A' for Active; 'I' for Inactive)
REMARK    1  A    between atoms: C_1  and  C_2
REMARK    2  A    between atoms: C_2  and  C_3
REMARK    3  A    between atoms: N_5  and  C_6
REMARK    4  A    between atoms: N_5  and  C_14
REMARK    5  A    between atoms: C_6  and  C_7
REMARK    6  A    between atoms: C_14  and  C_15
REMARK    7  A    between atoms: C_16  and  C_17
REMARK    8  A    between atoms: C_21  and  C_22
REMARK    9  A    between atoms: C_26  and  N_27
REMARK                            x       y       z     vdW  Elec       q    Type
REMARK                         _______ _______ _______ _____ _____    ______ ____
ROOT
ATOM      1  C   UNL     1      -1.338  14.209  19.898  0.00  0.00    +0.000 A 
ATOM      2  C   UNL     1      -0.953  15.607  19.940  0.00  0.00    +0.000 A 
ATOM      3  N   UNL     1      -1.489  16.201  21.014  0.00  0.00    +0.000 NA
ATOM      4  O   UNL     1      -2.251  15.261  21.644  0.00  0.00    +0.000 OA
ATOM      5  C   UNL     1      -2.173  14.058  21.006  0.00  0.00    +0.000 A 
ENDROOT
BRANCH   2   6
ATOM      6  C   UNL     1      -0.127  16.395  19.006  0.00  0.00    +0.000 A 
ATOM      7  C   UNL     1      -0.719  17.350  18.166  0.00  0.00    +0.000 A 
ATOM      8  C   UNL     1       0.049  18.070  17.244  0.00  0.00    +0.000 A 
ATOM      9  C   UNL     1       1.424  17.856  17.148  0.00  0.00    +0.000 A 
ATOM     10  C   UNL     1       2.041  16.917  17.977  0.00  0.00    +0.000 A 
ATOM     11  C   UNL     1       3.514  16.643  17.888  0.00  0.00    +0.000 C 
ATOM     12  C   UNL     1       1.257  16.191  18.887  0.00  0.00    +0.000 A 
ENDBRANCH   2   6
BRANCH   5  13
ATOM     13  N   UNL     1      -2.893  13.039  21.558  0.00  0.00    +0.000 N 
ATOM     14  C   UNL     1      -4.306  12.818  21.197  0.00  0.00    +0.000 C 
ATOM     15  C   UNL     1      -5.253  13.017  22.394  0.00  0.00    +0.000 C 
ATOM     16  O   UNL     1      -4.849  12.238  23.530  0.00  0.00    +0.000 OA
ATOM     17  C   UNL     1      -3.546  12.647  23.944  0.00  0.00    +0.000 C 
ATOM     18  C   UNL     1      -2.514  12.427  22.837  0.00  0.00    +0.000 C 
ENDBRANCH   5  13
BRANCH   1  19
ATOM     19  C   UNL     1      -0.917  13.290  18.791  0.00  0.00    +0.000 C 
BRANCH  19  22
ATOM     20  C   UNL     1       0.774  11.559  19.412  0.00  0.00    +0.000 C 
ATOM     21  O   UNL     1       1.075  10.397  19.687  0.00  0.00    +0.000 OA
ATOM     22  N   UNL     1      -0.541  11.946  19.170  0.00  0.00    +0.000 N 
BRANCH  20  24
ATOM     23  C   UNL     1       2.623  12.763  18.128  0.00  0.00    +0.000 C 
ATOM     24  C   UNL     1       1.828  12.672  19.422  0.00  0.00    +0.000 C 
ENDBRANCH  20  24
BRANCH  22  25
ATOM     25  C   UNL     1      -1.639  10.985  19.311  0.00  0.00    +0.000 C 
BRANCH  25  26
ATOM     26  C   UNL     1      -2.394  10.691  18.030  0.00  0.00    +0.000 A 
ATOM     27  C   UNL     1      -3.629  11.311  17.785  0.00  0.00    +0.000 A 
ATOM     28  C   UNL     1      -4.259  11.190  16.545  0.00  0.00    +0.000 A 
ATOM     29  C   UNL     1      -3.657  10.443  15.542  0.00  0.00    +0.000 A 
ATOM     30  F   UNL     1      -4.232  10.375  14.333  0.00  0.00    +0.000 F 
ATOM     31  C   UNL     1      -2.455   9.784  15.770  0.00  0.00    +0.000 A 
ATOM     32  C   UNL     1      -1.824   9.904  17.013  0.00  0.00    +0.000 A 
ENDBRANCH  25  26
ENDBRANCH  22  25
ENDBRANCH  19  22
ENDBRANCH   1  19
TORSDOF 7
ENDMDL
MODEL 2
REMARK VINA RESULT:      -6.9      2.746      5.436
REMARK  Name = 
REMARK  9 active torsions:
REMARK  status: ('A' for Active; 'I' for Inactive)
REMARK    1  A    between atoms: C_1  and  C_2
REMARK    2  A    between atoms: C_2  and  C_3
REMARK    3  A    between atoms: N_5  and  C_6
REMARK    4  A    between atoms: N_5  and  C_14
REMARK    5  A    between atoms: C_6  and  C_7
REMARK    6  A    between atoms: C_14  and  C_15
REMARK    7  A    between atoms: C_16  and  C_17
REMARK    8  A    between atoms: C_21  and  C_22
REMARK    9  A    between atoms: C_26  and  N_27
REMARK                            x       y       z     vdW  Elec       q    Type
REMARK                         _______ _______ _______ _____ _____    ______ ____
ROOT
ATOM      1  C   UNL     1       0.003  10.908  21.370  0.00  0.00    +0.000 A 
ATOM      2  C   UNL     1       0.253   9.480  21.291  0.00  0.00    +0.000 A 
ATOM      3  N   UNL     1      -0.406   8.842  22.266  0.00  0.00    +0.000 NA
ATOM      4  O   UNL     1      -1.031   9.799  23.011  0.00  0.00    +0.000 OA
ATOM      5  C   UNL     1      -0.814  11.042  22.494  0.00  0.00    +0.000 A 
ENDROOT
BRANCH   2   6
ATOM      6  C   UNL     1       1.095   8.713  20.354  0.00  0.00    +0.000 A 
ATOM      7  C   UNL     1       1.423   9.242  19.097  0.00  0.00    +0.000 A 
ATOM      8  C   UNL     1       2.184   8.504  18.183  0.00  0.00    +0.000 A 
ATOM      9  C   UNL     1       2.638   7.226  18.509  0.00  0.00    +0.000 A 
ATOM     10  C   UNL     1       2.333   6.677  19.757  0.00  0.00    +0.000 A 
ATOM     11  C   UNL     1       2.786   5.298  20.137  0.00  0.00    +0.000 C 
ATOM     12  C   UNL     1       1.557   7.423  20.659  0.00  0.00    +0.000 A 
ENDBRANCH   2   6
BRANCH   5  13
ATOM     13  N   UNL     1      -1.403  12.078  23.157  0.00  0.00    +0.000 N 
ATOM     14  C   UNL     1      -2.841  12.059  23.484  0.00  0.00    +0.000 C 
ATOM     15  C   UNL     1      -3.618  13.176  22.765  0.00  0.00    +0.000 C 
ATOM     16  O   UNL     1      -3.025  14.465  22.982  0.00  0.00    +0.000 OA
ATOM     17  C   UNL     1      -1.696  14.466  22.462  0.00  0.00    +0.000 C 
ATOM     18  C   UNL     1      -0.821  13.426  23.161  0.00  0.00    +0.000 C 
ENDBRANCH   5  13
BRANCH   1  19
ATOM     19  C   UNL     1       0.632  11.889  20.428  0.00  0.00    +0.000 C 
BRANCH  19  22
ATOM     20  C   UNL     1       0.147  13.837  18.939  0.00  0.00    +0.000 C 
ATOM     21  O   UNL     1      -0.645  14.557  18.332  0.00  0.00    +0.000 OA
ATOM     22  N   UNL     1      -0.268  12.720  19.659  0.00  0.00    +0.000 N 
BRANCH  20  24
ATOM     23  C   UNL     1       2.135  15.254  19.686  0.00  0.00    +0.000 C 
ATOM     24  C   UNL     1       1.659  14.075  18.851  0.00  0.00    +0.000 C 
ENDBRANCH  20  24
BRANCH  22  25
ATOM     25  C   UNL     1      -1.677  12.314  19.656  0.00  0.00    +0.000 C 
BRANCH  25  26
ATOM     26  C   UNL     1      -2.126  11.589  18.403  0.00  0.00    +0.000 A 
ATOM     27  C   UNL     1      -1.316  10.590  17.841  0.00  0.00    +0.000 A 
ATOM     28  C   UNL     1      -1.782   9.795  16.793  0.00  0.00    +0.000 A 
ATOM     29  C   UNL     1      -3.062   9.997  16.298  0.00  0.00    +0.000 A 
ATOM     30  F   UNL     1      -3.531   9.195  15.332  0.00  0.00    +0.000 F 
ATOM     31  C   UNL     1      -3.871  11.005  16.806  0.00  0.00    +0.000 A 
ATOM     32  C   UNL     1      -3.404  11.804  17.856  0.00  0.00    +0.000 A 
ENDBRANCH  25  26
ENDBRANCH  22  25
ENDBRANCH  19  22
ENDBRANCH   1  19
TORSDOF 7
ENDMDL
MODEL 3
REMARK VINA RESULT:      -6.9      2.932      5.638
REMARK  Name = 
REMARK  9 active torsions:
REMARK  status: ('A' for Active; 'I' for Inactive)
REMARK    1  A    between atoms: C_1  and  C_2
REMARK    2  A    between atoms: C_2  and  C_3
REMARK    3  A    between atoms: N_5  and  C_6
REMARK    4  A    between atoms: N_5  and  C_14
REMARK    5  A    between atoms: C_6  and  C_7
REMARK    6  A    between atoms: C_14  and  C_15
REMARK    7  A    between atoms: C_16  and  C_17
REMARK    8  A    between atoms: C_21  and  C_22
REMARK    9  A    between atoms: C_26  and  N_27
REMARK                            x       y       z     vdW  Elec       q    Type
REMARK                         _______ _______ _______ _____ _____    ______ ____
ROOT
ATOM      1  C   UNL     1      -0.260  10.011  21.237  0.00  0.00    +0.000 A 
ATOM      2  C   UNL     1       0.746   9.020  21.572  0.00  0.00    +0.000 A 
ATOM      3  N   UNL     1       1.155   9.186  22.836  0.00  0.00    +0.000 NA
ATOM      4  O   UNL     1       0.497  10.277  23.322  0.00  0.00    +0.000 OA
ATOM      5  C   UNL     1      -0.363  10.786  22.394  0.00  0.00    +0.000 A 
ENDROOT
BRANCH   2   6
ATOM      6  C   UNL     1       1.340   7.953  20.745  0.00  0.00    +0.000 A 
ATOM      7  C   UNL     1       1.285   6.615  21.165  0.00  0.00    +0.000 A 
ATOM      8  C   UNL     1       1.885   5.600  20.411  0.00  0.00    +0.000 A 
ATOM      9  C   UNL     1       2.545   5.900  19.219  0.00  0.00    +0.000 A 
ATOM     10  C   UNL     1       2.609   7.221  18.773  0.00  0.00    +0.000 A 
ATOM     11  C   UNL     1       3.328   7.586  17.507  0.00  0.00    +0.000 C 
ATOM     12  C   UNL     1       2.015   8.232  19.546  0.00  0.00    +0.000 A 
ENDBRANCH   2   6
BRANCH   5  13
ATOM     13  N   UNL     1      -1.083  11.879  22.779  0.00  0.00    +0.000 N 
ATOM     14  C   UNL     1      -2.528  11.782  23.061  0.00  0.00    +0.000 C 
ATOM     15  C   UNL     1      -3.371  12.615  22.080  0.00  0.00    +0.000 C 
ATOM     16  O   UNL     1      -2.917  13.974  22.004  0.00  0.00    +0.000 OA
ATOM     17  C   UNL     1      -1.569  13.997  21.535  0.00  0.00    +0.000 C 
ATOM     18  C   UNL     1      -0.635  13.245  22.483  0.00  0.00    +0.000 C 
ENDBRANCH   5  13
BRANCH   1  19
ATOM     19  C   UNL     1      -0.885  10.099  19.878  0.00  0.00    +0.000 C 
BRANCH  19  22
ATOM     20  C   UNL     1       0.094  12.251  19.070  0.00  0.00    +0.000 C 
ATOM     21  O   UNL     1      -0.033  13.390  18.621  0.00  0.00    +0.000 OA
ATOM     22  N   UNL     1      -0.999  11.419  19.299  0.00  0.00    +0.000 N 
BRANCH  20  24
ATOM     23  C   UNL     1       2.359  11.638  18.064  0.00  0.00    +0.000 C 
ATOM     24  C   UNL     1       1.482  11.645  19.307  0.00  0.00    +0.000 C 
ENDBRANCH  20  24
BRANCH  22  25
ATOM     25  C   UNL     1      -2.353  11.850  18.938  0.00  0.00    +0.000 C 
BRANCH  25  26
ATOM     26  C   UNL     1      -2.900  11.227  17.669  0.00  0.00    +0.000 A 
ATOM     27  C   UNL     1      -4.134  11.653  17.154  0.00  0.00    +0.000 A 
ATOM     28  C   UNL     1      -4.577  11.219  15.903  0.00  0.00    +0.000 A 
ATOM     29  C   UNL     1      -3.787  10.352  15.162  0.00  0.00    +0.000 A 
ATOM     30  F   UNL     1      -4.185   9.982  13.936  0.00  0.00    +0.000 F 
ATOM     31  C   UNL     1      -2.581   9.882  15.664  0.00  0.00    +0.000 A 
ATOM     32  C   UNL     1      -2.137  10.315  16.918  0.00  0.00    +0.000 A 
ENDBRANCH  25  26
ENDBRANCH  22  25
ENDBRANCH  19  22
ENDBRANCH   1  19
TORSDOF 7
ENDMDL
MODEL 4
REMARK VINA RESULT:      -6.7      3.087      5.384
REMARK  Name = 
REMARK  9 active torsions:
REMARK  status: ('A' for Active; 'I' for Inactive)
REMARK    1  A    between atoms: C_1  and  C_2
REMARK    2  A    between atoms: C_2  and  C_3
REMARK    3  A    between atoms: N_5  and  C_6
REMARK    4  A    between atoms: N_5  and  C_14
REMARK    5  A    between atoms: C_6  and  C_7
REMARK    6  A    between atoms: C_14  and  C_15
REMARK    7  A    between atoms: C_16  and  C_17
REMARK    8  A    between atoms: C_21  and  C_22
REMARK    9  A    between atoms: C_26  and  N_27
REMARK                            x       y       z     vdW  Elec       q    Type
REMARK                         _______ _______ _______ _____ _____    ______ ____
ROOT
ATOM      1  C   UNL     1      -2.789  12.611  19.406  0.00  0.00    +0.000 A 
ATOM      2  C   UNL     1      -3.454  13.427  20.405  0.00  0.00    +0.000 A 
ATOM      3  N   UNL     1      -4.753  13.112  20.469  0.00  0.00    +0.000 NA
ATOM      4  O   UNL     1      -4.975  12.163  19.514  0.00  0.00    +0.000 OA
ATOM      5  C   UNL     1      -3.819  11.836  18.870  0.00  0.00    +0.000 A 
ENDROOT
BRANCH   2   6
ATOM      6  C   UNL     1      -2.916  14.491  21.274  0.00  0.00    +0.000 A 
ATOM      7  C   UNL     1      -2.743  15.793  20.779  0.00  0.00    +0.000 A 
ATOM      8  C   UNL     1      -2.192  16.799  21.581  0.00  0.00    +0.000 A 
ATOM      9  C   UNL     1      -1.809  16.526  22.895  0.00  0.00    +0.000 A 
ATOM     10  C   UNL     1      -1.977  15.242  23.416  0.00  0.00    +0.000 A 
ATOM     11  C   UNL     1      -1.558  14.905  24.817  0.00  0.00    +0.000 C 
ATOM     12  C   UNL     1      -2.518  14.239  22.596  0.00  0.00    +0.000 A 
ENDBRANCH   2   6
BRANCH   5  13
ATOM     13  N   UNL     1      -3.923  10.885  17.897  0.00  0.00    +0.000 N 
ATOM     14  C   UNL     1      -3.051   9.695  17.893  0.00  0.00    +0.000 C 
ATOM     15  C   UNL     1      -2.126   9.653  16.665  0.00  0.00    +0.000 C 
ATOM     16  O   UNL     1      -2.859   9.800  15.439  0.00  0.00    +0.000 OA
ATOM     17  C   UNL     1      -3.520  11.064  15.432  0.00  0.00    +0.000 C 
ATOM     18  C   UNL     1      -4.515  11.180  16.586  0.00  0.00    +0.000 C 
ENDBRANCH   5  13
BRANCH   1  19
ATOM     19  C   UNL     1      -1.333  12.757  19.083  0.00  0.00    +0.000 C 
BRANCH  19  22
ATOM     20  C   UNL     1       0.631  12.838  20.627  0.00  0.00    +0.000 C 
ATOM     21  O   UNL     1       1.442  12.282  21.366  0.00  0.00    +0.000 OA
ATOM     22  N   UNL     1      -0.400  12.141  20.001  0.00  0.00    +0.000 N 
BRANCH  20  24
ATOM     23  C   UNL     1       1.203  15.113  21.632  0.00  0.00    +0.000 C 
ATOM     24  C   UNL     1       0.650  14.359  20.433  0.00  0.00    +0.000 C 
ENDBRANCH  20  24
BRANCH  22  25
ATOM     25  C   UNL     1      -0.603  10.714  20.265  0.00  0.00    +0.000 C 
BRANCH  25  26
ATOM     26  C   UNL     1       0.488   9.807  19.731  0.00  0.00    +0.000 A 
ATOM     27  C   UNL     1       1.000   8.777  20.534  0.00  0.00    +0.000 A 
ATOM     28  C   UNL     1       1.878   7.828  20.007  0.00  0.00    +0.000 A 
ATOM     29  C   UNL     1       2.250   7.906  18.673  0.00  0.00    +0.000 A 
ATOM     30  F   UNL     1       3.046   6.960  18.153  0.00  0.00    +0.000 F 
ATOM     31  C   UNL     1       1.792   8.938  17.866  0.00  0.00    +0.000 A 
ATOM     32  C   UNL     1       0.913   9.892  18.392  0.00  0.00    +0.000 A 
ENDBRANCH  25  26
ENDBRANCH  22  25
ENDBRANCH  19  22
ENDBRANCH   1  19
TORSDOF 7
ENDMDL
MODEL 5
REMARK VINA RESULT:      -6.7      2.664      5.365
REMARK  Name = 
REMARK  9 active torsions:
REMARK  status: ('A' for Active; 'I' for Inactive)
REMARK    1  A    between atoms: C_1  and  C_2
REMARK    2  A    between atoms: C_2  and  C_3
REMARK    3  A    between atoms: N_5  and  C_6
REMARK    4  A    between atoms: N_5  and  C_14
REMARK    5  A    between atoms: C_6  and  C_7
REMARK    6  A    between atoms: C_14  and  C_15
REMARK    7  A    between atoms: C_16  and  C_17
REMARK    8  A    between atoms: C_21  and  C_22
REMARK    9  A    between atoms: C_26  and  N_27
REMARK                            x       y       z     vdW  Elec       q    Type
REMARK                         _______ _______ _______ _____ _____    ______ ____
ROOT
ATOM      1  C   UNL     1      -0.120  11.032  21.636  0.00  0.00    +0.000 A 
ATOM      2  C   UNL     1       0.039   9.593  21.738  0.00  0.00    +0.000 A 
ATOM      3  N   UNL     1      -0.648   9.126  22.788  0.00  0.00    +0.000 NA
ATOM      4  O   UNL     1      -1.203  10.207  23.408  0.00  0.00    +0.000 OA
ATOM      5  C   UNL     1      -0.914  11.359  22.737  0.00  0.00    +0.000 A 
ENDROOT
BRANCH   2   6
ATOM      6  C   UNL     1       0.821   8.661  20.903  0.00  0.00    +0.000 A 
ATOM      7  C   UNL     1       1.139   7.379  21.376  0.00  0.00    +0.000 A 
ATOM      8  C   UNL     1       1.918   6.504  20.611  0.00  0.00    +0.000 A 
ATOM      9  C   UNL     1       2.389   6.889  19.356  0.00  0.00    +0.000 A 
ATOM     10  C   UNL     1       2.081   8.156  18.856  0.00  0.00    +0.000 A 
ATOM     11  C   UNL     1       2.587   8.615  17.520  0.00  0.00    +0.000 C 
ATOM     12  C   UNL     1       1.310   9.030  19.640  0.00  0.00    +0.000 A 
ENDBRANCH   2   6
BRANCH   5  13
ATOM     13  N   UNL     1      -1.429  12.506  23.265  0.00  0.00    +0.000 N 
ATOM     14  C   UNL     1      -2.872  12.642  23.540  0.00  0.00    +0.000 C 
ATOM     15  C   UNL     1      -3.530  13.735  22.680  0.00  0.00    +0.000 C 
ATOM     16  O   UNL     1      -2.833  14.986  22.781  0.00  0.00    +0.000 OA
ATOM     17  C   UNL     1      -1.496  14.821  22.312  0.00  0.00    +0.000 C 
ATOM     18  C   UNL     1      -0.733  13.794  23.148  0.00  0.00    +0.000 C 
ENDBRANCH   5  13
BRANCH   1  19
ATOM     19  C   UNL     1       0.559  11.845  20.575  0.00  0.00    +0.000 C 
BRANCH  19  22
ATOM     20  C   UNL     1       0.193  13.843  19.121  0.00  0.00    +0.000 C 
ATOM     21  O   UNL     1      -0.552  14.598  18.496  0.00  0.00    +0.000 OA
ATOM     22  N   UNL     1      -0.283  12.717  19.788  0.00  0.00    +0.000 N 
BRANCH  20  24
ATOM     23  C   UNL     1       2.145  15.340  18.440  0.00  0.00    +0.000 C 
ATOM     24  C   UNL     1       1.712  14.047  19.113  0.00  0.00    +0.000 C 
ENDBRANCH  20  24
BRANCH  22  25
ATOM     25  C   UNL     1      -1.699  12.345  19.705  0.00  0.00    +0.000 C 
BRANCH  25  26
ATOM     26  C   UNL     1      -2.086  11.600  18.443  0.00  0.00    +0.000 A 
ATOM     27  C   UNL     1      -1.252  10.590  17.940  0.00  0.00    +0.000 A 
ATOM     28  C   UNL     1      -1.667   9.778  16.883  0.00  0.00    +0.000 A 
ATOM     29  C   UNL     1      -2.920   9.974  16.321  0.00  0.00    +0.000 A 
ATOM     30  F   UNL     1      -3.342   9.156  15.346  0.00  0.00    +0.000 F 
ATOM     31  C   UNL     1      -3.750  10.993  16.771  0.00  0.00    +0.000 A 
ATOM     32  C   UNL     1      -3.335  11.808  17.829  0.00  0.00    +0.000 A 
ENDBRANCH  25  26
ENDBRANCH  22  25
ENDBRANCH  19  22
ENDBRANCH   1  19
TORSDOF 7
ENDMDL
MODEL 6
REMARK VINA RESULT:      -6.6      3.559      5.949
REMARK  Name = 
REMARK  9 active torsions:
REMARK  status: ('A' for Active; 'I' for Inactive)
REMARK    1  A    between atoms: C_1  and  C_2
REMARK    2  A    between atoms: C_2  and  C_3
REMARK    3  A    between atoms: N_5  and  C_6
REMARK    4  A    between atoms: N_5  and  C_14
REMARK    5  A    between atoms: C_6  and  C_7
REMARK    6  A    between atoms: C_14  and  C_15
REMARK    7  A    between atoms: C_16  and  C_17
REMARK    8  A    between atoms: C_21  and  C_22
REMARK    9  A    between atoms: C_26  and  N_27
REMARK                            x       y       z     vdW  Elec       q    Type
REMARK                         _______ _______ _______ _____ _____    ______ ____
ROOT
ATOM      1  C   UNL     1      -4.246  12.994  20.427  0.00  0.00    +0.000 A 
ATOM      2  C   UNL     1      -4.670  12.117  19.351  0.00  0.00    +0.000 A 
ATOM      3  N   UNL     1      -5.969  11.821  19.482  0.00  0.00    +0.000 NA
ATOM      4  O   UNL     1      -6.396  12.423  20.629  0.00  0.00    +0.000 OA
ATOM      5  C   UNL     1      -5.392  13.139  21.210  0.00  0.00    +0.000 A 
ENDROOT
BRANCH   2   6
ATOM      6  C   UNL     1      -3.898  11.543  18.233  0.00  0.00    +0.000 A 
ATOM      7  C   UNL     1      -4.437  11.516  16.938  0.00  0.00    +0.000 A 
ATOM      8  C   UNL     1      -3.733  10.933  15.878  0.00  0.00    +0.000 A 
ATOM      9  C   UNL     1      -2.473  10.372  16.090  0.00  0.00    +0.000 A 
ATOM     10  C   UNL     1      -1.908  10.392  17.367  0.00  0.00    +0.000 A 
ATOM     11  C   UNL     1      -0.565   9.781  17.639  0.00  0.00    +0.000 C 
ATOM     12  C   UNL     1      -2.632  10.967  18.424  0.00  0.00    +0.000 A 
ENDBRANCH   2   6
BRANCH   5  13
ATOM     13  N   UNL     1      -5.712  13.793  22.364  0.00  0.00    +0.000 N 
ATOM     14  C   UNL     1      -5.929  13.059  23.625  0.00  0.00    +0.000 C 
ATOM     15  C   UNL     1      -7.375  13.191  24.136  0.00  0.00    +0.000 C 
ATOM     16  O   UNL     1      -7.787  14.563  24.223  0.00  0.00    +0.000 OA
ATOM     17  C   UNL     1      -7.738  15.154  22.926  0.00  0.00    +0.000 C 
ATOM     18  C   UNL     1      -6.320  15.129  22.354  0.00  0.00    +0.000 C 
ENDBRANCH   5  13
BRANCH   1  19
ATOM     19  C   UNL     1      -2.832  13.473  20.567  0.00  0.00    +0.000 C 
BRANCH  19  22
ATOM     20  C   UNL     1      -1.763  14.706  22.459  0.00  0.00    +0.000 C 
ATOM     21  O   UNL     1      -1.273  14.732  23.587  0.00  0.00    +0.000 OA
ATOM     22  N   UNL     1      -2.302  13.545  21.911  0.00  0.00    +0.000 N 
BRANCH  20  24
ATOM     23  C   UNL     1      -2.525  17.142  22.394  0.00  0.00    +0.000 C 
ATOM     24  C   UNL     1      -1.899  15.987  21.627  0.00  0.00    +0.000 C 
ENDBRANCH  20  24
BRANCH  22  25
ATOM     25  C   UNL     1      -2.374  12.313  22.700  0.00  0.00    +0.000 C 
BRANCH  25  26
ATOM     26  C   UNL     1      -1.299  11.291  22.383  0.00  0.00    +0.000 A 
ATOM     27  C   UNL     1      -0.481  11.460  21.256  0.00  0.00    +0.000 A 
ATOM     28  C   UNL     1       0.620  10.630  21.039  0.00  0.00    +0.000 A 
ATOM     29  C   UNL     1       0.907   9.623  21.949  0.00  0.00    +0.000 A 
ATOM     30  F   UNL     1       1.998   8.864  21.771  0.00  0.00    +0.000 F 
ATOM     31  C   UNL     1       0.091   9.406  23.051  0.00  0.00    +0.000 A 
ATOM     32  C   UNL     1      -1.014  10.237  23.270  0.00  0.00    +0.000 A 
ENDBRANCH  25  26
ENDBRANCH  22  25
ENDBRANCH  19  22
ENDBRANCH   1  19
TORSDOF 7
ENDMDL
MODEL 7
REMARK VINA RESULT:      -6.6      2.526      5.514
REMARK  Name = 
REMARK  9 active torsions:
REMARK  status: ('A' for Active; 'I' for Inactive)
REMARK    1  A    between atoms: C_1  and  C_2
REMARK    2  A    between atoms: C_2  and  C_3
REMARK    3  A    between atoms: N_5  and  C_6
REMARK    4  A    between atoms: N_5  and  C_14
REMARK    5  A    between atoms: C_6  and  C_7
REMARK    6  A    between atoms: C_14  and  C_15
REMARK    7  A    between atoms: C_16  and  C_17
REMARK    8  A    between atoms: C_21  and  C_22
REMARK    9  A    between atoms: C_26  and  N_27
REMARK                            x       y       z     vdW  Elec       q    Type
REMARK                         _______ _______ _______ _____ _____    ______ ____
ROOT
ATOM      1  C   UNL     1      -0.225  12.759  21.761  0.00  0.00    +0.000 A 
ATOM      2  C   UNL     1       0.906  12.072  21.167  0.00  0.00    +0.000 A 
ATOM      3  N   UNL     1       1.900  12.938  20.931  0.00  0.00    +0.000 NA
ATOM      4  O   UNL     1       1.444  14.170  21.296  0.00  0.00    +0.000 OA
ATOM      5  C   UNL     1       0.181  14.094  21.806  0.00  0.00    +0.000 A 
ENDROOT
BRANCH   2   6
ATOM      6  C   UNL     1       1.071  10.653  20.801  0.00  0.00    +0.000 A 
ATOM      7  C   UNL     1       0.958   9.650  21.775  0.00  0.00    +0.000 A 
ATOM      8  C   UNL     1       1.157   8.304  21.448  0.00  0.00    +0.000 A 
ATOM      9  C   UNL     1       1.466   7.932  20.139  0.00  0.00    +0.000 A 
ATOM     10  C   UNL     1       1.577   8.908  19.147  0.00  0.00    +0.000 A 
ATOM     11  C   UNL     1       1.929   8.551  17.732  0.00  0.00    +0.000 C 
ATOM     12  C   UNL     1       1.389  10.256  19.492  0.00  0.00    +0.000 A 
ENDBRANCH   2   6
BRANCH   5  13
ATOM     13  N   UNL     1      -0.373  15.272  22.213  0.00  0.00    +0.000 N 
ATOM     14  C   UNL     1      -1.001  15.404  23.542  0.00  0.00    +0.000 C 
ATOM     15  C   UNL     1      -2.509  15.693  23.449  0.00  0.00    +0.000 C 
ATOM     16  O   UNL     1      -2.787  16.816  22.598  0.00  0.00    +0.000 OA
ATOM     17  C   UNL     1      -2.324  16.534  21.278  0.00  0.00    +0.000 C 
ATOM     18  C   UNL     1      -0.815  16.293  21.255  0.00  0.00    +0.000 C 
ENDBRANCH   5  13
BRANCH   1  19
ATOM     19  C   UNL     1      -1.503  12.057  22.109  0.00  0.00    +0.000 C 
BRANCH  19  22
ATOM     20  C   UNL     1      -3.910  12.717  22.239  0.00  0.00    +0.000 C 
ATOM     21  O   UNL     1      -4.942  13.132  21.714  0.00  0.00    +0.000 OA
ATOM     22  N   UNL     1      -2.716  12.594  21.533  0.00  0.00    +0.000 N 
BRANCH  20  24
ATOM     23  C   UNL     1      -5.204  12.534  24.432  0.00  0.00    +0.000 C 
ATOM     24  C   UNL     1      -3.856  12.406  23.740  0.00  0.00    +0.000 C 
ENDBRANCH  20  24
BRANCH  22  25
ATOM     25  C   UNL     1      -2.628  13.033  20.137  0.00  0.00    +0.000 C 
BRANCH  25  26
ATOM     26  C   UNL     1      -2.800  11.929  19.112  0.00  0.00    +0.000 A 
ATOM     27  C   UNL     1      -4.066  11.671  18.564  0.00  0.00    +0.000 A 
ATOM     28  C   UNL     1      -4.218  10.780  17.500  0.00  0.00    +0.000 A 
ATOM     29  C   UNL     1      -3.103  10.140  16.979  0.00  0.00    +0.000 A 
ATOM     30  F   UNL     1      -3.241   9.330  15.919  0.00  0.00    +0.000 F 
ATOM     31  C   UNL     1      -1.844  10.345  17.528  0.00  0.00    +0.000 A 
ATOM     32  C   UNL     1      -1.690  11.236  18.596  0.00  0.00    +0.000 A 
ENDBRANCH  25  26
ENDBRANCH  22  25
ENDBRANCH  19  22
ENDBRANCH   1  19
TORSDOF 7
ENDMDL
MODEL 8
REMARK VINA RESULT:      -6.6      3.016      5.767
REMARK  Name = 
REMARK  9 active torsions:
REMARK  status: ('A' for Active; 'I' for Inactive)
REMARK    1  A    between atoms: C_1  and  C_2
REMARK    2  A    between atoms: C_2  and  C_3
REMARK    3  A    between atoms: N_5  and  C_6
REMARK    4  A    between atoms: N_5  and  C_14
REMARK    5  A    between atoms: C_6  and  C_7
REMARK    6  A    between atoms: C_14  and  C_15
REMARK    7  A    between atoms: C_16  and  C_17
REMARK    8  A    between atoms: C_21  and  C_22
REMARK    9  A    between atoms: C_26  and  N_27
REMARK                            x       y       z     vdW  Elec       q    Type
REMARK                         _______ _______ _______ _____ _____    ______ ____
ROOT
ATOM      1  C   UNL     1       0.216  10.592  21.298  0.00  0.00    +0.000 A 
ATOM      2  C   UNL     1       0.495   9.202  21.610  0.00  0.00    +0.000 A 
ATOM      3  N   UNL     1       0.019   8.897  22.823  0.00  0.00    +0.000 NA
ATOM      4  O   UNL     1      -0.510  10.044  23.339  0.00  0.00    +0.000 OA
ATOM      5  C   UNL     1      -0.416  11.071  22.446  0.00  0.00    +0.000 A 
ENDROOT
BRANCH   2   6
ATOM      6  C   UNL     1       1.201   8.174  20.822  0.00  0.00    +0.000 A 
ATOM      7  C   UNL     1       1.837   8.514  19.618  0.00  0.00    +0.000 A 
ATOM      8  C   UNL     1       2.472   7.539  18.841  0.00  0.00    +0.000 A 
ATOM      9  C   UNL     1       2.490   6.206  19.253  0.00  0.00    +0.000 A 
ATOM     10  C   UNL     1       1.872   5.841  20.451  0.00  0.00    +0.000 A 
ATOM     11  C   UNL     1       1.852   4.415  20.918  0.00  0.00    +0.000 C 
ATOM     12  C   UNL     1       1.227   6.827  21.214  0.00  0.00    +0.000 A 
ENDBRANCH   2   6
BRANCH   5  13
ATOM     13  N   UNL     1      -0.925  12.269  22.856  0.00  0.00    +0.000 N 
ATOM     14  C   UNL     1      -2.331  12.398  23.282  0.00  0.00    +0.000 C 
ATOM     15  C   UNL     1      -3.140  13.322  22.355  0.00  0.00    +0.000 C 
ATOM     16  O   UNL     1      -2.501  14.596  22.180  0.00  0.00    +0.000 OA
ATOM     17  C   UNL     1      -1.220  14.404  21.581  0.00  0.00    +0.000 C 
ATOM     18  C   UNL     1      -0.314  13.545  22.462  0.00  0.00    +0.000 C 
ENDBRANCH   5  13
BRANCH   1  19
ATOM     19  C   UNL     1       0.657  11.235  20.017  0.00  0.00    +0.000 C 
BRANCH  19  22
ATOM     20  C   UNL     1       0.020  13.166  18.566  0.00  0.00    +0.000 C 
ATOM     21  O   UNL     1      -0.831  13.878  18.033  0.00  0.00    +0.000 OA
ATOM     22  N   UNL     1      -0.318  12.055  19.334  0.00  0.00    +0.000 N 
BRANCH  20  24
ATOM     23  C   UNL     1       1.976  14.797  18.742  0.00  0.00    +0.000 C 
ATOM     24  C   UNL     1       1.515  13.408  18.327  0.00  0.00    +0.000 C 
ENDBRANCH  20  24
BRANCH  22  25
ATOM     25  C   UNL     1      -1.718  11.644  19.474  0.00  0.00    +0.000 C 
BRANCH  25  26
ATOM     26  C   UNL     1      -2.346  11.086  18.212  0.00  0.00    +0.000 A 
ATOM     27  C   UNL     1      -3.550  11.622  17.730  0.00  0.00    +0.000 A 
ATOM     28  C   UNL     1      -4.055  11.243  16.485  0.00  0.00    +0.000 A 
ATOM     29  C   UNL     1      -3.360  10.321  15.716  0.00  0.00    +0.000 A 
ATOM     30  F   UNL     1      -3.814  10.002  14.496  0.00  0.00    +0.000 F 
ATOM     31  C   UNL     1      -2.187   9.743  16.185  0.00  0.00    +0.000 A 
ATOM     32  C   UNL     1      -1.680  10.121  17.433  0.00  0.00    +0.000 A 
ENDBRANCH  25  26
ENDBRANCH  22  25
ENDBRANCH  19  22
ENDBRANCH   1  19
TORSDOF 7
ENDMDL
MODEL 9
REMARK VINA RESULT:      -6.5      3.450      5.902
REMARK  Name = 
REMARK  9 active torsions:
REMARK  status: ('A' for Active; 'I' for Inactive)
REMARK    1  A    between atoms: C_1  and  C_2
REMARK    2  A    between atoms: C_2  and  C_3
REMARK    3  A    between atoms: N_5  and  C_6
REMARK    4  A    between atoms: N_5  and  C_14
REMARK    5  A    between atoms: C_6  and  C_7
REMARK    6  A    between atoms: C_14  and  C_15
REMARK    7  A    between atoms: C_16  and  C_17
REMARK    8  A    between atoms: C_21  and  C_22
REMARK    9  A    between atoms: C_26  and  N_27
REMARK                            x       y       z     vdW  Elec       q    Type
REMARK                         _______ _______ _______ _____ _____    ______ ____
ROOT
ATOM      1  C   UNL     1      -3.908  13.399  20.501  0.00  0.00    +0.000 A 
ATOM      2  C   UNL     1      -4.292  12.342  19.584  0.00  0.00    +0.000 A 
ATOM      3  N   UNL     1      -5.603  12.092  19.690  0.00  0.00    +0.000 NA
ATOM      4  O   UNL     1      -6.080  12.904  20.677  0.00  0.00    +0.000 OA
ATOM      5  C   UNL     1      -5.093  13.704  21.174  0.00  0.00    +0.000 A 
ENDROOT
BRANCH   2   6
ATOM      6  C   UNL     1      -3.473  11.558  18.640  0.00  0.00    +0.000 A 
ATOM      7  C   UNL     1      -2.254  10.998  19.053  0.00  0.00    +0.000 A 
ATOM      8  C   UNL     1      -1.448  10.291  18.154  0.00  0.00    +0.000 A 
ATOM      9  C   UNL     1      -1.846  10.123  16.827  0.00  0.00    +0.000 A 
ATOM     10  C   UNL     1      -3.057  10.663  16.391  0.00  0.00    +0.000 A 
ATOM     11  C   UNL     1      -3.510  10.522  14.967  0.00  0.00    +0.000 C 
ATOM     12  C   UNL     1      -3.850  11.382  17.300  0.00  0.00    +0.000 A 
ENDBRANCH   2   6
BRANCH   5  13
ATOM     13  N   UNL     1      -5.462  14.567  22.164  0.00  0.00    +0.000 N 
ATOM     14  C   UNL     1      -5.696  15.996  21.885  0.00  0.00    +0.000 C 
ATOM     15  C   UNL     1      -4.693  16.906  22.616  0.00  0.00    +0.000 C 
ATOM     16  O   UNL     1      -4.642  16.623  24.023  0.00  0.00    +0.000 OA
ATOM     17  C   UNL     1      -4.217  15.274  24.218  0.00  0.00    +0.000 C 
ATOM     18  C   UNL     1      -5.190  14.284  23.578  0.00  0.00    +0.000 C 
ENDBRANCH   5  13
BRANCH   1  19
ATOM     19  C   UNL     1      -2.494  13.878  20.633  0.00  0.00    +0.000 C 
BRANCH  19  22
ATOM     20  C   UNL     1      -1.137  14.738  22.547  0.00  0.00    +0.000 C 
ATOM     21  O   UNL     1      -0.582  14.574  23.633  0.00  0.00    +0.000 OA
ATOM     22  N   UNL     1      -1.878  13.732  21.933  0.00  0.00    +0.000 N 
BRANCH  20  24
ATOM     23  C   UNL     1      -0.984  17.272  22.818  0.00  0.00    +0.000 C 
ATOM     24  C   UNL     1      -1.127  16.105  21.853  0.00  0.00    +0.000 C 
ENDBRANCH  20  24
BRANCH  22  25
ATOM     25  C   UNL     1      -2.089  12.446  22.606  0.00  0.00    +0.000 C 
BRANCH  25  26
ATOM     26  C   UNL     1      -0.963  11.446  22.432  0.00  0.00    +0.000 A 
ATOM     27  C   UNL     1      -0.932  10.281  23.215  0.00  0.00    +0.000 A 
ATOM     28  C   UNL     1      -0.006   9.269  22.956  0.00  0.00    +0.000 A 
ATOM     29  C   UNL     1       0.897   9.418  21.914  0.00  0.00    +0.000 A 
ATOM     30  F   UNL     1       1.747   8.421  21.629  0.00  0.00    +0.000 F 
ATOM     31  C   UNL     1       0.917  10.578  21.150  0.00  0.00    +0.000 A 
ATOM     32  C   UNL     1      -0.010  11.594  21.408  0.00  0.00    +0.000 A 
ENDBRANCH  25  26
ENDBRANCH  22  25
ENDBRANCH  19  22
ENDBRANCH   1  19
TORSDOF 7
ENDMDL
