MODEL 1
REMARK VINA RESULT:      -7.5      0.000      0.000
REMARK  Name = 
REMARK  5 active torsions:
REMARK  status: ('A' for Active; 'I' for Inactive)
REMARK    1  A    between atoms: C_1  and  C_2
REMARK    2  A    between atoms: C_2  and  N_3
REMARK    3  A    between atoms: N_3  and  C_4
REMARK    4  A    between atoms: C_4  and  C_5
REMARK    5  A    between atoms: C_16  and  C_17
REMARK                            x       y       z     vdW  Elec       q    Type
REMARK                         _______ _______ _______ _____ _____    ______ ____
ROOT
ATOM      1  N   UNL     1      -1.781  12.166  21.437  0.00  0.00    +0.000 N 
ATOM      2  C   UNL     1      -1.097  11.228  22.208  0.00  0.00    +0.000 C 
ATOM      3  O   UNL     1      -1.493  10.960  23.347  0.00  0.00    +0.000 OA
ATOM      4  N   UNL     1      -0.013  10.549  21.700  0.00  0.00    +0.000 N 
ATOM      5  C   UNL     1       0.391   9.295  22.354  0.00  0.00    +0.000 C 
ATOM      6  C   UNL     1       0.553   8.162  21.320  0.00  0.00    +0.000 C 
ATOM      7  N   UNL     1       1.392   8.589  20.183  0.00  0.00    +0.000 N 
ATOM      8  C   UNL     1       2.183   7.729  19.488  0.00  0.00    +0.000 C 
ATOM      9  N   UNL     1       2.629   7.856  18.286  0.00  0.00    +0.000 NA
ATOM     10  C   UNL     1       3.371   6.736  18.055  0.00  0.00    +0.000 C 
ATOM     11  O   UNL     1       4.000   6.511  17.027  0.00  0.00    +0.000 OA
ATOM     12  C   UNL     1       3.313   5.823  19.262  0.00  0.00    +0.000 C 
ATOM     13  O   UNL     1       2.569   6.632  20.179  0.00  0.00    +0.000 OA
ATOM     14  C   UNL     1       0.980   9.858  19.568  0.00  0.00    +0.000 C 
ATOM     15  C   UNL     1       0.944  10.937  20.657  0.00  0.00    +0.000 C 
ENDROOT
BRANCH  12  16
ATOM     16  C   UNL     1       2.614   4.503  19.017  0.00  0.00    +0.000 A 
ATOM     17  C   UNL     1       1.439   4.195  19.721  0.00  0.00    +0.000 A 
ATOM     18  C   UNL     1       0.797   2.971  19.532  0.00  0.00    +0.000 A 
ATOM     19  C   UNL     1       1.312   2.044  18.630  0.00  0.00    +0.000 A 
ATOM     20  C   UNL     1       2.462   2.343  17.905  0.00  0.00    +0.000 A 
ATOM     21  C   UNL     1       3.105   3.567  18.092  0.00  0.00    +0.000 A 
ENDBRANCH  12  16
BRANCH   1  23
ATOM     22  C   UNL     1      -2.403  14.309  22.564  0.00  0.00    +0.000 C 
ATOM     23  C   UNL     1      -2.841  12.913  22.127  0.00  0.00    +0.000 C 
ENDBRANCH   1  23
BRANCH   1  24
ATOM     24  C   UNL     1      -1.530  12.456  20.024  0.00  0.00    +0.000 C 
ATOM     25  C   UNL     1      -2.416  11.850  18.948  0.00  0.00    +0.000 C 
ENDBRANCH   1  24
TORSDOF 3
ENDMDL
MODEL 2
REMARK VINA RESULT:      -7.4      0.837      1.028
REMARK  Name = 
REMARK  5 active torsions:
REMARK  status: ('A' for Active; 'I' for Inactive)
REMARK    1  A    between atoms: C_1  and  C_2
REMARK    2  A    between atoms: C_2  and  N_3
REMARK    3  A    between atoms: N_3  and  C_4
REMARK    4  A    between atoms: C_4  and  C_5
REMARK    5  A    between atoms: C_16  and  C_17
REMARK                            x       y       z     vdW  Elec       q    Type
REMARK                         _______ _______ _______ _____ _____    ______ ____
ROOT
ATOM      1  N   UNL     1      -2.193  12.617  21.522  0.00  0.00    +0.000 N 
ATOM      2  C   UNL     1      -1.577  11.661  22.327  0.00  0.00    +0.000 C 
ATOM      3  O   UNL     1      -2.045  11.397  23.439  0.00  0.00    +0.000 OA
ATOM      4  N   UNL     1      -0.481  10.960  21.879  0.00  0.00    +0.000 N 
ATOM      5  C   UNL     1      -0.144   9.694  22.550  0.00  0.00    +0.000 C 
ATOM      6  C   UNL     1       0.054   8.563  21.520  0.00  0.00    +0.000 C 
ATOM      7  N   UNL     1       0.968   8.976  20.437  0.00  0.00    +0.000 N 
ATOM      8  C   UNL     1       1.779   8.102  19.785  0.00  0.00    +0.000 C 
ATOM      9  N   UNL     1       2.299   8.224  18.612  0.00  0.00    +0.000 NA
ATOM     10  C   UNL     1       3.028   7.088  18.419  0.00  0.00    +0.000 C 
ATOM     11  O   UNL     1       3.711   6.854  17.429  0.00  0.00    +0.000 OA
ATOM     12  C   UNL     1       2.878   6.171  19.615  0.00  0.00    +0.000 C 
ATOM     13  O   UNL     1       2.100   6.993  20.491  0.00  0.00    +0.000 OA
ATOM     14  C   UNL     1       0.621  10.257  19.806  0.00  0.00    +0.000 C 
ATOM     15  C   UNL     1       0.545  11.331  20.897  0.00  0.00    +0.000 C 
ENDROOT
BRANCH  12  16
ATOM     16  C   UNL     1       2.166   4.869  19.322  0.00  0.00    +0.000 A 
ATOM     17  C   UNL     1       1.417   4.241  20.330  0.00  0.00    +0.000 A 
ATOM     18  C   UNL     1       0.779   3.024  20.088  0.00  0.00    +0.000 A 
ATOM     19  C   UNL     1       0.870   2.425  18.835  0.00  0.00    +0.000 A 
ATOM     20  C   UNL     1       1.586   3.046  17.816  0.00  0.00    +0.000 A 
ATOM     21  C   UNL     1       2.225   4.263  18.055  0.00  0.00    +0.000 A 
ENDBRANCH  12  16
BRANCH   1  23
ATOM     22  C   UNL     1      -4.661  13.005  21.636  0.00  0.00    +0.000 C 
ATOM     23  C   UNL     1      -3.276  13.386  22.153  0.00  0.00    +0.000 C 
ENDBRANCH   1  23
BRANCH   1  24
ATOM     24  C   UNL     1      -1.853  12.909  20.128  0.00  0.00    +0.000 C 
ATOM     25  C   UNL     1      -1.073  14.164  19.776  0.00  0.00    +0.000 C 
ENDBRANCH   1  24
TORSDOF 3
ENDMDL
MODEL 3
REMARK VINA RESULT:      -7.4      4.104      9.565
REMARK  Name = 
REMARK  5 active torsions:
REMARK  status: ('A' for Active; 'I' for Inactive)
REMARK    1  A    between atoms: C_1  and  C_2
REMARK    2  A    between atoms: C_2  and  N_3
REMARK    3  A    between atoms: N_3  and  C_4
REMARK    4  A    between atoms: C_4  and  C_5
REMARK    5  A    between atoms: C_16  and  C_17
REMARK                            x       y       z     vdW  Elec       q    Type
REMARK                         _______ _______ _______ _____ _____    ______ ____
ROOT
ATOM      1  N   UNL     1       6.529   4.034  13.015  0.00  0.00    +0.000 N 
ATOM      2  C   UNL     1       6.968   4.774  14.111  0.00  0.00    +0.000 C 
ATOM      3  O   UNL     1       7.905   5.569  13.982  0.00  0.00    +0.000 OA
ATOM      4  N   UNL     1       6.338   4.675  15.330  0.00  0.00    +0.000 N 
ATOM      5  C   UNL     1       6.535   5.760  16.304  0.00  0.00    +0.000 C 
ATOM      6  C   UNL     1       5.182   6.261  16.851  0.00  0.00    +0.000 C 
ATOM      7  N   UNL     1       4.338   5.138  17.305  0.00  0.00    +0.000 N 
ATOM      8  C   UNL     1       3.446   5.253  18.325  0.00  0.00    +0.000 C 
ATOM      9  N   UNL     1       2.405   4.530  18.555  0.00  0.00    +0.000 NA
ATOM     10  C   UNL     1       1.851   5.044  19.689  0.00  0.00    +0.000 C 
ATOM     11  O   UNL     1       0.861   4.591  20.253  0.00  0.00    +0.000 OA
ATOM     12  C   UNL     1       2.648   6.246  20.153  0.00  0.00    +0.000 C 
ATOM     13  O   UNL     1       3.732   6.229  19.218  0.00  0.00    +0.000 OA
ATOM     14  C   UNL     1       4.182   4.059  16.321  0.00  0.00    +0.000 C 
ATOM     15  C   UNL     1       5.576   3.566  15.915  0.00  0.00    +0.000 C 
ENDROOT
BRANCH  12  16
ATOM     16  C   UNL     1       1.899   7.559  20.087  0.00  0.00    +0.000 A 
ATOM     17  C   UNL     1       1.181   8.009  21.206  0.00  0.00    +0.000 A 
ATOM     18  C   UNL     1       0.458   9.202  21.155  0.00  0.00    +0.000 A 
ATOM     19  C   UNL     1       0.453   9.965  19.991  0.00  0.00    +0.000 A 
ATOM     20  C   UNL     1       1.180   9.547  18.880  0.00  0.00    +0.000 A 
ATOM     21  C   UNL     1       1.903   8.355  18.929  0.00  0.00    +0.000 A 
ENDBRANCH  12  16
BRANCH   1  23
ATOM     22  C   UNL     1       7.660   2.771  11.178  0.00  0.00    +0.000 C 
ATOM     23  C   UNL     1       7.356   4.129  11.804  0.00  0.00    +0.000 C 
ENDBRANCH   1  23
BRANCH   1  24
ATOM     24  C   UNL     1       5.334   3.188  12.978  0.00  0.00    +0.000 C 
ATOM     25  C   UNL     1       4.361   3.288  11.816  0.00  0.00    +0.000 C 
ENDBRANCH   1  24
TORSDOF 3
ENDMDL
MODEL 4
REMARK VINA RESULT:      -7.4      0.683      1.254
REMARK  Name = 
REMARK  5 active torsions:
REMARK  status: ('A' for Active; 'I' for Inactive)
REMARK    1  A    between atoms: C_1  and  C_2
REMARK    2  A    between atoms: C_2  and  N_3
REMARK    3  A    between atoms: N_3  and  C_4
REMARK    4  A    between atoms: C_4  and  C_5
REMARK    5  A    between atoms: C_16  and  C_17
REMARK                            x       y       z     vdW  Elec       q    Type
REMARK                         _______ _______ _______ _____ _____    ______ ____
ROOT
ATOM      1  N   UNL     1      -1.699  12.587  20.573  0.00  0.00    +0.000 N 
ATOM      2  C   UNL     1      -1.075  11.714  21.462  0.00  0.00    +0.000 C 
ATOM      3  O   UNL     1      -1.522  11.574  22.605  0.00  0.00    +0.000 OA
ATOM      4  N   UNL     1       0.004  10.955  21.069  0.00  0.00    +0.000 N 
ATOM      5  C   UNL     1       0.342   9.764  21.863  0.00  0.00    +0.000 C 
ATOM      6  C   UNL     1       0.506   8.527  20.956  0.00  0.00    +0.000 C 
ATOM      7  N   UNL     1       1.401   8.812  19.816  0.00  0.00    +0.000 N 
ATOM      8  C   UNL     1       2.189   7.864  19.244  0.00  0.00    +0.000 C 
ATOM      9  N   UNL     1       2.684   7.853  18.055  0.00  0.00    +0.000 NA
ATOM     10  C   UNL     1       3.397   6.695  17.969  0.00  0.00    +0.000 C 
ATOM     11  O   UNL     1       4.057   6.349  16.996  0.00  0.00    +0.000 OA
ATOM     12  C   UNL     1       3.264   5.912  19.259  0.00  0.00    +0.000 C 
ATOM     13  O   UNL     1       2.513   6.832  20.058  0.00  0.00    +0.000 OA
ATOM     14  C   UNL     1       1.054  10.022  19.060  0.00  0.00    +0.000 C 
ATOM     15  C   UNL     1       1.011  11.208  20.032  0.00  0.00    +0.000 C 
ENDROOT
BRANCH  12  16
ATOM     16  C   UNL     1       2.532   4.595  19.120  0.00  0.00    +0.000 A 
ATOM     17  C   UNL     1       2.899   3.697  18.105  0.00  0.00    +0.000 A 
ATOM     18  C   UNL     1       2.216   2.492  17.941  0.00  0.00    +0.000 A 
ATOM     19  C   UNL     1       1.167   2.162  18.796  0.00  0.00    +0.000 A 
ATOM     20  C   UNL     1       0.807   3.029  19.824  0.00  0.00    +0.000 A 
ATOM     21  C   UNL     1       1.489   4.234  19.989  0.00  0.00    +0.000 A 
ENDBRANCH  12  16
BRANCH   1  23
ATOM     22  C   UNL     1      -4.160  12.871  20.907  0.00  0.00    +0.000 C 
ATOM     23  C   UNL     1      -2.759  13.431  21.141  0.00  0.00    +0.000 C 
ENDBRANCH   1  23
BRANCH   1  24
ATOM     24  C   UNL     1      -1.386  12.724  19.149  0.00  0.00    +0.000 C 
ATOM     25  C   UNL     1      -2.077  11.841  18.124  0.00  0.00    +0.000 C 
ENDBRANCH   1  24
TORSDOF 3
ENDMDL
MODEL 5
REMARK VINA RESULT:      -7.4      1.414      1.623
REMARK  Name = 
REMARK  5 active torsions:
REMARK  status: ('A' for Active; 'I' for Inactive)
REMARK    1  A    between atoms: C_1  and  C_2
REMARK    2  A    between atoms: C_2  and  N_3
REMARK    3  A    between atoms: N_3  and  C_4
REMARK    4  A    between atoms: C_4  and  C_5
REMARK    5  A    between atoms: C_16  and  C_17
REMARK                            x       y       z     vdW  Elec       q    Type
REMARK                         _______ _______ _______ _____ _____    ______ ____
ROOT
ATOM      1  N   UNL     1      -3.214  12.830  21.793  0.00  0.00    +0.000 N 
ATOM      2  C   UNL     1      -2.393  12.017  22.572  0.00  0.00    +0.000 C 
ATOM      3  O   UNL     1      -2.716  11.747  23.734  0.00  0.00    +0.000 OA
ATOM      4  N   UNL     1      -1.249  11.459  22.050  0.00  0.00    +0.000 N 
ATOM      5  C   UNL     1      -0.669  10.292  22.734  0.00  0.00    +0.000 C 
ATOM      6  C   UNL     1      -0.397   9.149  21.735  0.00  0.00    +0.000 C 
ATOM      7  N   UNL     1       0.345   9.632  20.554  0.00  0.00    +0.000 N 
ATOM      8  C   UNL     1       1.216   8.851  19.862  0.00  0.00    +0.000 C 
ATOM      9  N   UNL     1       1.605   8.985  18.640  0.00  0.00    +0.000 NA
ATOM     10  C   UNL     1       2.475   7.958  18.423  0.00  0.00    +0.000 C 
ATOM     11  O   UNL     1       3.095   7.773  17.382  0.00  0.00    +0.000 OA
ATOM     12  C   UNL     1       2.571   7.094  19.663  0.00  0.00    +0.000 C 
ATOM     13  O   UNL     1       1.760   7.839  20.577  0.00  0.00    +0.000 OA
ATOM     14  C   UNL     1      -0.243  10.814  19.909  0.00  0.00    +0.000 C 
ATOM     15  C   UNL     1      -0.382  11.922  20.960  0.00  0.00    +0.000 C 
ENDROOT
BRANCH  12  16
ATOM     16  C   UNL     1       2.037   5.688  19.490  0.00  0.00    +0.000 A 
ATOM     17  C   UNL     1       1.544   4.988  20.603  0.00  0.00    +0.000 A 
ATOM     18  C   UNL     1       1.077   3.680  20.470  0.00  0.00    +0.000 A 
ATOM     19  C   UNL     1       1.084   3.059  19.224  0.00  0.00    +0.000 A 
ATOM     20  C   UNL     1       1.545   3.748  18.105  0.00  0.00    +0.000 A 
ATOM     21  C   UNL     1       2.013   5.056  18.236  0.00  0.00    +0.000 A 
ENDBRANCH  12  16
BRANCH   1  23
ATOM     22  C   UNL     1      -5.368  14.074  21.547  0.00  0.00    +0.000 C 
ATOM     23  C   UNL     1      -4.338  13.466  22.495  0.00  0.00    +0.000 C 
ENDBRANCH   1  23
BRANCH   1  24
ATOM     24  C   UNL     1      -3.046  13.093  20.363  0.00  0.00    +0.000 C 
ATOM     25  C   UNL     1      -3.664  12.161  19.335  0.00  0.00    +0.000 C 
ENDBRANCH   1  24
TORSDOF 3
ENDMDL
MODEL 6
REMARK VINA RESULT:      -7.3      1.103      1.224
REMARK  Name = 
REMARK  5 active torsions:
REMARK  status: ('A' for Active; 'I' for Inactive)
REMARK    1  A    between atoms: C_1  and  C_2
REMARK    2  A    between atoms: C_2  and  N_3
REMARK    3  A    between atoms: N_3  and  C_4
REMARK    4  A    between atoms: C_4  and  C_5
REMARK    5  A    between atoms: C_16  and  C_17
REMARK                            x       y       z     vdW  Elec       q    Type
REMARK                         _______ _______ _______ _____ _____    ______ ____
ROOT
ATOM      1  N   UNL     1      -1.579  12.315  19.918  0.00  0.00    +0.000 N 
ATOM      2  C   UNL     1      -0.901  11.548  20.864  0.00  0.00    +0.000 C 
ATOM      3  O   UNL     1      -1.320  11.488  22.025  0.00  0.00    +0.000 OA
ATOM      4  N   UNL     1       0.203  10.805  20.513  0.00  0.00    +0.000 N 
ATOM      5  C   UNL     1       0.608   9.701  21.397  0.00  0.00    +0.000 C 
ATOM      6  C   UNL     1       0.809   8.399  20.594  0.00  0.00    +0.000 C 
ATOM      7  N   UNL     1       1.668   8.623  19.415  0.00  0.00    +0.000 N 
ATOM      8  C   UNL     1       2.486   7.663  18.908  0.00  0.00    +0.000 C 
ATOM      9  N   UNL     1       2.959   7.572  17.713  0.00  0.00    +0.000 NA
ATOM     10  C   UNL     1       3.721   6.442  17.709  0.00  0.00    +0.000 C 
ATOM     11  O   UNL     1       4.376   6.042  16.754  0.00  0.00    +0.000 OA
ATOM     12  C   UNL     1       3.646   5.767  19.063  0.00  0.00    +0.000 C 
ATOM     13  O   UNL     1       2.871   6.720  19.798  0.00  0.00    +0.000 OA
ATOM     14  C   UNL     1       1.254   9.749  18.567  0.00  0.00    +0.000 C 
ATOM     15  C   UNL     1       1.178  11.010  19.436  0.00  0.00    +0.000 C 
ENDROOT
BRANCH  12  16
ATOM     16  C   UNL     1       2.971   4.413  19.053  0.00  0.00    +0.000 A 
ATOM     17  C   UNL     1       1.602   4.315  19.348  0.00  0.00    +0.000 A 
ATOM     18  C   UNL     1       0.967   3.073  19.374  0.00  0.00    +0.000 A 
ATOM     19  C   UNL     1       1.688   1.915  19.094  0.00  0.00    +0.000 A 
ATOM     20  C   UNL     1       3.040   1.996  18.774  0.00  0.00    +0.000 A 
ATOM     21  C   UNL     1       3.676   3.237  18.748  0.00  0.00    +0.000 A 
ENDBRANCH  12  16
BRANCH   1  23
ATOM     22  C   UNL     1      -4.053  12.650  20.056  0.00  0.00    +0.000 C 
ATOM     23  C   UNL     1      -2.665  13.159  20.436  0.00  0.00    +0.000 C 
ENDBRANCH   1  23
BRANCH   1  24
ATOM     24  C   UNL     1      -1.300  12.343  18.481  0.00  0.00    +0.000 C 
ATOM     25  C   UNL     1      -1.991  11.365  17.546  0.00  0.00    +0.000 C 
ENDBRANCH   1  24
TORSDOF 3
ENDMDL
MODEL 7
REMARK VINA RESULT:      -7.3      1.208      1.629
REMARK  Name = 
REMARK  5 active torsions:
REMARK  status: ('A' for Active; 'I' for Inactive)
REMARK    1  A    between atoms: C_1  and  C_2
REMARK    2  A    between atoms: C_2  and  N_3
REMARK    3  A    between atoms: N_3  and  C_4
REMARK    4  A    between atoms: C_4  and  C_5
REMARK    5  A    between atoms: C_16  and  C_17
REMARK                            x       y       z     vdW  Elec       q    Type
REMARK                         _______ _______ _______ _____ _____    ______ ____
ROOT
ATOM      1  N   UNL     1      -2.704  12.716  21.822  0.00  0.00    +0.000 N 
ATOM      2  C   UNL     1      -2.017  11.788  22.602  0.00  0.00    +0.000 C 
ATOM      3  O   UNL     1      -2.443  11.487  23.722  0.00  0.00    +0.000 OA
ATOM      4  N   UNL     1      -0.894  11.153  22.122  0.00  0.00    +0.000 N 
ATOM      5  C   UNL     1      -0.472   9.902  22.770  0.00  0.00    +0.000 C 
ATOM      6  C   UNL     1      -0.235   8.793  21.724  0.00  0.00    +0.000 C 
ATOM      7  N   UNL     1       0.628   9.268  20.624  0.00  0.00    +0.000 N 
ATOM      8  C   UNL     1       1.471   8.447  19.944  0.00  0.00    +0.000 C 
ATOM      9  N   UNL     1       1.955   8.609  18.761  0.00  0.00    +0.000 NA
ATOM     10  C   UNL     1       2.742   7.519  18.539  0.00  0.00    +0.000 C 
ATOM     11  O   UNL     1       3.414   7.333  17.530  0.00  0.00    +0.000 OA
ATOM     12  C   UNL     1       2.672   6.583  19.727  0.00  0.00    +0.000 C 
ATOM     13  O   UNL     1       1.870   7.351  20.630  0.00  0.00    +0.000 OA
ATOM     14  C   UNL     1       0.196  10.533  20.016  0.00  0.00    +0.000 C 
ATOM     15  C   UNL     1       0.085  11.591  21.120  0.00  0.00    +0.000 C 
ENDROOT
BRANCH  12  16
ATOM     16  C   UNL     1       2.026   5.245  19.436  0.00  0.00    +0.000 A 
ATOM     17  C   UNL     1       2.086   4.710  18.139  0.00  0.00    +0.000 A 
ATOM     18  C   UNL     1       1.470   3.494  17.843  0.00  0.00    +0.000 A 
ATOM     19  C   UNL     1       0.798   2.791  18.840  0.00  0.00    +0.000 A 
ATOM     20  C   UNL     1       0.752   3.294  20.137  0.00  0.00    +0.000 A 
ATOM     21  C   UNL     1       1.367   4.510  20.435  0.00  0.00    +0.000 A 
ENDBRANCH  12  16
BRANCH   1  23
ATOM     22  C   UNL     1      -5.186  12.953  22.009  0.00  0.00    +0.000 C 
ATOM     23  C   UNL     1      -3.812  13.416  22.487  0.00  0.00    +0.000 C 
ENDBRANCH   1  23
BRANCH   1  24
ATOM     24  C   UNL     1      -2.414  13.039  20.424  0.00  0.00    +0.000 C 
ATOM     25  C   UNL     1      -1.704  14.335  20.069  0.00  0.00    +0.000 C 
ENDBRANCH   1  24
TORSDOF 3
ENDMDL
MODEL 8
REMARK VINA RESULT:      -6.9      1.659      1.947
REMARK  Name = 
REMARK  5 active torsions:
REMARK  status: ('A' for Active; 'I' for Inactive)
REMARK    1  A    between atoms: C_1  and  C_2
REMARK    2  A    between atoms: C_2  and  N_3
REMARK    3  A    between atoms: N_3  and  C_4
REMARK    4  A    between atoms: C_4  and  C_5
REMARK    5  A    between atoms: C_16  and  C_17
REMARK                            x       y       z     vdW  Elec       q    Type
REMARK                         _______ _______ _______ _____ _____    ______ ____
ROOT
ATOM      1  N   UNL     1      -1.435  11.442  19.532  0.00  0.00    +0.000 N 
ATOM      2  C   UNL     1      -0.564  10.820  20.424  0.00  0.00    +0.000 C 
ATOM      3  O   UNL     1      -0.855  10.752  21.623  0.00  0.00    +0.000 OA
ATOM      4  N   UNL     1       0.595  10.224  19.984  0.00  0.00    +0.000 N 
ATOM      5  C   UNL     1       1.239   9.227  20.853  0.00  0.00    +0.000 C 
ATOM      6  C   UNL     1       1.546   7.933  20.072  0.00  0.00    +0.000 C 
ATOM      7  N   UNL     1       2.245   8.224  18.804  0.00  0.00    +0.000 N 
ATOM      8  C   UNL     1       3.139   7.367  18.243  0.00  0.00    +0.000 C 
ATOM      9  N   UNL     1       3.501   7.292  17.009  0.00  0.00    +0.000 NA
ATOM     10  C   UNL     1       4.413   6.281  16.960  0.00  0.00    +0.000 C 
ATOM     11  O   UNL     1       5.024   5.935  15.954  0.00  0.00    +0.000 OA
ATOM     12  C   UNL     1       4.569   5.661  18.333  0.00  0.00    +0.000 C 
ATOM     13  O   UNL     1       3.740   6.526  19.117  0.00  0.00    +0.000 OA
ATOM     14  C   UNL     1       1.593   9.243  17.971  0.00  0.00    +0.000 C 
ATOM     15  C   UNL     1       1.422  10.517  18.807  0.00  0.00    +0.000 C 
ENDROOT
BRANCH  12  16
ATOM     16  C   UNL     1       4.097   4.227  18.431  0.00  0.00    +0.000 A 
ATOM     17  C   UNL     1       4.604   3.393  19.441  0.00  0.00    +0.000 A 
ATOM     18  C   UNL     1       4.205   2.059  19.529  0.00  0.00    +0.000 A 
ATOM     19  C   UNL     1       3.287   1.544  18.619  0.00  0.00    +0.000 A 
ATOM     20  C   UNL     1       2.754   2.363  17.627  0.00  0.00    +0.000 A 
ATOM     21  C   UNL     1       3.152   3.697  17.537  0.00  0.00    +0.000 A 
ENDBRANCH  12  16
BRANCH   1  23
ATOM     22  C   UNL     1      -2.285  13.619  20.422  0.00  0.00    +0.000 C 
ATOM     23  C   UNL     1      -2.575  12.148  20.134  0.00  0.00    +0.000 C 
ENDBRANCH   1  23
BRANCH   1  24
ATOM     24  C   UNL     1      -1.303  11.448  18.074  0.00  0.00    +0.000 C 
ATOM     25  C   UNL     1      -2.332  10.739  17.209  0.00  0.00    +0.000 C 
ENDBRANCH   1  24
TORSDOF 3
ENDMDL
MODEL 9
REMARK VINA RESULT:      -6.8      2.567      3.697
REMARK  Name = 
REMARK  5 active torsions:
REMARK  status: ('A' for Active; 'I' for Inactive)
REMARK    1  A    between atoms: C_1  and  C_2
REMARK    2  A    between atoms: C_2  and  N_3
REMARK    3  A    between atoms: N_3  and  C_4
REMARK    4  A    between atoms: C_4  and  C_5
REMARK    5  A    between atoms: C_16  and  C_17
REMARK                            x       y       z     vdW  Elec       q    Type
REMARK                         _______ _______ _______ _____ _____    ______ ____
ROOT
ATOM      1  N   UNL     1       0.160  12.079  20.803  0.00  0.00    +0.000 N 
ATOM      2  C   UNL     1       0.330  11.543  19.528  0.00  0.00    +0.000 C 
ATOM      3  O   UNL     1       0.379  12.291  18.546  0.00  0.00    +0.000 OA
ATOM      4  N   UNL     1       0.501  10.190  19.346  0.00  0.00    +0.000 N 
ATOM      5  C   UNL     1       1.102   9.728  18.085  0.00  0.00    +0.000 C 
ATOM      6  C   UNL     1       2.266   8.752  18.355  0.00  0.00    +0.000 C 
ATOM      7  N   UNL     1       1.867   7.690  19.300  0.00  0.00    +0.000 N 
ATOM      8  C   UNL     1       2.389   6.436  19.261  0.00  0.00    +0.000 C 
ATOM      9  N   UNL     1       2.450   5.570  20.213  0.00  0.00    +0.000 NA
ATOM     10  C   UNL     1       3.057   4.477  19.671  0.00  0.00    +0.000 C 
ATOM     11  O   UNL     1       3.254   3.420  20.260  0.00  0.00    +0.000 OA
ATOM     12  C   UNL     1       3.437   4.760  18.233  0.00  0.00    +0.000 C 
ATOM     13  O   UNL     1       2.861   6.058  18.050  0.00  0.00    +0.000 OA
ATOM     14  C   UNL     1       1.245   8.181  20.537  0.00  0.00    +0.000 C 
ATOM     15  C   UNL     1       0.045   9.059  20.163  0.00  0.00    +0.000 C 
ENDROOT
BRANCH  12  16
ATOM     16  C   UNL     1       4.927   4.789  17.971  0.00  0.00    +0.000 A 
ATOM     17  C   UNL     1       5.800   5.266  18.962  0.00  0.00    +0.000 A 
ATOM     18  C   UNL     1       7.174   5.330  18.729  0.00  0.00    +0.000 A 
ATOM     19  C   UNL     1       7.695   4.907  17.509  0.00  0.00    +0.000 A 
ATOM     20  C   UNL     1       6.847   4.407  16.525  0.00  0.00    +0.000 A 
ATOM     21  C   UNL     1       5.473   4.342  16.756  0.00  0.00    +0.000 A 
ENDBRANCH  12  16
BRANCH   1  23
ATOM     22  C   UNL     1       0.974  14.332  21.518  0.00  0.00    +0.000 C 
ATOM     23  C   UNL     1      -0.136  13.517  20.859  0.00  0.00    +0.000 C 
ENDBRANCH   1  23
BRANCH   1  24
ATOM     24  C   UNL     1       0.253  11.336  22.061  0.00  0.00    +0.000 C 
ATOM     25  C   UNL     1      -0.983  11.127  22.920  0.00  0.00    +0.000 C 
ENDBRANCH   1  24
TORSDOF 3
ENDMDL
