MODEL 1
REMARK VINA RESULT:      -8.7      0.000      0.000
REMARK  Name = 
REMARK  7 active torsions:
REMARK  status: ('A' for Active; 'I' for Inactive)
REMARK    1  A    between atoms: C_1  and  C_2
REMARK    2  A    between atoms: C_2  and  C_3
REMARK    3  A    between atoms: C_6  and  N_7
REMARK    4  A    between atoms: N_10  and  C_11
REMARK    5  A    between atoms: C_17  and  C_18
REMARK    6  A    between atoms: C_21  and  C_22
REMARK    7  A    between atoms: C_22  and  O_24
REMARK                            x       y       z     vdW  Elec       q    Type
REMARK                         _______ _______ _______ _____ _____    ______ ____
ROOT
ATOM      1  N   UNL     1       6.110   5.920  14.869  0.00  0.00    +0.000 N 
ATOM      2  C   UNL     1       5.299   5.839  15.947  0.00  0.00    +0.000 A 
ATOM      3  N   UNL     1       4.793   4.758  16.497  0.00  0.00    +0.000 NA
ATOM      4  N   UNL     1       3.817   5.093  17.412  0.00  0.00    +0.000 N 
ATOM      5  C   UNL     1       3.658   6.383  17.687  0.00  0.00    +0.000 A 
ATOM      6  S   UNL     1       4.771   7.288  16.728  0.00  0.00    +0.000 S 
ATOM      7  H   UNL     1       6.385   6.847  14.557  0.00  0.00    +0.000 HD
ENDROOT
BRANCH   1  11
ATOM      8  C   UNL     1       6.743   3.024  11.838  0.00  0.00    +0.000 A 
ATOM      9  C   UNL     1       7.656   4.056  12.058  0.00  0.00    +0.000 A 
ATOM     10  C   UNL     1       7.426   4.998  13.064  0.00  0.00    +0.000 A 
ATOM     11  C   UNL     1       6.277   4.939  13.870  0.00  0.00    +0.000 A 
ATOM     12  C   UNL     1       5.361   3.908  13.623  0.00  0.00    +0.000 A 
ATOM     13  C   UNL     1       5.586   2.965  12.618  0.00  0.00    +0.000 A 
BRANCH   8  15
ATOM     14  C   UNL     1       6.173   0.711  11.155  0.00  0.00    +0.000 C 
ATOM     15  C   UNL     1       7.053   1.918  10.863  0.00  0.00    +0.000 C 
ENDBRANCH   8  15
ENDBRANCH   1  11
BRANCH   4  16
ATOM     16  C   UNL     1       3.022   3.977  17.945  0.00  0.00    +0.000 A 
ATOM     17  C   UNL     1       3.716   2.896  18.488  0.00  0.00    +0.000 A 
ATOM     18  C   UNL     1       2.996   1.829  19.029  0.00  0.00    +0.000 A 
ATOM     19  C   UNL     1       1.599   1.847  19.000  0.00  0.00    +0.000 A 
ATOM     20  C   UNL     1       0.917   2.919  18.421  0.00  0.00    +0.000 A 
ATOM     21  C   UNL     1       1.627   3.985  17.873  0.00  0.00    +0.000 A 
ENDBRANCH   4  16
BRANCH   5  22
ATOM     22  C   UNL     1       2.773   7.051  18.648  0.00  0.00    +0.000 A 
ATOM     23  C   UNL     1       2.153   8.269  18.345  0.00  0.00    +0.000 A 
ATOM     24  C   UNL     1       1.428   8.965  19.320  0.00  0.00    +0.000 A 
ATOM     25  C   UNL     1       1.238   8.433  20.601  0.00  0.00    +0.000 A 
ATOM     26  C   UNL     1       1.790   7.180  20.893  0.00  0.00    +0.000 A 
ATOM     27  C   UNL     1       2.551   6.504  19.928  0.00  0.00    +0.000 A 
BRANCH  25  28
ATOM     28  C   UNL     1       0.496   9.277  21.575  0.00  0.00    +0.000 C 
ATOM     29  O   UNL     1      -0.584   8.937  22.013  0.00  0.00    +0.000 OA
BRANCH  28  30
ATOM     30  O   UNL     1       1.069  10.444  21.925  0.00  0.00    +0.000 OA
ATOM     31  H   UNL     1       1.218  11.120  21.242  0.00  0.00    +0.000 HD
ENDBRANCH  28  30
ENDBRANCH  25  28
ENDBRANCH   5  22
TORSDOF 6
ENDMDL
MODEL 2
REMARK VINA RESULT:      -8.6      0.092      1.079
REMARK  Name = 
REMARK  7 active torsions:
REMARK  status: ('A' for Active; 'I' for Inactive)
REMARK    1  A    between atoms: C_1  and  C_2
REMARK    2  A    between atoms: C_2  and  C_3
REMARK    3  A    between atoms: C_6  and  N_7
REMARK    4  A    between atoms: N_10  and  C_11
REMARK    5  A    between atoms: C_17  and  C_18
REMARK    6  A    between atoms: C_21  and  C_22
REMARK    7  A    between atoms: C_22  and  O_24
REMARK                            x       y       z     vdW  Elec       q    Type
REMARK                         _______ _______ _______ _____ _____    ______ ____
ROOT
ATOM      1  N   UNL     1       6.105   5.932  14.895  0.00  0.00    +0.000 N 
ATOM      2  C   UNL     1       5.294   5.854  15.972  0.00  0.00    +0.000 A 
ATOM      3  N   UNL     1       4.784   4.775  16.523  0.00  0.00    +0.000 NA
ATOM      4  N   UNL     1       3.808   5.114  17.437  0.00  0.00    +0.000 N 
ATOM      5  C   UNL     1       3.654   6.405  17.711  0.00  0.00    +0.000 A 
ATOM      6  S   UNL     1       4.770   7.306  16.752  0.00  0.00    +0.000 S 
ATOM      7  H   UNL     1       6.384   6.858  14.583  0.00  0.00    +0.000 HD
ENDROOT
BRANCH   1  11
ATOM      8  C   UNL     1       6.731   3.032  11.866  0.00  0.00    +0.000 A 
ATOM      9  C   UNL     1       7.647   4.062  12.086  0.00  0.00    +0.000 A 
ATOM     10  C   UNL     1       7.420   5.005  13.091  0.00  0.00    +0.000 A 
ATOM     11  C   UNL     1       6.270   4.950  13.897  0.00  0.00    +0.000 A 
ATOM     12  C   UNL     1       5.351   3.922  13.650  0.00  0.00    +0.000 A 
ATOM     13  C   UNL     1       5.574   2.978  12.645  0.00  0.00    +0.000 A 
BRANCH   8  15
ATOM     14  C   UNL     1       6.139   0.729  11.171  0.00  0.00    +0.000 C 
ATOM     15  C   UNL     1       7.038   1.925  10.892  0.00  0.00    +0.000 C 
ENDBRANCH   8  15
ENDBRANCH   1  11
BRANCH   4  16
ATOM     16  C   UNL     1       3.009   4.001  17.971  0.00  0.00    +0.000 A 
ATOM     17  C   UNL     1       1.623   4.089  17.846  0.00  0.00    +0.000 A 
ATOM     18  C   UNL     1       0.831   3.040  18.317  0.00  0.00    +0.000 A 
ATOM     19  C   UNL     1       1.430   1.934  18.924  0.00  0.00    +0.000 A 
ATOM     20  C   UNL     1       2.817   1.875  19.075  0.00  0.00    +0.000 A 
ATOM     21  C   UNL     1       3.615   2.920  18.614  0.00  0.00    +0.000 A 
ENDBRANCH   4  16
BRANCH   5  22
ATOM     22  C   UNL     1       2.770   7.076  18.672  0.00  0.00    +0.000 A 
ATOM     23  C   UNL     1       2.160   8.300  18.370  0.00  0.00    +0.000 A 
ATOM     24  C   UNL     1       1.437   8.998  19.345  0.00  0.00    +0.000 A 
ATOM     25  C   UNL     1       1.239   8.464  20.623  0.00  0.00    +0.000 A 
ATOM     26  C   UNL     1       1.780   7.205  20.914  0.00  0.00    +0.000 A 
ATOM     27  C   UNL     1       2.540   6.526  19.949  0.00  0.00    +0.000 A 
BRANCH  25  28
ATOM     28  C   UNL     1       0.500   9.309  21.598  0.00  0.00    +0.000 C 
ATOM     29  O   UNL     1       0.897  10.413  21.907  0.00  0.00    +0.000 OA
BRANCH  28  30
ATOM     30  O   UNL     1      -0.615   8.779  22.135  0.00  0.00    +0.000 OA
ATOM     31  H   UNL     1      -1.376   8.596  21.558  0.00  0.00    +0.000 HD
ENDBRANCH  28  30
ENDBRANCH  25  28
ENDBRANCH   5  22
TORSDOF 6
ENDMDL
MODEL 3
REMARK VINA RESULT:      -8.4      0.268      1.296
REMARK  Name = 
REMARK  7 active torsions:
REMARK  status: ('A' for Active; 'I' for Inactive)
REMARK    1  A    between atoms: C_1  and  C_2
REMARK    2  A    between atoms: C_2  and  C_3
REMARK    3  A    between atoms: C_6  and  N_7
REMARK    4  A    between atoms: N_10  and  C_11
REMARK    5  A    between atoms: C_17  and  C_18
REMARK    6  A    between atoms: C_21  and  C_22
REMARK    7  A    between atoms: C_22  and  O_24
REMARK                            x       y       z     vdW  Elec       q    Type
REMARK                         _______ _______ _______ _____ _____    ______ ____
ROOT
ATOM      1  N   UNL     1       6.208   5.848  14.846  0.00  0.00    +0.000 N 
ATOM      2  C   UNL     1       5.421   5.786  15.942  0.00  0.00    +0.000 A 
ATOM      3  N   UNL     1       4.893   4.719  16.499  0.00  0.00    +0.000 NA
ATOM      4  N   UNL     1       3.950   5.081  17.438  0.00  0.00    +0.000 N 
ATOM      5  C   UNL     1       3.842   6.374  17.724  0.00  0.00    +0.000 A 
ATOM      6  S   UNL     1       4.961   7.247  16.744  0.00  0.00    +0.000 S 
ATOM      7  H   UNL     1       6.507   6.768  14.534  0.00  0.00    +0.000 HD
ENDROOT
BRANCH   1  11
ATOM      8  C   UNL     1       6.669   2.956  11.780  0.00  0.00    +0.000 A 
ATOM      9  C   UNL     1       7.603   3.978  11.961  0.00  0.00    +0.000 A 
ATOM     10  C   UNL     1       7.430   4.919  12.979  0.00  0.00    +0.000 A 
ATOM     11  C   UNL     1       6.319   4.868  13.837  0.00  0.00    +0.000 A 
ATOM     12  C   UNL     1       5.381   3.849  13.630  0.00  0.00    +0.000 A 
ATOM     13  C   UNL     1       5.550   2.907  12.612  0.00  0.00    +0.000 A 
BRANCH   8  15
ATOM     14  C   UNL     1       6.040   0.653  11.115  0.00  0.00    +0.000 C 
ATOM     15  C   UNL     1       6.923   1.850  10.788  0.00  0.00    +0.000 C 
ENDBRANCH   8  15
ENDBRANCH   1  11
BRANCH   4  16
ATOM     16  C   UNL     1       3.131   3.989  17.984  0.00  0.00    +0.000 A 
ATOM     17  C   UNL     1       1.750   4.076  17.814  0.00  0.00    +0.000 A 
ATOM     18  C   UNL     1       0.939   3.045  18.295  0.00  0.00    +0.000 A 
ATOM     19  C   UNL     1       1.516   1.958  18.957  0.00  0.00    +0.000 A 
ATOM     20  C   UNL     1       2.898   1.901  19.153  0.00  0.00    +0.000 A 
ATOM     21  C   UNL     1       3.713   2.928  18.682  0.00  0.00    +0.000 A 
ENDBRANCH   4  16
BRANCH   5  22
ATOM     22  C   UNL     1       3.002   7.064  18.711  0.00  0.00    +0.000 A 
ATOM     23  C   UNL     1       2.770   6.519  19.980  0.00  0.00    +0.000 A 
ATOM     24  C   UNL     1       1.856   7.113  20.857  0.00  0.00    +0.000 A 
ATOM     25  C   UNL     1       1.202   8.306  20.526  0.00  0.00    +0.000 A 
ATOM     26  C   UNL     1       1.483   8.902  19.290  0.00  0.00    +0.000 A 
ATOM     27  C   UNL     1       2.368   8.282  18.395  0.00  0.00    +0.000 A 
BRANCH  25  28
ATOM     28  C   UNL     1       0.214   8.825  21.508  0.00  0.00    +0.000 C 
ATOM     29  O   UNL     1      -0.846   8.265  21.696  0.00  0.00    +0.000 OA
BRANCH  28  30
ATOM     30  O   UNL     1       0.543   9.958  22.157  0.00  0.00    +0.000 OA
ATOM     31  H   UNL     1      -0.004  10.752  22.029  0.00  0.00    +0.000 HD
ENDBRANCH  28  30
ENDBRANCH  25  28
ENDBRANCH   5  22
TORSDOF 6
ENDMDL
MODEL 4
REMARK VINA RESULT:      -8.1      0.182      1.278
REMARK  Name = 
REMARK  7 active torsions:
REMARK  status: ('A' for Active; 'I' for Inactive)
REMARK    1  A    between atoms: C_1  and  C_2
REMARK    2  A    between atoms: C_2  and  C_3
REMARK    3  A    between atoms: C_6  and  N_7
REMARK    4  A    between atoms: N_10  and  C_11
REMARK    5  A    between atoms: C_17  and  C_18
REMARK    6  A    between atoms: C_21  and  C_22
REMARK    7  A    between atoms: C_22  and  O_24
REMARK                            x       y       z     vdW  Elec       q    Type
REMARK                         _______ _______ _______ _____ _____    ______ ____
ROOT
ATOM      1  N   UNL     1       6.163   5.900  14.814  0.00  0.00    +0.000 N 
ATOM      2  C   UNL     1       5.365   5.821  15.901  0.00  0.00    +0.000 A 
ATOM      3  N   UNL     1       4.893   4.740  16.481  0.00  0.00    +0.000 NA
ATOM      4  N   UNL     1       3.916   5.070  17.396  0.00  0.00    +0.000 N 
ATOM      5  C   UNL     1       3.726   6.362  17.644  0.00  0.00    +0.000 A 
ATOM      6  S   UNL     1       4.806   7.274  16.654  0.00  0.00    +0.000 S 
ATOM      7  H   UNL     1       6.412   6.826  14.479  0.00  0.00    +0.000 HD
ENDROOT
BRANCH   1  11
ATOM      8  C   UNL     1       6.582   2.850  11.898  0.00  0.00    +0.000 A 
ATOM      9  C   UNL     1       5.442   2.938  12.699  0.00  0.00    +0.000 A 
ATOM     10  C   UNL     1       5.326   3.953  13.652  0.00  0.00    +0.000 A 
ATOM     11  C   UNL     1       6.347   4.900  13.836  0.00  0.00    +0.000 A 
ATOM     12  C   UNL     1       7.493   4.786  13.038  0.00  0.00    +0.000 A 
ATOM     13  C   UNL     1       7.613   3.773  12.085  0.00  0.00    +0.000 A 
BRANCH   8  15
ATOM     14  C   UNL     1       6.150   0.501  11.239  0.00  0.00    +0.000 C 
ATOM     15  C   UNL     1       6.653   1.858  10.767  0.00  0.00    +0.000 C 
ENDBRANCH   8  15
ENDBRANCH   1  11
BRANCH   4  16
ATOM     16  C   UNL     1       3.155   3.947  17.963  0.00  0.00    +0.000 A 
ATOM     17  C   UNL     1       1.770   3.965  17.804  0.00  0.00    +0.000 A 
ATOM     18  C   UNL     1       1.015   2.902  18.305  0.00  0.00    +0.000 A 
ATOM     19  C   UNL     1       1.649   1.853  18.974  0.00  0.00    +0.000 A 
ATOM     20  C   UNL     1       3.034   1.865  19.158  0.00  0.00    +0.000 A 
ATOM     21  C   UNL     1       3.794   2.924  18.667  0.00  0.00    +0.000 A 
ENDBRANCH   4  16
BRANCH   5  22
ATOM     22  C   UNL     1       2.832   7.028  18.599  0.00  0.00    +0.000 A 
ATOM     23  C   UNL     1       2.219   8.250  18.295  0.00  0.00    +0.000 A 
ATOM     24  C   UNL     1       1.486   8.943  19.265  0.00  0.00    +0.000 A 
ATOM     25  C   UNL     1       1.280   8.406  20.541  0.00  0.00    +0.000 A 
ATOM     26  C   UNL     1       1.824   7.149  20.834  0.00  0.00    +0.000 A 
ATOM     27  C   UNL     1       2.594   6.475  19.874  0.00  0.00    +0.000 A 
BRANCH  25  28
ATOM     28  C   UNL     1       0.530   9.247  21.511  0.00  0.00    +0.000 C 
ATOM     29  O   UNL     1      -0.662   9.097  21.689  0.00  0.00    +0.000 OA
BRANCH  28  30
ATOM     30  O   UNL     1       1.231  10.196  22.159  0.00  0.00    +0.000 OA
ATOM     31  H   UNL     1       0.851  10.602  22.956  0.00  0.00    +0.000 HD
ENDBRANCH  28  30
ENDBRANCH  25  28
ENDBRANCH   5  22
TORSDOF 6
ENDMDL
MODEL 5
REMARK VINA RESULT:      -8.1      0.465      1.334
REMARK  Name = 
REMARK  7 active torsions:
REMARK  status: ('A' for Active; 'I' for Inactive)
REMARK    1  A    between atoms: C_1  and  C_2
REMARK    2  A    between atoms: C_2  and  C_3
REMARK    3  A    between atoms: C_6  and  N_7
REMARK    4  A    between atoms: N_10  and  C_11
REMARK    5  A    between atoms: C_17  and  C_18
REMARK    6  A    between atoms: C_21  and  C_22
REMARK    7  A    between atoms: C_22  and  O_24
REMARK                            x       y       z     vdW  Elec       q    Type
REMARK                         _______ _______ _______ _____ _____    ______ ____
ROOT
ATOM      1  N   UNL     1       6.157   5.731  14.696  0.00  0.00    +0.000 N 
ATOM      2  C   UNL     1       5.367   5.738  15.792  0.00  0.00    +0.000 A 
ATOM      3  N   UNL     1       4.819   4.710  16.400  0.00  0.00    +0.000 NA
ATOM      4  N   UNL     1       3.880   5.134  17.317  0.00  0.00    +0.000 N 
ATOM      5  C   UNL     1       3.794   6.442  17.538  0.00  0.00    +0.000 A 
ATOM      6  S   UNL     1       4.930   7.245  16.518  0.00  0.00    +0.000 S 
ATOM      7  H   UNL     1       6.472   6.627  14.339  0.00  0.00    +0.000 HD
ENDROOT
BRANCH   1  11
ATOM      8  C   UNL     1       6.302   2.606  11.834  0.00  0.00    +0.000 A 
ATOM      9  C   UNL     1       5.136   2.880  12.551  0.00  0.00    +0.000 A 
ATOM     10  C   UNL     1       5.112   3.916  13.489  0.00  0.00    +0.000 A 
ATOM     11  C   UNL     1       6.252   4.699  13.739  0.00  0.00    +0.000 A 
ATOM     12  C   UNL     1       7.419   4.398  13.025  0.00  0.00    +0.000 A 
ATOM     13  C   UNL     1       7.447   3.363  12.088  0.00  0.00    +0.000 A 
BRANCH   8  15
ATOM     14  C   UNL     1       6.284   0.188  11.293  0.00  0.00    +0.000 C 
ATOM     15  C   UNL     1       6.296   1.596  10.715  0.00  0.00    +0.000 C 
ENDBRANCH   8  15
ENDBRANCH   1  11
BRANCH   4  16
ATOM     16  C   UNL     1       3.041   4.086  17.916  0.00  0.00    +0.000 A 
ATOM     17  C   UNL     1       3.683   3.098  18.661  0.00  0.00    +0.000 A 
ATOM     18  C   UNL     1       2.918   2.099  19.268  0.00  0.00    +0.000 A 
ATOM     19  C   UNL     1       1.530   2.089  19.102  0.00  0.00    +0.000 A 
ATOM     20  C   UNL     1       0.904   3.064  18.323  0.00  0.00    +0.000 A 
ATOM     21  C   UNL     1       1.660   4.060  17.709  0.00  0.00    +0.000 A 
ENDBRANCH   4  16
BRANCH   5  22
ATOM     22  C   UNL     1       2.965   7.196  18.486  0.00  0.00    +0.000 A 
ATOM     23  C   UNL     1       2.698   6.707  19.770  0.00  0.00    +0.000 A 
ATOM     24  C   UNL     1       1.792   7.363  20.612  0.00  0.00    +0.000 A 
ATOM     25  C   UNL     1       1.184   8.564  20.228  0.00  0.00    +0.000 A 
ATOM     26  C   UNL     1       1.501   9.104  18.975  0.00  0.00    +0.000 A 
ATOM     27  C   UNL     1       2.377   8.422  18.116  0.00  0.00    +0.000 A 
BRANCH  25  28
ATOM     28  C   UNL     1       0.200   9.152  21.175  0.00  0.00    +0.000 C 
ATOM     29  O   UNL     1      -0.414   8.460  21.961  0.00  0.00    +0.000 OA
BRANCH  28  30
ATOM     30  O   UNL     1       0.007  10.482  21.099  0.00  0.00    +0.000 OA
ATOM     31  H   UNL     1      -0.246  10.969  21.902  0.00  0.00    +0.000 HD
ENDBRANCH  28  30
ENDBRANCH  25  28
ENDBRANCH   5  22
TORSDOF 6
ENDMDL
MODEL 6
REMARK VINA RESULT:      -7.9      5.291      8.441
REMARK  Name = 
REMARK  7 active torsions:
REMARK  status: ('A' for Active; 'I' for Inactive)
REMARK    1  A    between atoms: C_1  and  C_2
REMARK    2  A    between atoms: C_2  and  C_3
REMARK    3  A    between atoms: C_6  and  N_7
REMARK    4  A    between atoms: N_10  and  C_11
REMARK    5  A    between atoms: C_17  and  C_18
REMARK    6  A    between atoms: C_21  and  C_22
REMARK    7  A    between atoms: C_22  and  O_24
REMARK                            x       y       z     vdW  Elec       q    Type
REMARK                         _______ _______ _______ _____ _____    ______ ____
ROOT
ATOM      1  N   UNL     1       1.634   8.663  20.750  0.00  0.00    +0.000 N 
ATOM      2  C   UNL     1       0.754   9.624  20.392  0.00  0.00    +0.000 A 
ATOM      3  N   UNL     1      -0.317   9.500  19.640  0.00  0.00    +0.000 NA
ATOM      4  N   UNL     1      -0.809  10.740  19.292  0.00  0.00    +0.000 N 
ATOM      5  C   UNL     1      -0.246  11.800  19.862  0.00  0.00    +0.000 A 
ATOM      6  S   UNL     1       1.023  11.256  20.897  0.00  0.00    +0.000 S 
ATOM      7  H   UNL     1       2.430   8.942  21.316  0.00  0.00    +0.000 HD
ENDROOT
BRANCH   1  11
ATOM      8  C   UNL     1       2.175   4.881  18.911  0.00  0.00    +0.000 A 
ATOM      9  C   UNL     1       1.682   4.992  20.212  0.00  0.00    +0.000 A 
ATOM     10  C   UNL     1       1.511   6.250  20.796  0.00  0.00    +0.000 A 
ATOM     11  C   UNL     1       1.834   7.426  20.101  0.00  0.00    +0.000 A 
ATOM     12  C   UNL     1       2.346   7.297  18.803  0.00  0.00    +0.000 A 
ATOM     13  C   UNL     1       2.519   6.041  18.216  0.00  0.00    +0.000 A 
BRANCH   8  15
ATOM     14  C   UNL     1       1.060   2.679  18.692  0.00  0.00    +0.000 C 
ATOM     15  C   UNL     1       2.219   3.544  18.218  0.00  0.00    +0.000 C 
ENDBRANCH   8  15
ENDBRANCH   1  11
BRANCH   4  16
ATOM     16  C   UNL     1      -1.877  10.750  18.281  0.00  0.00    +0.000 A 
ATOM     17  C   UNL     1      -1.676   9.994  17.127  0.00  0.00    +0.000 A 
ATOM     18  C   UNL     1      -2.678   9.957  16.155  0.00  0.00    +0.000 A 
ATOM     19  C   UNL     1      -3.853  10.692  16.340  0.00  0.00    +0.000 A 
ATOM     20  C   UNL     1      -4.026  11.473  17.484  0.00  0.00    +0.000 A 
ATOM     21  C   UNL     1      -3.029  11.521  18.455  0.00  0.00    +0.000 A 
ENDBRANCH   4  16
BRANCH   5  22
ATOM     22  C   UNL     1      -0.580  13.226  19.762  0.00  0.00    +0.000 A 
ATOM     23  C   UNL     1      -0.071  14.023  18.729  0.00  0.00    +0.000 A 
ATOM     24  C   UNL     1      -0.279  15.407  18.724  0.00  0.00    +0.000 A 
ATOM     25  C   UNL     1      -1.060  16.026  19.707  0.00  0.00    +0.000 A 
ATOM     26  C   UNL     1      -1.638  15.230  20.703  0.00  0.00    +0.000 A 
ATOM     27  C   UNL     1      -1.393  13.849  20.730  0.00  0.00    +0.000 A 
BRANCH  25  28
ATOM     28  C   UNL     1      -1.176  17.507  19.638  0.00  0.00    +0.000 C 
ATOM     29  O   UNL     1      -0.556  18.227  20.394  0.00  0.00    +0.000 OA
BRANCH  28  30
ATOM     30  O   UNL     1      -2.019  18.007  18.714  0.00  0.00    +0.000 OA
ATOM     31  H   UNL     1      -1.653  18.404  17.906  0.00  0.00    +0.000 HD
ENDBRANCH  28  30
ENDBRANCH  25  28
ENDBRANCH   5  22
TORSDOF 6
ENDMDL
MODEL 7
REMARK VINA RESULT:      -7.8      5.258      8.440
REMARK  Name = 
REMARK  7 active torsions:
REMARK  status: ('A' for Active; 'I' for Inactive)
REMARK    1  A    between atoms: C_1  and  C_2
REMARK    2  A    between atoms: C_2  and  C_3
REMARK    3  A    between atoms: C_6  and  N_7
REMARK    4  A    between atoms: N_10  and  C_11
REMARK    5  A    between atoms: C_17  and  C_18
REMARK    6  A    between atoms: C_21  and  C_22
REMARK    7  A    between atoms: C_22  and  O_24
REMARK                            x       y       z     vdW  Elec       q    Type
REMARK                         _______ _______ _______ _____ _____    ______ ____
ROOT
ATOM      1  N   UNL     1       1.650   8.629  20.720  0.00  0.00    +0.000 N 
ATOM      2  C   UNL     1       0.772   9.592  20.363  0.00  0.00    +0.000 A 
ATOM      3  N   UNL     1      -0.299   9.471  19.612  0.00  0.00    +0.000 NA
ATOM      4  N   UNL     1      -0.790  10.713  19.265  0.00  0.00    +0.000 N 
ATOM      5  C   UNL     1      -0.225  11.770  19.838  0.00  0.00    +0.000 A 
ATOM      6  S   UNL     1       1.043  11.222  20.872  0.00  0.00    +0.000 S 
ATOM      7  H   UNL     1       2.446   8.905  21.286  0.00  0.00    +0.000 HD
ENDROOT
BRANCH   1  11
ATOM      8  C   UNL     1       2.186   4.849  18.875  0.00  0.00    +0.000 A 
ATOM      9  C   UNL     1       1.701   4.958  20.179  0.00  0.00    +0.000 A 
ATOM     10  C   UNL     1       1.531   6.215  20.765  0.00  0.00    +0.000 A 
ATOM     11  C   UNL     1       1.848   7.393  20.068  0.00  0.00    +0.000 A 
ATOM     12  C   UNL     1       2.353   7.265  18.768  0.00  0.00    +0.000 A 
ATOM     13  C   UNL     1       2.524   6.011  18.179  0.00  0.00    +0.000 A 
BRANCH   8  15
ATOM     14  C   UNL     1       1.056   2.656  18.639  0.00  0.00    +0.000 C 
ATOM     15  C   UNL     1       2.228   3.513  18.180  0.00  0.00    +0.000 C 
ENDBRANCH   8  15
ENDBRANCH   1  11
BRANCH   4  16
ATOM     16  C   UNL     1      -1.857  10.726  18.255  0.00  0.00    +0.000 A 
ATOM     17  C   UNL     1      -3.017  11.440  18.557  0.00  0.00    +0.000 A 
ATOM     18  C   UNL     1      -4.044  11.499  17.612  0.00  0.00    +0.000 A 
ATOM     19  C   UNL     1      -3.907  10.828  16.393  0.00  0.00    +0.000 A 
ATOM     20  C   UNL     1      -2.756  10.088  16.119  0.00  0.00    +0.000 A 
ATOM     21  C   UNL     1      -1.729  10.018  17.058  0.00  0.00    +0.000 A 
ENDBRANCH   4  16
BRANCH   5  22
ATOM     22  C   UNL     1      -0.556  13.197  19.740  0.00  0.00    +0.000 A 
ATOM     23  C   UNL     1      -0.095  13.981  18.676  0.00  0.00    +0.000 A 
ATOM     24  C   UNL     1      -0.296  15.366  18.668  0.00  0.00    +0.000 A 
ATOM     25  C   UNL     1      -1.025  16.000  19.681  0.00  0.00    +0.000 A 
ATOM     26  C   UNL     1      -1.557  15.216  20.713  0.00  0.00    +0.000 A 
ATOM     27  C   UNL     1      -1.318  13.833  20.741  0.00  0.00    +0.000 A 
BRANCH  25  28
ATOM     28  C   UNL     1      -1.137  17.480  19.604  0.00  0.00    +0.000 C 
ATOM     29  O   UNL     1      -1.510  18.035  18.591  0.00  0.00    +0.000 OA
BRANCH  28  30
ATOM     30  O   UNL     1      -0.781  18.173  20.703  0.00  0.00    +0.000 OA
ATOM     31  H   UNL     1      -0.381  17.698  21.451  0.00  0.00    +0.000 HD
ENDBRANCH  28  30
ENDBRANCH  25  28
ENDBRANCH   5  22
TORSDOF 6
ENDMDL
MODEL 8
REMARK VINA RESULT:      -7.8      0.952      1.420
REMARK  Name = 
REMARK  7 active torsions:
REMARK  status: ('A' for Active; 'I' for Inactive)
REMARK    1  A    between atoms: C_1  and  C_2
REMARK    2  A    between atoms: C_2  and  C_3
REMARK    3  A    between atoms: C_6  and  N_7
REMARK    4  A    between atoms: N_10  and  C_11
REMARK    5  A    between atoms: C_17  and  C_18
REMARK    6  A    between atoms: C_21  and  C_22
REMARK    7  A    between atoms: C_22  and  O_24
REMARK                            x       y       z     vdW  Elec       q    Type
REMARK                         _______ _______ _______ _____ _____    ______ ____
ROOT
ATOM      1  N   UNL     1       5.791   6.506  15.568  0.00  0.00    +0.000 N 
ATOM      2  C   UNL     1       4.948   6.402  16.618  0.00  0.00    +0.000 A 
ATOM      3  N   UNL     1       4.504   5.306  17.192  0.00  0.00    +0.000 NA
ATOM      4  N   UNL     1       3.471   5.598  18.057  0.00  0.00    +0.000 N 
ATOM      5  C   UNL     1       3.205   6.882  18.275  0.00  0.00    +0.000 A 
ATOM      6  S   UNL     1       4.282   7.834  17.322  0.00  0.00    +0.000 S 
ATOM      7  H   UNL     1       6.008   7.440  15.230  0.00  0.00    +0.000 HD
ENDROOT
BRANCH   1  11
ATOM      8  C   UNL     1       6.493   3.459  12.704  0.00  0.00    +0.000 A 
ATOM      9  C   UNL     1       5.244   3.616  13.307  0.00  0.00    +0.000 A 
ATOM     10  C   UNL     1       5.036   4.629  14.247  0.00  0.00    +0.000 A 
ATOM     11  C   UNL     1       6.071   5.505  14.615  0.00  0.00    +0.000 A 
ATOM     12  C   UNL     1       7.324   5.321  14.016  0.00  0.00    +0.000 A 
ATOM     13  C   UNL     1       7.535   4.309  13.077  0.00  0.00    +0.000 A 
BRANCH   8  15
ATOM     14  C   UNL     1       5.381   1.739  11.310  0.00  0.00    +0.000 C 
ATOM     15  C   UNL     1       6.687   2.473  11.582  0.00  0.00    +0.000 C 
ENDBRANCH   8  15
ENDBRANCH   1  11
BRANCH   4  16
ATOM     16  C   UNL     1       2.742   4.445  18.605  0.00  0.00    +0.000 A 
ATOM     17  C   UNL     1       3.306   3.790  19.699  0.00  0.00    +0.000 A 
ATOM     18  C   UNL     1       2.631   2.707  20.265  0.00  0.00    +0.000 A 
ATOM     19  C   UNL     1       1.418   2.280  19.718  0.00  0.00    +0.000 A 
ATOM     20  C   UNL     1       0.882   2.921  18.600  0.00  0.00    +0.000 A 
ATOM     21  C   UNL     1       1.552   3.999  18.025  0.00  0.00    +0.000 A 
ENDBRANCH   4  16
BRANCH   5  22
ATOM     22  C   UNL     1       2.235   7.514  19.177  0.00  0.00    +0.000 A 
ATOM     23  C   UNL     1       1.629   8.735  18.857  0.00  0.00    +0.000 A 
ATOM     24  C   UNL     1       0.817   9.396  19.787  0.00  0.00    +0.000 A 
ATOM     25  C   UNL     1       0.527   8.826  21.032  0.00  0.00    +0.000 A 
ATOM     26  C   UNL     1       1.066   7.570  21.335  0.00  0.00    +0.000 A 
ATOM     27  C   UNL     1       1.913   6.928  20.418  0.00  0.00    +0.000 A 
BRANCH  25  28
ATOM     28  C   UNL     1      -0.304   9.635  21.963  0.00  0.00    +0.000 C 
ATOM     29  O   UNL     1      -0.619  10.777  21.701  0.00  0.00    +0.000 OA
BRANCH  28  30
ATOM     30  O   UNL     1      -0.664   9.045  23.119  0.00  0.00    +0.000 OA
ATOM     31  H   UNL     1      -1.538   8.623  23.181  0.00  0.00    +0.000 HD
ENDBRANCH  28  30
ENDBRANCH  25  28
ENDBRANCH   5  22
TORSDOF 6
ENDMDL
MODEL 9
REMARK VINA RESULT:      -7.7      5.177      8.352
REMARK  Name = 
REMARK  7 active torsions:
REMARK  status: ('A' for Active; 'I' for Inactive)
REMARK    1  A    between atoms: C_1  and  C_2
REMARK    2  A    between atoms: C_2  and  C_3
REMARK    3  A    between atoms: C_6  and  N_7
REMARK    4  A    between atoms: N_10  and  C_11
REMARK    5  A    between atoms: C_17  and  C_18
REMARK    6  A    between atoms: C_21  and  C_22
REMARK    7  A    between atoms: C_22  and  O_24
REMARK                            x       y       z     vdW  Elec       q    Type
REMARK                         _______ _______ _______ _____ _____    ______ ____
ROOT
ATOM      1  N   UNL     1       1.667   8.356  20.822  0.00  0.00    +0.000 N 
ATOM      2  C   UNL     1       0.816   9.357  20.508  0.00  0.00    +0.000 A 
ATOM      3  N   UNL     1      -0.241   9.304  19.729  0.00  0.00    +0.000 NA
ATOM      4  N   UNL     1      -0.700  10.574  19.449  0.00  0.00    +0.000 N 
ATOM      5  C   UNL     1      -0.127  11.583  20.097  0.00  0.00    +0.000 A 
ATOM      6  S   UNL     1       1.108  10.947  21.120  0.00  0.00    +0.000 S 
ATOM      7  H   UNL     1       2.457   8.581  21.421  0.00  0.00    +0.000 HD
ENDROOT
BRANCH   1  11
ATOM      8  C   UNL     1       2.166   4.685  18.760  0.00  0.00    +0.000 A 
ATOM      9  C   UNL     1       1.637   4.726  20.051  0.00  0.00    +0.000 A 
ATOM     10  C   UNL     1       1.480   5.949  20.710  0.00  0.00    +0.000 A 
ATOM     11  C   UNL     1       1.855   7.158  20.101  0.00  0.00    +0.000 A 
ATOM     12  C   UNL     1       2.404   7.097  18.814  0.00  0.00    +0.000 A 
ATOM     13  C   UNL     1       2.562   5.877  18.152  0.00  0.00    +0.000 A 
BRANCH   8  15
ATOM     14  C   UNL     1       2.112   2.214  18.941  0.00  0.00    +0.000 C 
ATOM     15  C   UNL     1       2.197   3.394  17.983  0.00  0.00    +0.000 C 
ENDBRANCH   8  15
ENDBRANCH   1  11
BRANCH   4  16
ATOM     16  C   UNL     1      -1.745  10.672  18.420  0.00  0.00    +0.000 A 
ATOM     17  C   UNL     1      -2.892  11.399  18.737  0.00  0.00    +0.000 A 
ATOM     18  C   UNL     1      -3.896  11.537  17.777  0.00  0.00    +0.000 A 
ATOM     19  C   UNL     1      -3.752  10.929  16.527  0.00  0.00    +0.000 A 
ATOM     20  C   UNL     1      -2.615  10.173  16.235  0.00  0.00    +0.000 A 
ATOM     21  C   UNL     1      -1.610  10.025  17.189  0.00  0.00    +0.000 A 
ENDBRANCH   4  16
BRANCH   5  22
ATOM     22  C   UNL     1      -0.428  13.020  20.079  0.00  0.00    +0.000 A 
ATOM     23  C   UNL     1      -1.257  13.603  21.045  0.00  0.00    +0.000 A 
ATOM     24  C   UNL     1      -1.651  14.942  20.935  0.00  0.00    +0.000 A 
ATOM     25  C   UNL     1      -1.172  15.757  19.903  0.00  0.00    +0.000 A 
ATOM     26  C   UNL     1      -0.282  15.206  18.973  0.00  0.00    +0.000 A 
ATOM     27  C   UNL     1       0.079  13.853  19.061  0.00  0.00    +0.000 A 
BRANCH  25  28
ATOM     28  C   UNL     1      -1.693  17.149  19.850  0.00  0.00    +0.000 C 
ATOM     29  O   UNL     1      -1.161  18.048  20.468  0.00  0.00    +0.000 OA
BRANCH  28  30
ATOM     30  O   UNL     1      -2.795  17.355  19.103  0.00  0.00    +0.000 OA
ATOM     31  H   UNL     1      -3.204  18.237  19.099  0.00  0.00    +0.000 HD
ENDBRANCH  28  30
ENDBRANCH  25  28
ENDBRANCH   5  22
TORSDOF 6
ENDMDL
