MODEL 1
REMARK VINA RESULT:      -8.2      0.000      0.000
REMARK  Name = 
REMARK  12 active torsions:
REMARK  status: ('A' for Active; 'I' for Inactive)
REMARK    1  A    between atoms: C_1  and  O_2
REMARK    2  A    between atoms: O_2  and  C_3
REMARK    3  A    between atoms: C_8  and  N_9
REMARK    4  A    between atoms: N_9  and  C_10
REMARK    5  A    between atoms: C_10  and  C_11
REMARK    6  A    between atoms: N_13  and  N_14
REMARK    7  A    between atoms: C_15  and  C_16
REMARK    8  A    between atoms: C_18  and  C_19
REMARK    9  A    between atoms: C_22  and  C_23
REMARK   10  A    between atoms: C_23  and  C_24
REMARK   11  A    between atoms: C_23  and  C_25
REMARK   12  A    between atoms: C_28  and  C_29
REMARK                            x       y       z     vdW  Elec       q    Type
REMARK                         _______ _______ _______ _____ _____    ______ ____
ROOT
ATOM      1  N   UNL     1       2.717   8.419  17.911  0.00  0.00    +0.000 NA
ATOM      2  C   UNL     1       2.431   7.208  17.550  0.00  0.00    +0.000 C 
ENDROOT
BRANCH   2   3
ATOM      3  C   UNL     1       3.412   6.143  17.851  0.00  0.00    +0.000 A 
ATOM      4  C   UNL     1       4.767   6.547  18.233  0.00  0.00    +0.000 A 
ATOM      5  C   UNL     1       5.451   5.500  18.718  0.00  0.00    +0.000 A 
ATOM      6  C   UNL     1       6.825   5.499  19.279  0.00  0.00    +0.000 C 
ATOM      7  C   UNL     1       4.498   4.404  18.721  0.00  0.00    +0.000 A 
ATOM      8  C   UNL     1       4.576   3.352  19.561  0.00  0.00    +0.000 A 
ATOM      9  C   UNL     1       3.412   2.484  19.784  0.00  0.00    +0.000 A 
ATOM     10  C   UNL     1       3.093   1.893  18.602  0.00  0.00    +0.000 A 
ATOM     11  C   UNL     1       2.103   2.569  17.772  0.00  0.00    +0.000 A 
ATOM     12  C   UNL     1       2.099   3.924  17.610  0.00  0.00    +0.000 A 
ATOM     13  C   UNL     1       0.747   4.531  17.384  0.00  0.00    +0.000 C 
ATOM     14  C   UNL     1       3.258   4.799  17.953  0.00  0.00    +0.000 A 
BRANCH   9  15
ATOM     15  C   UNL     1       2.283   3.229  20.599  0.00  0.00    +0.000 C 
ATOM     16  C   UNL     1       1.559   2.295  21.577  0.00  0.00    +0.000 C 
ATOM     17  C   UNL     1       2.598   4.597  21.220  0.00  0.00    +0.000 C 
ENDBRANCH   9  15
ENDBRANCH   2   3
BRANCH   1  20
ATOM     18  C   UNL     1       0.992   9.726  18.843  0.00  0.00    +0.000 C 
ATOM     19  O   UNL     1       1.133   9.290  19.986  0.00  0.00    +0.000 OA
ATOM     20  N   UNL     1       1.792   9.394  17.751  0.00  0.00    +0.000 N 
ATOM     21  H   UNL     1       1.695   9.876  16.864  0.00  0.00    +0.000 HD
BRANCH  18  22
ATOM     22  C   UNL     1      -0.097  10.741  18.504  0.00  0.00    +0.000 C 
BRANCH  22  23
ATOM     23  N   UNL     1      -0.970  10.187  17.470  0.00  0.00    +0.000 N 
ATOM     24  H   UNL     1      -0.514  10.227  16.558  0.00  0.00    +0.000 HD
BRANCH  23  30
ATOM     25  C   UNL     1      -3.046  10.746  16.158  0.00  0.00    +0.000 A 
ATOM     26  C   UNL     1      -4.372  11.210  16.185  0.00  0.00    +0.000 A 
ATOM     27  C   UNL     1      -4.929  11.680  17.369  0.00  0.00    +0.000 A 
ATOM     28  C   UNL     1      -4.188  11.640  18.537  0.00  0.00    +0.000 A 
ATOM     29  C   UNL     1      -2.896  11.112  18.533  0.00  0.00    +0.000 A 
ATOM     30  C   UNL     1      -2.305  10.619  17.354  0.00  0.00    +0.000 A 
BRANCH  25  32
ATOM     31  C   UNL     1      -3.397  10.006  13.933  0.00  0.00    +0.000 C 
ATOM     32  O   UNL     1      -2.477  10.349  14.973  0.00  0.00    +0.000 OA
ENDBRANCH  25  32
ENDBRANCH  23  30
ENDBRANCH  22  23
ENDBRANCH  18  22
ENDBRANCH   1  20
TORSDOF 7
ENDMDL
MODEL 2
REMARK VINA RESULT:      -8.1      3.213      9.166
REMARK  Name = 
REMARK  12 active torsions:
REMARK  status: ('A' for Active; 'I' for Inactive)
REMARK    1  A    between atoms: C_1  and  O_2
REMARK    2  A    between atoms: O_2  and  C_3
REMARK    3  A    between atoms: C_8  and  N_9
REMARK    4  A    between atoms: N_9  and  C_10
REMARK    5  A    between atoms: C_10  and  C_11
REMARK    6  A    between atoms: N_13  and  N_14
REMARK    7  A    between atoms: C_15  and  C_16
REMARK    8  A    between atoms: C_18  and  C_19
REMARK    9  A    between atoms: C_22  and  C_23
REMARK   10  A    between atoms: C_23  and  C_24
REMARK   11  A    between atoms: C_23  and  C_25
REMARK   12  A    between atoms: C_28  and  C_29
REMARK                            x       y       z     vdW  Elec       q    Type
REMARK                         _______ _______ _______ _____ _____    ______ ____
ROOT
ATOM      1  N   UNL     1       1.805   6.510  20.460  0.00  0.00    +0.000 NA
ATOM      2  C   UNL     1       1.982   7.782  20.286  0.00  0.00    +0.000 C 
ENDROOT
BRANCH   2   3
ATOM      3  C   UNL     1       0.872   8.693  20.640  0.00  0.00    +0.000 A 
ATOM      4  C   UNL     1       0.457   8.754  22.042  0.00  0.00    +0.000 A 
ATOM      5  C   UNL     1      -0.366   9.795  22.244  0.00  0.00    +0.000 A 
ATOM      6  C   UNL     1      -0.950  10.250  23.530  0.00  0.00    +0.000 C 
ATOM      7  C   UNL     1      -0.431  10.470  20.960  0.00  0.00    +0.000 A 
ATOM      8  C   UNL     1      -0.702  11.784  20.823  0.00  0.00    +0.000 A 
ATOM      9  C   UNL     1      -0.389  12.487  19.571  0.00  0.00    +0.000 A 
ATOM     10  C   UNL     1      -1.129  11.928  18.576  0.00  0.00    +0.000 A 
ATOM     11  C   UNL     1      -0.509  10.846  17.820  0.00  0.00    +0.000 A 
ATOM     12  C   UNL     1       0.233   9.874  18.425  0.00  0.00    +0.000 A 
ATOM     13  C   UNL     1       1.336   9.303  17.585  0.00  0.00    +0.000 C 
ATOM     14  C   UNL     1       0.206   9.609  19.894  0.00  0.00    +0.000 A 
BRANCH   9  15
ATOM     15  C   UNL     1       1.169  12.645  19.372  0.00  0.00    +0.000 C 
ATOM     16  C   UNL     1       1.515  13.554  18.185  0.00  0.00    +0.000 C 
ATOM     17  C   UNL     1       2.049  12.924  20.599  0.00  0.00    +0.000 C 
ENDBRANCH   9  15
ENDBRANCH   2   3
BRANCH   1  20
ATOM     18  C   UNL     1       2.560   4.405  19.718  0.00  0.00    +0.000 C 
ATOM     19  O   UNL     1       1.461   4.037  19.303  0.00  0.00    +0.000 OA
ATOM     20  N   UNL     1       2.839   5.662  20.252  0.00  0.00    +0.000 N 
ATOM     21  H   UNL     1       3.790   5.941  20.468  0.00  0.00    +0.000 HD
BRANCH  18  22
ATOM     22  C   UNL     1       3.784   3.494  19.654  0.00  0.00    +0.000 C 
BRANCH  22  23
ATOM     23  N   UNL     1       4.964   4.292  19.325  0.00  0.00    +0.000 N 
ATOM     24  H   UNL     1       4.838   5.258  19.627  0.00  0.00    +0.000 HD
BRANCH  23  30
ATOM     25  C   UNL     1       6.843   4.537  17.665  0.00  0.00    +0.000 A 
ATOM     26  C   UNL     1       7.245   4.495  16.319  0.00  0.00    +0.000 A 
ATOM     27  C   UNL     1       6.305   4.321  15.310  0.00  0.00    +0.000 A 
ATOM     28  C   UNL     1       4.973   4.138  15.639  0.00  0.00    +0.000 A 
ATOM     29  C   UNL     1       4.577   4.104  16.977  0.00  0.00    +0.000 A 
ATOM     30  C   UNL     1       5.504   4.267  18.024  0.00  0.00    +0.000 A 
BRANCH  25  32
ATOM     31  C   UNL     1       7.967   6.155  18.985  0.00  0.00    +0.000 C 
ATOM     32  O   UNL     1       7.765   4.778  18.654  0.00  0.00    +0.000 OA
ENDBRANCH  25  32
ENDBRANCH  23  30
ENDBRANCH  22  23
ENDBRANCH  18  22
ENDBRANCH   1  20
TORSDOF 7
ENDMDL
MODEL 3
REMARK VINA RESULT:      -8.1      1.856      3.775
REMARK  Name = 
REMARK  12 active torsions:
REMARK  status: ('A' for Active; 'I' for Inactive)
REMARK    1  A    between atoms: C_1  and  O_2
REMARK    2  A    between atoms: O_2  and  C_3
REMARK    3  A    between atoms: C_8  and  N_9
REMARK    4  A    between atoms: N_9  and  C_10
REMARK    5  A    between atoms: C_10  and  C_11
REMARK    6  A    between atoms: N_13  and  N_14
REMARK    7  A    between atoms: C_15  and  C_16
REMARK    8  A    between atoms: C_18  and  C_19
REMARK    9  A    between atoms: C_22  and  C_23
REMARK   10  A    between atoms: C_23  and  C_24
REMARK   11  A    between atoms: C_23  and  C_25
REMARK   12  A    between atoms: C_28  and  C_29
REMARK                            x       y       z     vdW  Elec       q    Type
REMARK                         _______ _______ _______ _____ _____    ______ ____
ROOT
ATOM      1  N   UNL     1       2.169   8.086  18.458  0.00  0.00    +0.000 NA
ATOM      2  C   UNL     1       3.029   7.653  17.591  0.00  0.00    +0.000 C 
ENDROOT
BRANCH   2   3
ATOM      3  C   UNL     1       3.545   6.277  17.751  0.00  0.00    +0.000 A 
ATOM      4  C   UNL     1       2.572   5.195  17.913  0.00  0.00    +0.000 A 
ATOM      5  C   UNL     1       3.171   4.001  17.786  0.00  0.00    +0.000 A 
ATOM      6  C   UNL     1       2.532   2.662  17.810  0.00  0.00    +0.000 C 
ATOM      7  C   UNL     1       4.552   4.312  17.462  0.00  0.00    +0.000 A 
ATOM      8  C   UNL     1       5.359   3.481  16.771  0.00  0.00    +0.000 A 
ATOM      9  C   UNL     1       6.593   3.981  16.151  0.00  0.00    +0.000 A 
ATOM     10  C   UNL     1       7.411   4.431  17.140  0.00  0.00    +0.000 A 
ATOM     11  C   UNL     1       7.317   5.846  17.481  0.00  0.00    +0.000 A 
ATOM     12  C   UNL     1       6.119   6.492  17.563  0.00  0.00    +0.000 A 
ATOM     13  C   UNL     1       6.159   7.948  17.210  0.00  0.00    +0.000 C 
ATOM     14  C   UNL     1       4.807   5.787  17.661  0.00  0.00    +0.000 A 
BRANCH   9  15
ATOM     15  C   UNL     1       6.282   4.924  14.924  0.00  0.00    +0.000 C 
ATOM     16  C   UNL     1       7.529   5.204  14.074  0.00  0.00    +0.000 C 
ATOM     17  C   UNL     1       5.041   4.640  14.066  0.00  0.00    +0.000 C 
ENDBRANCH   9  15
ENDBRANCH   2   3
BRANCH   1  20
ATOM     18  C   UNL     1       0.879   9.852  19.335  0.00  0.00    +0.000 C 
ATOM     19  O   UNL     1       0.822   9.388  20.474  0.00  0.00    +0.000 OA
ATOM     20  N   UNL     1       1.595   9.298  18.275  0.00  0.00    +0.000 N 
ATOM     21  H   UNL     1       1.696   9.791  17.395  0.00  0.00    +0.000 HD
BRANCH  18  22
ATOM     22  C   UNL     1       0.171  11.153  18.966  0.00  0.00    +0.000 C 
BRANCH  22  23
ATOM     23  N   UNL     1      -0.619  10.947  17.754  0.00  0.00    +0.000 N 
ATOM     24  H   UNL     1      -0.222  11.472  16.974  0.00  0.00    +0.000 HD
BRANCH  23  30
ATOM     25  C   UNL     1      -2.913  10.830  16.719  0.00  0.00    +0.000 A 
ATOM     26  C   UNL     1      -4.291  11.060  16.868  0.00  0.00    +0.000 A 
ATOM     27  C   UNL     1      -4.778  11.694  18.005  0.00  0.00    +0.000 A 
ATOM     28  C   UNL     1      -3.904  12.054  19.016  0.00  0.00    +0.000 A 
ATOM     29  C   UNL     1      -2.544  11.762  18.907  0.00  0.00    +0.000 A 
ATOM     30  C   UNL     1      -2.018  11.112  17.774  0.00  0.00    +0.000 A 
BRANCH  25  32
ATOM     31  C   UNL     1      -3.332  10.263  14.454  0.00  0.00    +0.000 C 
ATOM     32  O   UNL     1      -2.428  10.266  15.564  0.00  0.00    +0.000 OA
ENDBRANCH  25  32
ENDBRANCH  23  30
ENDBRANCH  22  23
ENDBRANCH  18  22
ENDBRANCH   1  20
TORSDOF 7
ENDMDL
MODEL 4
REMARK VINA RESULT:      -8.1      3.063      8.979
REMARK  Name = 
REMARK  12 active torsions:
REMARK  status: ('A' for Active; 'I' for Inactive)
REMARK    1  A    between atoms: C_1  and  O_2
REMARK    2  A    between atoms: O_2  and  C_3
REMARK    3  A    between atoms: C_8  and  N_9
REMARK    4  A    between atoms: N_9  and  C_10
REMARK    5  A    between atoms: C_10  and  C_11
REMARK    6  A    between atoms: N_13  and  N_14
REMARK    7  A    between atoms: C_15  and  C_16
REMARK    8  A    between atoms: C_18  and  C_19
REMARK    9  A    between atoms: C_22  and  C_23
REMARK   10  A    between atoms: C_23  and  C_24
REMARK   11  A    between atoms: C_23  and  C_25
REMARK   12  A    between atoms: C_28  and  C_29
REMARK                            x       y       z     vdW  Elec       q    Type
REMARK                         _______ _______ _______ _____ _____    ______ ____
ROOT
ATOM      1  N   UNL     1       1.211   6.879  20.755  0.00  0.00    +0.000 NA
ATOM      2  C   UNL     1       1.541   8.123  20.897  0.00  0.00    +0.000 C 
ENDROOT
BRANCH   2   3
ATOM      3  C   UNL     1       0.457   9.123  20.998  0.00  0.00    +0.000 A 
ATOM      4  C   UNL     1      -0.099   9.400  22.324  0.00  0.00    +0.000 A 
ATOM      5  C   UNL     1      -0.875  10.494  22.289  0.00  0.00    +0.000 A 
ATOM      6  C   UNL     1      -1.563  11.151  23.428  0.00  0.00    +0.000 C 
ATOM      7  C   UNL     1      -0.764  10.984  20.927  0.00  0.00    +0.000 A 
ATOM      8  C   UNL     1      -0.941  12.277  20.584  0.00  0.00    +0.000 A 
ATOM      9  C   UNL     1      -0.457  12.782  19.292  0.00  0.00    +0.000 A 
ATOM     10  C   UNL     1      -1.120  12.122  18.305  0.00  0.00    +0.000 A 
ATOM     11  C   UNL     1      -0.490  10.918  17.777  0.00  0.00    +0.000 A 
ATOM     12  C   UNL     1       0.126  10.008  18.587  0.00  0.00    +0.000 A 
ATOM     13  C   UNL     1       1.274   9.277  17.960  0.00  0.00    +0.000 C 
ATOM     14  C   UNL     1      -0.072   9.955  20.065  0.00  0.00    +0.000 A 
BRANCH   9  15
ATOM     15  C   UNL     1       1.121  12.841  19.250  0.00  0.00    +0.000 C 
ATOM     16  C   UNL     1       1.639  13.749  18.127  0.00  0.00    +0.000 C 
ATOM     17  C   UNL     1       1.891  13.037  20.563  0.00  0.00    +0.000 C 
ENDBRANCH   9  15
ENDBRANCH   2   3
BRANCH   1  20
ATOM     18  C   UNL     1       2.586   5.388  19.555  0.00  0.00    +0.000 C 
ATOM     19  O   UNL     1       2.231   5.786  18.445  0.00  0.00    +0.000 OA
ATOM     20  N   UNL     1       2.175   5.930  20.772  0.00  0.00    +0.000 N 
ATOM     21  H   UNL     1       2.594   5.632  21.647  0.00  0.00    +0.000 HD
BRANCH  18  22
ATOM     22  C   UNL     1       3.578   4.239  19.713  0.00  0.00    +0.000 C 
BRANCH  22  23
ATOM     23  N   UNL     1       4.431   4.171  18.527  0.00  0.00    +0.000 N 
ATOM     24  H   UNL     1       4.756   3.216  18.375  0.00  0.00    +0.000 HD
BRANCH  23  30
ATOM     25  C   UNL     1       5.813   5.807  17.200  0.00  0.00    +0.000 A 
ATOM     26  C   UNL     1       6.930   6.658  17.168  0.00  0.00    +0.000 A 
ATOM     27  C   UNL     1       7.824   6.685  18.233  0.00  0.00    +0.000 A 
ATOM     28  C   UNL     1       7.581   5.906  19.350  0.00  0.00    +0.000 A 
ATOM     29  C   UNL     1       6.434   5.113  19.420  0.00  0.00    +0.000 A 
ATOM     30  C   UNL     1       5.503   5.070  18.365  0.00  0.00    +0.000 A 
BRANCH  25  32
ATOM     31  C   UNL     1       5.583   5.329  14.889  0.00  0.00    +0.000 C 
ATOM     32  O   UNL     1       4.971   5.731  16.118  0.00  0.00    +0.000 OA
ENDBRANCH  25  32
ENDBRANCH  23  30
ENDBRANCH  22  23
ENDBRANCH  18  22
ENDBRANCH   1  20
TORSDOF 7
ENDMDL
MODEL 5
REMARK VINA RESULT:      -8.0      2.603      3.408
REMARK  Name = 
REMARK  12 active torsions:
REMARK  status: ('A' for Active; 'I' for Inactive)
REMARK    1  A    between atoms: C_1  and  O_2
REMARK    2  A    between atoms: O_2  and  C_3
REMARK    3  A    between atoms: C_8  and  N_9
REMARK    4  A    between atoms: N_9  and  C_10
REMARK    5  A    between atoms: C_10  and  C_11
REMARK    6  A    between atoms: N_13  and  N_14
REMARK    7  A    between atoms: C_15  and  C_16
REMARK    8  A    between atoms: C_18  and  C_19
REMARK    9  A    between atoms: C_22  and  C_23
REMARK   10  A    between atoms: C_23  and  C_24
REMARK   11  A    between atoms: C_23  and  C_25
REMARK   12  A    between atoms: C_28  and  C_29
REMARK                            x       y       z     vdW  Elec       q    Type
REMARK                         _______ _______ _______ _____ _____    ______ ____
ROOT
ATOM      1  N   UNL     1       1.389   8.397  20.025  0.00  0.00    +0.000 NA
ATOM      2  C   UNL     1       2.335   7.515  20.097  0.00  0.00    +0.000 C 
ENDROOT
BRANCH   2   3
ATOM      3  C   UNL     1       2.694   6.779  18.865  0.00  0.00    +0.000 A 
ATOM      4  C   UNL     1       3.551   7.453  17.888  0.00  0.00    +0.000 A 
ATOM      5  C   UNL     1       3.992   6.581  16.968  0.00  0.00    +0.000 A 
ATOM      6  C   UNL     1       4.936   6.843  15.854  0.00  0.00    +0.000 C 
ATOM      7  C   UNL     1       3.470   5.295  17.397  0.00  0.00    +0.000 A 
ATOM      8  C   UNL     1       4.052   4.118  17.093  0.00  0.00    +0.000 A 
ATOM      9  C   UNL     1       3.717   2.901  17.845  0.00  0.00    +0.000 A 
ATOM     10  C   UNL     1       2.398   2.634  17.653  0.00  0.00    +0.000 A 
ATOM     11  C   UNL     1       1.465   3.183  18.630  0.00  0.00    +0.000 A 
ATOM     12  C   UNL     1       1.598   4.447  19.127  0.00  0.00    +0.000 A 
ATOM     13  C   UNL     1       1.099   4.631  20.529  0.00  0.00    +0.000 C 
ATOM     14  C   UNL     1       2.458   5.493  18.501  0.00  0.00    +0.000 A 
BRANCH   9  15
ATOM     15  C   UNL     1       4.281   2.959  19.319  0.00  0.00    +0.000 C 
ATOM     16  C   UNL     1       4.553   1.563  19.894  0.00  0.00    +0.000 C 
ATOM     17  C   UNL     1       5.404   3.954  19.644  0.00  0.00    +0.000 C 
ENDBRANCH   9  15
ENDBRANCH   2   3
BRANCH   1  20
ATOM     18  C   UNL     1      -0.049   8.897  21.823  0.00  0.00    +0.000 C 
ATOM     19  O   UNL     1      -0.798   7.938  21.632  0.00  0.00    +0.000 OA
ATOM     20  N   UNL     1       1.115   9.164  21.106  0.00  0.00    +0.000 N 
ATOM     21  H   UNL     1       1.748   9.905  21.389  0.00  0.00    +0.000 HD
BRANCH  18  22
ATOM     22  C   UNL     1      -0.317   9.909  22.935  0.00  0.00    +0.000 C 
BRANCH  22  23
ATOM     23  N   UNL     1      -0.312  11.258  22.372  0.00  0.00    +0.000 N 
ATOM     24  H   UNL     1      -0.042  11.941  23.080  0.00  0.00    +0.000 HD
BRANCH  23  30
ATOM     25  C   UNL     1      -1.531  11.842  20.246  0.00  0.00    +0.000 A 
ATOM     26  C   UNL     1      -2.697  12.357  19.655  0.00  0.00    +0.000 A 
ATOM     27  C   UNL     1      -3.707  12.895  20.445  0.00  0.00    +0.000 A 
ATOM     28  C   UNL     1      -3.582  12.875  21.823  0.00  0.00    +0.000 A 
ATOM     29  C   UNL     1      -2.460  12.298  22.419  0.00  0.00    +0.000 A 
ATOM     30  C   UNL     1      -1.424  11.735  21.650  0.00  0.00    +0.000 A 
BRANCH  25  32
ATOM     31  C   UNL     1       0.436  12.361  19.028  0.00  0.00    +0.000 C 
ATOM     32  O   UNL     1      -0.507  11.375  19.460  0.00  0.00    +0.000 OA
ENDBRANCH  25  32
ENDBRANCH  23  30
ENDBRANCH  22  23
ENDBRANCH  18  22
ENDBRANCH   1  20
TORSDOF 7
ENDMDL
MODEL 6
REMARK VINA RESULT:      -8.0      6.823     10.501
REMARK  Name = 
REMARK  12 active torsions:
REMARK  status: ('A' for Active; 'I' for Inactive)
REMARK    1  A    between atoms: C_1  and  O_2
REMARK    2  A    between atoms: O_2  and  C_3
REMARK    3  A    between atoms: C_8  and  N_9
REMARK    4  A    between atoms: N_9  and  C_10
REMARK    5  A    between atoms: C_10  and  C_11
REMARK    6  A    between atoms: N_13  and  N_14
REMARK    7  A    between atoms: C_15  and  C_16
REMARK    8  A    between atoms: C_18  and  C_19
REMARK    9  A    between atoms: C_22  and  C_23
REMARK   10  A    between atoms: C_23  and  C_24
REMARK   11  A    between atoms: C_23  and  C_25
REMARK   12  A    between atoms: C_28  and  C_29
REMARK                            x       y       z     vdW  Elec       q    Type
REMARK                         _______ _______ _______ _____ _____    ______ ____
ROOT
ATOM      1  N   UNL     1       9.238   9.050  18.825  0.00  0.00    +0.000 NA
ATOM      2  C   UNL     1       9.033  10.091  19.569  0.00  0.00    +0.000 C 
ENDROOT
BRANCH   2   3
ATOM      3  C   UNL     1       9.826  11.308  19.293  0.00  0.00    +0.000 A 
ATOM      4  C   UNL     1      10.481  11.420  17.989  0.00  0.00    +0.000 A 
ATOM      5  C   UNL     1      10.934  12.668  17.795  0.00  0.00    +0.000 A 
ATOM      6  C   UNL     1      11.589  13.213  16.581  0.00  0.00    +0.000 C 
ATOM      7  C   UNL     1      10.502  13.405  18.969  0.00  0.00    +0.000 A 
ATOM      8  C   UNL     1      10.287  14.737  18.974  0.00  0.00    +0.000 A 
ATOM      9  C   UNL     1       9.504  15.365  20.046  0.00  0.00    +0.000 A 
ATOM     10  C   UNL     1      10.162  15.169  21.220  0.00  0.00    +0.000 A 
ATOM     11  C   UNL     1       9.793  13.990  21.995  0.00  0.00    +0.000 A 
ATOM     12  C   UNL     1       9.559  12.781  21.407  0.00  0.00    +0.000 A 
ATOM     13  C   UNL     1       8.559  11.916  22.112  0.00  0.00    +0.000 C 
ATOM     14  C   UNL     1       9.979  12.448  20.014  0.00  0.00    +0.000 A 
BRANCH   9  15
ATOM     15  C   UNL     1       7.976  14.978  19.950  0.00  0.00    +0.000 C 
ATOM     16  C   UNL     1       7.089  15.892  20.804  0.00  0.00    +0.000 C 
ATOM     17  C   UNL     1       7.368  14.698  18.568  0.00  0.00    +0.000 C 
ENDBRANCH   9  15
ENDBRANCH   2   3
BRANCH   1  20
ATOM     18  C   UNL     1       7.741   7.501  17.871  0.00  0.00    +0.000 C 
ATOM     19  O   UNL     1       7.860   7.930  16.723  0.00  0.00    +0.000 OA
ATOM     20  N   UNL     1       8.451   7.959  18.979  0.00  0.00    +0.000 N 
ATOM     21  H   UNL     1       8.392   7.486  19.874  0.00  0.00    +0.000 HD
BRANCH  18  22
ATOM     22  C   UNL     1       6.791   6.351  18.200  0.00  0.00    +0.000 C 
BRANCH  22  23
ATOM     23  N   UNL     1       5.548   6.522  17.449  0.00  0.00    +0.000 N 
ATOM     24  H   UNL     1       5.145   7.442  17.629  0.00  0.00    +0.000 HD
BRANCH  23  30
ATOM     25  C   UNL     1       4.589   4.253  16.925  0.00  0.00    +0.000 A 
ATOM     26  C   UNL     1       3.497   3.375  17.039  0.00  0.00    +0.000 A 
ATOM     27  C   UNL     1       2.303   3.809  17.603  0.00  0.00    +0.000 A 
ATOM     28  C   UNL     1       2.208   5.097  18.099  0.00  0.00    +0.000 A 
ATOM     29  C   UNL     1       3.312   5.951  18.057  0.00  0.00    +0.000 A 
ATOM     30  C   UNL     1       4.540   5.540  17.502  0.00  0.00    +0.000 A 
BRANCH  25  32
ATOM     31  C   UNL     1       5.790   4.049  14.891  0.00  0.00    +0.000 C 
ATOM     32  O   UNL     1       5.743   3.841  16.306  0.00  0.00    +0.000 OA
ENDBRANCH  25  32
ENDBRANCH  23  30
ENDBRANCH  22  23
ENDBRANCH  18  22
ENDBRANCH   1  20
TORSDOF 7
ENDMDL
MODEL 7
REMARK VINA RESULT:      -7.9      2.119      4.157
REMARK  Name = 
REMARK  12 active torsions:
REMARK  status: ('A' for Active; 'I' for Inactive)
REMARK    1  A    between atoms: C_1  and  O_2
REMARK    2  A    between atoms: O_2  and  C_3
REMARK    3  A    between atoms: C_8  and  N_9
REMARK    4  A    between atoms: N_9  and  C_10
REMARK    5  A    between atoms: C_10  and  C_11
REMARK    6  A    between atoms: N_13  and  N_14
REMARK    7  A    between atoms: C_15  and  C_16
REMARK    8  A    between atoms: C_18  and  C_19
REMARK    9  A    between atoms: C_22  and  C_23
REMARK   10  A    between atoms: C_23  and  C_24
REMARK   11  A    between atoms: C_23  and  C_25
REMARK   12  A    between atoms: C_28  and  C_29
REMARK                            x       y       z     vdW  Elec       q    Type
REMARK                         _______ _______ _______ _____ _____    ______ ____
ROOT
ATOM      1  N   UNL     1       2.298   8.108  18.543  0.00  0.00    +0.000 NA
ATOM      2  C   UNL     1       3.073   7.642  17.615  0.00  0.00    +0.000 C 
ENDROOT
BRANCH   2   3
ATOM      3  C   UNL     1       3.582   6.261  17.762  0.00  0.00    +0.000 A 
ATOM      4  C   UNL     1       2.604   5.184  17.922  0.00  0.00    +0.000 A 
ATOM      5  C   UNL     1       3.196   3.987  17.784  0.00  0.00    +0.000 A 
ATOM      6  C   UNL     1       2.549   2.652  17.801  0.00  0.00    +0.000 C 
ATOM      7  C   UNL     1       4.576   4.293  17.454  0.00  0.00    +0.000 A 
ATOM      8  C   UNL     1       5.375   3.463  16.753  0.00  0.00    +0.000 A 
ATOM      9  C   UNL     1       6.609   3.960  16.129  0.00  0.00    +0.000 A 
ATOM     10  C   UNL     1       7.435   4.398  17.116  0.00  0.00    +0.000 A 
ATOM     11  C   UNL     1       7.351   5.811  17.469  0.00  0.00    +0.000 A 
ATOM     12  C   UNL     1       6.156   6.464  17.562  0.00  0.00    +0.000 A 
ATOM     13  C   UNL     1       6.203   7.922  17.220  0.00  0.00    +0.000 C 
ATOM     14  C   UNL     1       4.841   5.766  17.662  0.00  0.00    +0.000 A 
BRANCH   9  15
ATOM     15  C   UNL     1       6.297   4.914  14.911  0.00  0.00    +0.000 C 
ATOM     16  C   UNL     1       7.544   5.211  14.069  0.00  0.00    +0.000 C 
ATOM     17  C   UNL     1       5.061   4.631  14.045  0.00  0.00    +0.000 C 
ENDBRANCH   9  15
ENDBRANCH   2   3
BRANCH   1  20
ATOM     18  C   UNL     1       0.811   9.751  19.341  0.00  0.00    +0.000 C 
ATOM     19  O   UNL     1       0.561   9.167  20.396  0.00  0.00    +0.000 OA
ATOM     20  N   UNL     1       1.727   9.324  18.382  0.00  0.00    +0.000 N 
ATOM     21  H   UNL     1       1.971   9.910  17.591  0.00  0.00    +0.000 HD
BRANCH  18  22
ATOM     22  C   UNL     1       0.138  11.075  18.983  0.00  0.00    +0.000 C 
BRANCH  22  23
ATOM     23  N   UNL     1      -1.297  10.973  19.240  0.00  0.00    +0.000 N 
ATOM     24  H   UNL     1      -1.494  10.187  19.861  0.00  0.00    +0.000 HD
BRANCH  23  30
ATOM     25  C   UNL     1      -3.533  11.492  18.203  0.00  0.00    +0.000 A 
ATOM     26  C   UNL     1      -4.355  11.416  17.066  0.00  0.00    +0.000 A 
ATOM     27  C   UNL     1      -3.936  10.716  15.940  0.00  0.00    +0.000 A 
ATOM     28  C   UNL     1      -2.680  10.134  15.925  0.00  0.00    +0.000 A 
ATOM     29  C   UNL     1      -1.828  10.268  17.022  0.00  0.00    +0.000 A 
ATOM     30  C   UNL     1      -2.217  10.979  18.174  0.00  0.00    +0.000 A 
BRANCH  25  32
ATOM     31  C   UNL     1      -5.323  12.613  19.281  0.00  0.00    +0.000 C 
ATOM     32  O   UNL     1      -3.979  12.125  19.336  0.00  0.00    +0.000 OA
ENDBRANCH  25  32
ENDBRANCH  23  30
ENDBRANCH  22  23
ENDBRANCH  18  22
ENDBRANCH   1  20
TORSDOF 7
ENDMDL
MODEL 8
REMARK VINA RESULT:      -7.9      0.993      1.713
REMARK  Name = 
REMARK  12 active torsions:
REMARK  status: ('A' for Active; 'I' for Inactive)
REMARK    1  A    between atoms: C_1  and  O_2
REMARK    2  A    between atoms: O_2  and  C_3
REMARK    3  A    between atoms: C_8  and  N_9
REMARK    4  A    between atoms: N_9  and  C_10
REMARK    5  A    between atoms: C_10  and  C_11
REMARK    6  A    between atoms: N_13  and  N_14
REMARK    7  A    between atoms: C_15  and  C_16
REMARK    8  A    between atoms: C_18  and  C_19
REMARK    9  A    between atoms: C_22  and  C_23
REMARK   10  A    between atoms: C_23  and  C_24
REMARK   11  A    between atoms: C_23  and  C_25
REMARK   12  A    between atoms: C_28  and  C_29
REMARK                            x       y       z     vdW  Elec       q    Type
REMARK                         _______ _______ _______ _____ _____    ______ ____
ROOT
ATOM      1  N   UNL     1       2.568   8.217  18.343  0.00  0.00    +0.000 NA
ATOM      2  C   UNL     1       2.751   7.279  17.469  0.00  0.00    +0.000 C 
ENDROOT
BRANCH   2   3
ATOM      3  C   UNL     1       3.676   6.178  17.814  0.00  0.00    +0.000 A 
ATOM      4  C   UNL     1       5.034   6.529  18.232  0.00  0.00    +0.000 A 
ATOM      5  C   UNL     1       5.657   5.460  18.752  0.00  0.00    +0.000 A 
ATOM      6  C   UNL     1       7.012   5.409  19.356  0.00  0.00    +0.000 C 
ATOM      7  C   UNL     1       4.658   4.406  18.739  0.00  0.00    +0.000 A 
ATOM      8  C   UNL     1       4.665   3.364  19.594  0.00  0.00    +0.000 A 
ATOM      9  C   UNL     1       3.459   2.549  19.792  0.00  0.00    +0.000 A 
ATOM     10  C   UNL     1       3.151   1.956  18.608  0.00  0.00    +0.000 A 
ATOM     11  C   UNL     1       2.217   2.662  17.738  0.00  0.00    +0.000 A 
ATOM     12  C   UNL     1       2.276   4.014  17.559  0.00  0.00    +0.000 A 
ATOM     13  C   UNL     1       0.959   4.674  17.284  0.00  0.00    +0.000 C 
ATOM     14  C   UNL     1       3.461   4.843  17.928  0.00  0.00    +0.000 A 
BRANCH   9  15
ATOM     15  C   UNL     1       2.338   3.353  20.561  0.00  0.00    +0.000 C 
ATOM     16  C   UNL     1       1.524   2.458  21.504  0.00  0.00    +0.000 C 
ATOM     17  C   UNL     1       2.700   4.701  21.201  0.00  0.00    +0.000 C 
ENDBRANCH   9  15
ENDBRANCH   2   3
BRANCH   1  20
ATOM     18  C   UNL     1       1.003   9.758  19.195  0.00  0.00    +0.000 C 
ATOM     19  O   UNL     1       1.289   9.559  20.376  0.00  0.00    +0.000 OA
ATOM     20  N   UNL     1       1.645   9.177  18.103  0.00  0.00    +0.000 N 
ATOM     21  H   UNL     1       1.437   9.471  17.155  0.00  0.00    +0.000 HD
BRANCH  18  22
ATOM     22  C   UNL     1      -0.108  10.727  18.795  0.00  0.00    +0.000 C 
BRANCH  22  23
ATOM     23  N   UNL     1      -1.353   9.984  18.607  0.00  0.00    +0.000 N 
ATOM     24  H   UNL     1      -1.167   8.982  18.551  0.00  0.00    +0.000 HD
BRANCH  23  30
ATOM     25  C   UNL     1      -3.416  11.156  17.761  0.00  0.00    +0.000 A 
ATOM     26  C   UNL     1      -4.252  11.436  16.667  0.00  0.00    +0.000 A 
ATOM     27  C   UNL     1      -4.033  10.822  15.439  0.00  0.00    +0.000 A 
ATOM     28  C   UNL     1      -2.954   9.969  15.283  0.00  0.00    +0.000 A 
ATOM     29  C   UNL     1      -2.076   9.744  16.345  0.00  0.00    +0.000 A 
ATOM     30  C   UNL     1      -2.263  10.357  17.598  0.00  0.00    +0.000 A 
BRANCH  25  32
ATOM     31  C   UNL     1      -4.950  12.352  19.117  0.00  0.00    +0.000 C 
ATOM     32  O   UNL     1      -3.678  11.711  18.990  0.00  0.00    +0.000 OA
ENDBRANCH  25  32
ENDBRANCH  23  30
ENDBRANCH  22  23
ENDBRANCH  18  22
ENDBRANCH   1  20
TORSDOF 7
ENDMDL
MODEL 9
REMARK VINA RESULT:      -7.9      6.679     10.342
REMARK  Name = 
REMARK  12 active torsions:
REMARK  status: ('A' for Active; 'I' for Inactive)
REMARK    1  A    between atoms: C_1  and  O_2
REMARK    2  A    between atoms: O_2  and  C_3
REMARK    3  A    between atoms: C_8  and  N_9
REMARK    4  A    between atoms: N_9  and  C_10
REMARK    5  A    between atoms: C_10  and  C_11
REMARK    6  A    between atoms: N_13  and  N_14
REMARK    7  A    between atoms: C_15  and  C_16
REMARK    8  A    between atoms: C_18  and  C_19
REMARK    9  A    between atoms: C_22  and  C_23
REMARK   10  A    between atoms: C_23  and  C_24
REMARK   11  A    between atoms: C_23  and  C_25
REMARK   12  A    between atoms: C_28  and  C_29
REMARK                            x       y       z     vdW  Elec       q    Type
REMARK                         _______ _______ _______ _____ _____    ______ ____
ROOT
ATOM      1  N   UNL     1       9.108   9.362  18.645  0.00  0.00    +0.000 NA
ATOM      2  C   UNL     1       9.512  10.152  19.589  0.00  0.00    +0.000 C 
ENDROOT
BRANCH   2   3
ATOM      3  C   UNL     1      10.021  11.487  19.209  0.00  0.00    +0.000 A 
ATOM      4  C   UNL     1      10.673  11.626  17.906  0.00  0.00    +0.000 A 
ATOM      5  C   UNL     1      10.843  12.922  17.601  0.00  0.00    +0.000 A 
ATOM      6  C   UNL     1      11.396  13.490  16.347  0.00  0.00    +0.000 C 
ATOM      7  C   UNL     1      10.222  13.645  18.696  0.00  0.00    +0.000 A 
ATOM      8  C   UNL     1       9.716  14.888  18.575  0.00  0.00    +0.000 A 
ATOM      9  C   UNL     1       8.781  15.418  19.577  0.00  0.00    +0.000 A 
ATOM     10  C   UNL     1       9.430  15.480  20.770  0.00  0.00    +0.000 A 
ATOM     11  C   UNL     1       9.310  14.322  21.648  0.00  0.00    +0.000 A 
ATOM     12  C   UNL     1       9.369  13.044  21.173  0.00  0.00    +0.000 A 
ATOM     13  C   UNL     1       8.566  12.043  21.947  0.00  0.00    +0.000 C 
ATOM     14  C   UNL     1       9.894  12.691  19.821  0.00  0.00    +0.000 A 
BRANCH   9  15
ATOM     15  C   UNL     1       7.381  14.690  19.502  0.00  0.00    +0.000 C 
ATOM     16  C   UNL     1       6.318  15.385  20.362  0.00  0.00    +0.000 C 
ATOM     17  C   UNL     1       6.838  14.266  18.130  0.00  0.00    +0.000 C 
ENDBRANCH   9  15
ENDBRANCH   2   3
BRANCH   1  20
ATOM     18  C   UNL     1       7.841   7.493  17.973  0.00  0.00    +0.000 C 
ATOM     19  O   UNL     1       7.806   7.809  16.783  0.00  0.00    +0.000 OA
ATOM     20  N   UNL     1       8.533   8.180  18.968  0.00  0.00    +0.000 N 
ATOM     21  H   UNL     1       8.616   7.803  19.906  0.00  0.00    +0.000 HD
BRANCH  18  22
ATOM     22  C   UNL     1       7.127   6.245  18.489  0.00  0.00    +0.000 C 
BRANCH  22  23
ATOM     23  N   UNL     1       6.131   5.818  17.509  0.00  0.00    +0.000 N 
ATOM     24  H   UNL     1       6.311   6.251  16.603  0.00  0.00    +0.000 HD
BRANCH  23  30
ATOM     25  C   UNL     1       3.901   4.806  18.098  0.00  0.00    +0.000 A 
ATOM     26  C   UNL     1       2.537   5.020  18.360  0.00  0.00    +0.000 A 
ATOM     27  C   UNL     1       1.982   6.285  18.203  0.00  0.00    +0.000 A 
ATOM     28  C   UNL     1       2.790   7.347  17.836  0.00  0.00    +0.000 A 
ATOM     29  C   UNL     1       4.159   7.156  17.646  0.00  0.00    +0.000 A 
ATOM     30  C   UNL     1       4.756   5.891  17.807  0.00  0.00    +0.000 A 
BRANCH  25  32
ATOM     31  C   UNL     1       4.499   2.994  19.507  0.00  0.00    +0.000 C 
ATOM     32  O   UNL     1       4.430   3.542  18.187  0.00  0.00    +0.000 OA
ENDBRANCH  25  32
ENDBRANCH  23  30
ENDBRANCH  22  23
ENDBRANCH  18  22
ENDBRANCH   1  20
TORSDOF 7
ENDMDL
