MODEL 1
REMARK VINA RESULT:      -6.4      0.000      0.000
REMARK  Name = 
REMARK  10 active torsions:
REMARK  status: ('A' for Active; 'I' for Inactive)
REMARK    1  A    between atoms: C_1  and  N_2
REMARK    2  A    between atoms: N_2  and  C_3
REMARK    3  A    between atoms: N_2  and  C_4
REMARK    4  A    between atoms: C_4  and  C_5
REMARK    5  A    between atoms: C_5  and  C_6
REMARK    6  A    between atoms: C_5  and  C_10
REMARK    7  A    between atoms: C_6  and  N_7
REMARK    8  A    between atoms: N_7  and  C_8
REMARK    9  A    between atoms: N_7  and  C_9
REMARK   10  A    between atoms: C_22  and  C_23
REMARK                            x       y       z     vdW  Elec       q    Type
REMARK                         _______ _______ _______ _____ _____    ______ ____
ROOT
ATOM      1  C   UNL     1      -3.419  12.750  20.236  0.00  0.00    +0.000 A 
ATOM      2  N   UNL     1      -4.540  12.238  19.744  0.00  0.00    +0.000 NA
ATOM      3  N   UNL     1      -4.266  11.597  18.577  0.00  0.00    +0.000 NA
ATOM      4  C   UNL     1      -2.981  11.705  18.365  0.00  0.00    +0.000 A 
ATOM      5  N   UNL     1      -2.398  12.481  19.343  0.00  0.00    +0.000 N 
ATOM      6  C   UNL     1      -1.052  12.916  19.307  0.00  0.00    +0.000 A 
ATOM      7  C   UNL     1      -0.764  14.254  19.615  0.00  0.00    +0.000 A 
ATOM      8  C   UNL     1       0.565  14.678  19.687  0.00  0.00    +0.000 A 
ATOM      9  C   UNL     1       1.591  13.775  19.434  0.00  0.00    +0.000 A 
ATOM     10 CL   UNL     1       3.227  14.248  19.670  0.00  0.00    +0.000 Cl
ATOM     11  C   UNL     1       1.302  12.479  19.011  0.00  0.00    +0.000 A 
ATOM     12  C   UNL     1      -0.031  12.030  18.932  0.00  0.00    +0.000 A 
ATOM     13  C   UNL     1      -0.258  10.610  18.473  0.00  0.00    +0.000 C 
ATOM     14  N   UNL     1      -1.214  10.227  17.692  0.00  0.00    +0.000 NA
ATOM     15  C   UNL     1      -2.212  11.170  17.216  0.00  0.00    +0.000 C 
ENDROOT
BRANCH  13  16
ATOM     16  C   UNL     1       0.723   9.555  18.888  0.00  0.00    +0.000 A 
ATOM     17  C   UNL     1       1.575   8.942  17.961  0.00  0.00    +0.000 A 
ATOM     18  C   UNL     1       2.342   7.842  18.344  0.00  0.00    +0.000 A 
ATOM     19  C   UNL     1       2.301   7.387  19.663  0.00  0.00    +0.000 A 
ATOM     20  C   UNL     1       1.514   8.046  20.607  0.00  0.00    +0.000 A 
ATOM     21  C   UNL     1       0.726   9.130  20.223  0.00  0.00    +0.000 A 
ENDBRANCH  13  16
BRANCH   1  22
ATOM     22  C   UNL     1      -3.360  13.420  21.604  0.00  0.00    +0.000 C 
BRANCH  22  23
ATOM     23  C   UNL     1      -4.767  14.118  21.774  0.00  0.00    +0.000 C 
BRANCH  23  25
ATOM     24  C   UNL     1      -3.860  16.223  22.666  0.00  0.00    +0.000 C 
ATOM     25  N   UNL     1      -4.937  15.579  21.919  0.00  0.00    +0.000 NA
ATOM     26  C   UNL     1      -4.979  16.168  20.562  0.00  0.00    +0.000 C 
ENDBRANCH  23  25
ENDBRANCH  22  23
BRANCH  22  27
ATOM     27  C   UNL     1      -3.095  12.382  22.739  0.00  0.00    +0.000 C 
BRANCH  27  28
ATOM     28  N   UNL     1      -1.731  12.336  23.348  0.00  0.00    +0.000 NA
ATOM     29  C   UNL     1      -0.835  11.380  22.701  0.00  0.00    +0.000 C 
ATOM     30  C   UNL     1      -1.109  13.669  23.244  0.00  0.00    +0.000 C 
ENDBRANCH  27  28
ENDBRANCH  22  27
ENDBRANCH   1  22
TORSDOF 6
ENDMDL
MODEL 2
REMARK VINA RESULT:      -6.3      0.942      1.298
REMARK  Name = 
REMARK  10 active torsions:
REMARK  status: ('A' for Active; 'I' for Inactive)
REMARK    1  A    between atoms: C_1  and  N_2
REMARK    2  A    between atoms: N_2  and  C_3
REMARK    3  A    between atoms: N_2  and  C_4
REMARK    4  A    between atoms: C_4  and  C_5
REMARK    5  A    between atoms: C_5  and  C_6
REMARK    6  A    between atoms: C_5  and  C_10
REMARK    7  A    between atoms: C_6  and  N_7
REMARK    8  A    between atoms: N_7  and  C_8
REMARK    9  A    between atoms: N_7  and  C_9
REMARK   10  A    between atoms: C_22  and  C_23
REMARK                            x       y       z     vdW  Elec       q    Type
REMARK                         _______ _______ _______ _____ _____    ______ ____
ROOT
ATOM      1  C   UNL     1      -3.497  12.647  19.898  0.00  0.00    +0.000 A 
ATOM      2  N   UNL     1      -4.587  12.102  19.371  0.00  0.00    +0.000 NA
ATOM      3  N   UNL     1      -4.250  11.434  18.235  0.00  0.00    +0.000 NA
ATOM      4  C   UNL     1      -2.959  11.559  18.077  0.00  0.00    +0.000 A 
ATOM      5  N   UNL     1      -2.434  12.372  19.058  0.00  0.00    +0.000 N 
ATOM      6  C   UNL     1      -1.094  12.830  19.069  0.00  0.00    +0.000 A 
ATOM      7  C   UNL     1      -0.843  14.181  19.351  0.00  0.00    +0.000 A 
ATOM      8  C   UNL     1       0.475  14.630  19.470  0.00  0.00    +0.000 A 
ATOM      9  C   UNL     1       1.526  13.740  19.288  0.00  0.00    +0.000 A 
ATOM     10 CL   UNL     1       3.142  14.248  19.582  0.00  0.00    +0.000 Cl
ATOM     11  C   UNL     1       1.278  12.428  18.889  0.00  0.00    +0.000 A 
ATOM     12  C   UNL     1      -0.043  11.953  18.765  0.00  0.00    +0.000 A 
ATOM     13  C   UNL     1      -0.225  10.517  18.336  0.00  0.00    +0.000 C 
ATOM     14  N   UNL     1      -1.139  10.095  17.525  0.00  0.00    +0.000 NA
ATOM     15  C   UNL     1      -2.131  11.007  16.979  0.00  0.00    +0.000 C 
ENDROOT
BRANCH  13  16
ATOM     16  C   UNL     1       0.753   9.492  18.823  0.00  0.00    +0.000 A 
ATOM     17  C   UNL     1       1.634   8.846  17.947  0.00  0.00    +0.000 A 
ATOM     18  C   UNL     1       2.400   7.771  18.399  0.00  0.00    +0.000 A 
ATOM     19  C   UNL     1       2.330   7.376  19.735  0.00  0.00    +0.000 A 
ATOM     20  C   UNL     1       1.513   8.069  20.628  0.00  0.00    +0.000 A 
ATOM     21  C   UNL     1       0.725   9.127  20.175  0.00  0.00    +0.000 A 
ENDBRANCH  13  16
BRANCH   1  22
ATOM     22  C   UNL     1      -3.510  13.356  21.247  0.00  0.00    +0.000 C 
BRANCH  22  23
ATOM     23  C   UNL     1      -5.024  13.739  21.489  0.00  0.00    +0.000 C 
BRANCH  23  25
ATOM     24  C   UNL     1      -6.311  14.325  23.501  0.00  0.00    +0.000 C 
ATOM     25  N   UNL     1      -5.810  13.255  22.643  0.00  0.00    +0.000 NA
ATOM     26  C   UNL     1      -6.968  12.499  22.117  0.00  0.00    +0.000 C 
ENDBRANCH  23  25
ENDBRANCH  22  23
BRANCH  22  27
ATOM     27  C   UNL     1      -2.965  12.434  22.383  0.00  0.00    +0.000 C 
BRANCH  27  28
ATOM     28  N   UNL     1      -1.518  12.059  22.354  0.00  0.00    +0.000 NA
ATOM     29  C   UNL     1      -0.631  13.126  22.813  0.00  0.00    +0.000 C 
ATOM     30  C   UNL     1      -1.302  10.893  23.230  0.00  0.00    +0.000 C 
ENDBRANCH  27  28
ENDBRANCH  22  27
ENDBRANCH   1  22
TORSDOF 6
ENDMDL
MODEL 3
REMARK VINA RESULT:      -6.2      2.868      4.440
REMARK  Name = 
REMARK  10 active torsions:
REMARK  status: ('A' for Active; 'I' for Inactive)
REMARK    1  A    between atoms: C_1  and  N_2
REMARK    2  A    between atoms: N_2  and  C_3
REMARK    3  A    between atoms: N_2  and  C_4
REMARK    4  A    between atoms: C_4  and  C_5
REMARK    5  A    between atoms: C_5  and  C_6
REMARK    6  A    between atoms: C_5  and  C_10
REMARK    7  A    between atoms: C_6  and  N_7
REMARK    8  A    between atoms: N_7  and  C_8
REMARK    9  A    between atoms: N_7  and  C_9
REMARK   10  A    between atoms: C_22  and  C_23
REMARK                            x       y       z     vdW  Elec       q    Type
REMARK                         _______ _______ _______ _____ _____    ______ ____
ROOT
ATOM      1  C   UNL     1      -0.402  13.890  20.831  0.00  0.00    +0.000 A 
ATOM      2  N   UNL     1      -0.094  14.152  22.096  0.00  0.00    +0.000 NA
ATOM      3  N   UNL     1      -0.149  13.002  22.818  0.00  0.00    +0.000 NA
ATOM      4  C   UNL     1      -0.476  12.040  21.996  0.00  0.00    +0.000 A 
ATOM      5  N   UNL     1      -0.716  12.547  20.738  0.00  0.00    +0.000 N 
ATOM      6  C   UNL     1      -1.244  11.785  19.668  0.00  0.00    +0.000 A 
ATOM      7  C   UNL     1      -2.272  12.333  18.889  0.00  0.00    +0.000 A 
ATOM      8  C   UNL     1      -2.735  11.643  17.766  0.00  0.00    +0.000 A 
ATOM      9  C   UNL     1      -2.185  10.408  17.441  0.00  0.00    +0.000 A 
ATOM     10 CL   UNL     1      -2.638   9.624  15.980  0.00  0.00    +0.000 Cl
ATOM     11  C   UNL     1      -1.250   9.809  18.283  0.00  0.00    +0.000 A 
ATOM     12  C   UNL     1      -0.768  10.488  19.420  0.00  0.00    +0.000 A 
ATOM     13  C   UNL     1       0.249   9.773  20.275  0.00  0.00    +0.000 C 
ATOM     14  N   UNL     1       0.287   9.805  21.566  0.00  0.00    +0.000 NA
ATOM     15  C   UNL     1      -0.663  10.606  22.321  0.00  0.00    +0.000 C 
ENDROOT
BRANCH  13  16
ATOM     16  C   UNL     1       1.267   8.902  19.603  0.00  0.00    +0.000 A 
ATOM     17  C   UNL     1       1.762   9.204  18.328  0.00  0.00    +0.000 A 
ATOM     18  C   UNL     1       2.565   8.280  17.659  0.00  0.00    +0.000 A 
ATOM     19  C   UNL     1       2.919   7.082  18.280  0.00  0.00    +0.000 A 
ATOM     20  C   UNL     1       2.493   6.815  19.581  0.00  0.00    +0.000 A 
ATOM     21  C   UNL     1       1.669   7.723  20.244  0.00  0.00    +0.000 A 
ENDBRANCH  13  16
BRANCH   1  22
ATOM     22  C   UNL     1      -0.306  14.942  19.733  0.00  0.00    +0.000 C 
BRANCH  22  23
ATOM     23  C   UNL     1      -0.400  16.327  20.489  0.00  0.00    +0.000 C 
BRANCH  23  25
ATOM     24  C   UNL     1       0.245  18.631  19.919  0.00  0.00    +0.000 C 
ATOM     25  N   UNL     1       0.673  17.343  20.460  0.00  0.00    +0.000 NA
ATOM     26  C   UNL     1       1.137  17.553  21.850  0.00  0.00    +0.000 C 
ENDBRANCH  23  25
ENDBRANCH  22  23
BRANCH  22  27
ATOM     27  C   UNL     1       1.030  14.816  18.935  0.00  0.00    +0.000 C 
BRANCH  27  28
ATOM     28  N   UNL     1       2.082  13.895  19.463  0.00  0.00    +0.000 NA
ATOM     29  C   UNL     1       2.370  12.770  18.575  0.00  0.00    +0.000 C 
ATOM     30  C   UNL     1       3.337  14.648  19.647  0.00  0.00    +0.000 C 
ENDBRANCH  27  28
ENDBRANCH  22  27
ENDBRANCH   1  22
TORSDOF 6
ENDMDL
MODEL 4
REMARK VINA RESULT:      -6.1      2.711      4.198
REMARK  Name = 
REMARK  10 active torsions:
REMARK  status: ('A' for Active; 'I' for Inactive)
REMARK    1  A    between atoms: C_1  and  N_2
REMARK    2  A    between atoms: N_2  and  C_3
REMARK    3  A    between atoms: N_2  and  C_4
REMARK    4  A    between atoms: C_4  and  C_5
REMARK    5  A    between atoms: C_5  and  C_6
REMARK    6  A    between atoms: C_5  and  C_10
REMARK    7  A    between atoms: C_6  and  N_7
REMARK    8  A    between atoms: N_7  and  C_8
REMARK    9  A    between atoms: N_7  and  C_9
REMARK   10  A    between atoms: C_22  and  C_23
REMARK                            x       y       z     vdW  Elec       q    Type
REMARK                         _______ _______ _______ _____ _____    ______ ____
ROOT
ATOM      1  C   UNL     1      -0.375  13.980  20.779  0.00  0.00    +0.000 A 
ATOM      2  N   UNL     1      -0.034  14.275  22.028  0.00  0.00    +0.000 NA
ATOM      3  N   UNL     1      -0.068  13.144  22.781  0.00  0.00    +0.000 NA
ATOM      4  C   UNL     1      -0.414  12.161  21.993  0.00  0.00    +0.000 A 
ATOM      5  N   UNL     1      -0.689  12.635  20.729  0.00  0.00    +0.000 N 
ATOM      6  C   UNL     1      -1.243  11.845  19.693  0.00  0.00    +0.000 A 
ATOM      7  C   UNL     1      -2.293  12.373  18.927  0.00  0.00    +0.000 A 
ATOM      8  C   UNL     1      -2.784  11.653  17.835  0.00  0.00    +0.000 A 
ATOM      9  C   UNL     1      -2.241  10.411  17.528  0.00  0.00    +0.000 A 
ATOM     10 CL   UNL     1      -2.731   9.590  16.099  0.00  0.00    +0.000 Cl
ATOM     11  C   UNL     1      -1.282   9.835  18.359  0.00  0.00    +0.000 A 
ATOM     12  C   UNL     1      -0.772  10.544  19.465  0.00  0.00    +0.000 A 
ATOM     13  C   UNL     1       0.269   9.852  20.311  0.00  0.00    +0.000 C 
ATOM     14  N   UNL     1       0.341   9.917  21.600  0.00  0.00    +0.000 NA
ATOM     15  C   UNL     1      -0.590  10.735  22.359  0.00  0.00    +0.000 C 
ENDROOT
BRANCH  13  16
ATOM     16  C   UNL     1       1.270   8.965  19.635  0.00  0.00    +0.000 A 
ATOM     17  C   UNL     1       1.752   9.249  18.351  0.00  0.00    +0.000 A 
ATOM     18  C   UNL     1       2.538   8.313  17.681  0.00  0.00    +0.000 A 
ATOM     19  C   UNL     1       2.889   7.117  18.309  0.00  0.00    +0.000 A 
ATOM     20  C   UNL     1       2.477   6.866  19.618  0.00  0.00    +0.000 A 
ATOM     21  C   UNL     1       1.669   7.788  20.283  0.00  0.00    +0.000 A 
ENDBRANCH  13  16
BRANCH   1  22
ATOM     22  C   UNL     1      -0.309  15.005  19.653  0.00  0.00    +0.000 C 
BRANCH  22  23
ATOM     23  C   UNL     1      -0.552  16.398  20.357  0.00  0.00    +0.000 C 
BRANCH  23  25
ATOM     24  C   UNL     1      -2.074  18.004  21.432  0.00  0.00    +0.000 C 
ATOM     25  N   UNL     1      -1.832  17.134  20.283  0.00  0.00    +0.000 NA
ATOM     26  C   UNL     1      -1.805  17.971  19.063  0.00  0.00    +0.000 C 
ENDBRANCH  23  25
ENDBRANCH  22  23
BRANCH  22  27
ATOM     27  C   UNL     1       1.070  14.965  18.922  0.00  0.00    +0.000 C 
BRANCH  27  28
ATOM     28  N   UNL     1       2.052  13.913  19.326  0.00  0.00    +0.000 NA
ATOM     29  C   UNL     1       2.343  12.950  18.267  0.00  0.00    +0.000 C 
ATOM     30  C   UNL     1       3.324  14.557  19.704  0.00  0.00    +0.000 C 
ENDBRANCH  27  28
ENDBRANCH  22  27
ENDBRANCH   1  22
TORSDOF 6
ENDMDL
MODEL 5
REMARK VINA RESULT:      -6.0      0.519      1.183
REMARK  Name = 
REMARK  10 active torsions:
REMARK  status: ('A' for Active; 'I' for Inactive)
REMARK    1  A    between atoms: C_1  and  N_2
REMARK    2  A    between atoms: N_2  and  C_3
REMARK    3  A    between atoms: N_2  and  C_4
REMARK    4  A    between atoms: C_4  and  C_5
REMARK    5  A    between atoms: C_5  and  C_6
REMARK    6  A    between atoms: C_5  and  C_10
REMARK    7  A    between atoms: C_6  and  N_7
REMARK    8  A    between atoms: N_7  and  C_8
REMARK    9  A    between atoms: N_7  and  C_9
REMARK   10  A    between atoms: C_22  and  C_23
REMARK                            x       y       z     vdW  Elec       q    Type
REMARK                         _______ _______ _______ _____ _____    ______ ____
ROOT
ATOM      1  C   UNL     1      -3.493  12.788  20.229  0.00  0.00    +0.000 A 
ATOM      2  N   UNL     1      -4.628  12.348  19.697  0.00  0.00    +0.000 NA
ATOM      3  N   UNL     1      -4.360  11.732  18.515  0.00  0.00    +0.000 NA
ATOM      4  C   UNL     1      -3.067  11.783  18.333  0.00  0.00    +0.000 A 
ATOM      5  N   UNL     1      -2.468  12.497  19.348  0.00  0.00    +0.000 N 
ATOM      6  C   UNL     1      -1.102  12.867  19.353  0.00  0.00    +0.000 A 
ATOM      7  C   UNL     1      -0.756  14.178  19.710  0.00  0.00    +0.000 A 
ATOM      8  C   UNL     1       0.591  14.533  19.823  0.00  0.00    +0.000 A 
ATOM      9  C   UNL     1       1.577  13.590  19.561  0.00  0.00    +0.000 A 
ATOM     10 CL   UNL     1       3.229  13.973  19.845  0.00  0.00    +0.000 Cl
ATOM     11  C   UNL     1       1.234  12.324  19.089  0.00  0.00    +0.000 A 
ATOM     12  C   UNL     1      -0.117  11.944  18.970  0.00  0.00    +0.000 A 
ATOM     13  C   UNL     1      -0.403  10.552  18.459  0.00  0.00    +0.000 C 
ATOM     14  N   UNL     1      -1.359  10.242  17.647  0.00  0.00    +0.000 NA
ATOM     15  C   UNL     1      -2.300  11.248  17.183  0.00  0.00    +0.000 C 
ENDROOT
BRANCH  13  16
ATOM     16  C   UNL     1       0.515   9.438  18.858  0.00  0.00    +0.000 A 
ATOM     17  C   UNL     1       0.592   8.991  20.184  0.00  0.00    +0.000 A 
ATOM     18  C   UNL     1       1.583   8.082  20.554  0.00  0.00    +0.000 A 
ATOM     19  C   UNL     1       2.463   7.578  19.596  0.00  0.00    +0.000 A 
ATOM     20  C   UNL     1       2.337   7.960  18.260  0.00  0.00    +0.000 A 
ATOM     21  C   UNL     1       1.365   8.888  17.889  0.00  0.00    +0.000 A 
ENDBRANCH  13  16
BRANCH   1  22
ATOM     22  C   UNL     1      -3.431  13.410  21.618  0.00  0.00    +0.000 C 
BRANCH  22  23
ATOM     23  C   UNL     1      -4.844  14.087  21.823  0.00  0.00    +0.000 C 
BRANCH  23  25
ATOM     24  C   UNL     1      -6.374  15.981  22.176  0.00  0.00    +0.000 C 
ATOM     25  N   UNL     1      -5.020  15.460  22.344  0.00  0.00    +0.000 NA
ATOM     26  C   UNL     1      -4.705  15.440  23.790  0.00  0.00    +0.000 C 
ENDBRANCH  23  25
ENDBRANCH  22  23
BRANCH  22  27
ATOM     27  C   UNL     1      -3.147  12.336  22.715  0.00  0.00    +0.000 C 
BRANCH  27  28
ATOM     28  N   UNL     1      -1.789  12.305  23.338  0.00  0.00    +0.000 NA
ATOM     29  C   UNL     1      -0.865  11.387  22.675  0.00  0.00    +0.000 C 
ATOM     30  C   UNL     1      -1.197  13.655  23.274  0.00  0.00    +0.000 C 
ENDBRANCH  27  28
ENDBRANCH  22  27
ENDBRANCH   1  22
TORSDOF 6
ENDMDL
MODEL 6
REMARK VINA RESULT:      -6.0      3.012      4.847
REMARK  Name = 
REMARK  10 active torsions:
REMARK  status: ('A' for Active; 'I' for Inactive)
REMARK    1  A    between atoms: C_1  and  N_2
REMARK    2  A    between atoms: N_2  and  C_3
REMARK    3  A    between atoms: N_2  and  C_4
REMARK    4  A    between atoms: C_4  and  C_5
REMARK    5  A    between atoms: C_5  and  C_6
REMARK    6  A    between atoms: C_5  and  C_10
REMARK    7  A    between atoms: C_6  and  N_7
REMARK    8  A    between atoms: N_7  and  C_8
REMARK    9  A    between atoms: N_7  and  C_9
REMARK   10  A    between atoms: C_22  and  C_23
REMARK                            x       y       z     vdW  Elec       q    Type
REMARK                         _______ _______ _______ _____ _____    ______ ____
ROOT
ATOM      1  C   UNL     1       0.398  13.980  20.152  0.00  0.00    +0.000 A 
ATOM      2  N   UNL     1       0.805  14.337  21.365  0.00  0.00    +0.000 NA
ATOM      3  N   UNL     1       0.644  13.290  22.218  0.00  0.00    +0.000 NA
ATOM      4  C   UNL     1       0.155  12.295  21.526  0.00  0.00    +0.000 A 
ATOM      5  N   UNL     1      -0.087  12.688  20.228  0.00  0.00    +0.000 N 
ATOM      6  C   UNL     1      -0.763  11.888  19.275  0.00  0.00    +0.000 A 
ATOM      7  C   UNL     1      -1.755  12.478  18.478  0.00  0.00    +0.000 A 
ATOM      8  C   UNL     1      -2.361  11.735  17.462  0.00  0.00    +0.000 A 
ATOM      9  C   UNL     1      -1.990  10.411  17.262  0.00  0.00    +0.000 A 
ATOM     10 CL   UNL     1      -2.616   9.537  15.920  0.00  0.00    +0.000 Cl
ATOM     11  C   UNL     1      -1.093   9.790  18.130  0.00  0.00    +0.000 A 
ATOM     12  C   UNL     1      -0.469  10.521  19.161  0.00  0.00    +0.000 A 
ATOM     13  C   UNL     1       0.495   9.777  20.052  0.00  0.00    +0.000 C 
ATOM     14  N   UNL     1       0.606   9.946  21.329  0.00  0.00    +0.000 NA
ATOM     15  C   UNL     1      -0.194  10.942  22.022  0.00  0.00    +0.000 C 
ENDROOT
BRANCH  13  16
ATOM     16  C   UNL     1       1.356   8.711  19.447  0.00  0.00    +0.000 A 
ATOM     17  C   UNL     1       1.647   7.526  20.135  0.00  0.00    +0.000 A 
ATOM     18  C   UNL     1       2.595   6.640  19.623  0.00  0.00    +0.000 A 
ATOM     19  C   UNL     1       3.213   6.908  18.400  0.00  0.00    +0.000 A 
ATOM     20  C   UNL     1       2.866   8.047  17.675  0.00  0.00    +0.000 A 
ATOM     21  C   UNL     1       1.938   8.949  18.195  0.00  0.00    +0.000 A 
ENDBRANCH  13  16
BRANCH   1  22
ATOM     22  C   UNL     1       0.567  14.883  18.937  0.00  0.00    +0.000 C 
BRANCH  22  23
ATOM     23  C   UNL     1      -0.061  16.267  19.369  0.00  0.00    +0.000 C 
BRANCH  23  25
ATOM     24  C   UNL     1      -2.018  17.753  19.472  0.00  0.00    +0.000 C 
ATOM     25  N   UNL     1      -1.156  16.929  18.629  0.00  0.00    +0.000 NA
ATOM     26  C   UNL     1      -0.546  17.798  17.598  0.00  0.00    +0.000 C 
ENDBRANCH  23  25
ENDBRANCH  22  23
BRANCH  22  27
ATOM     27  C   UNL     1       2.070  15.036  18.541  0.00  0.00    +0.000 C 
BRANCH  27  28
ATOM     28  N   UNL     1       2.662  16.408  18.539  0.00  0.00    +0.000 NA
ATOM     29  C   UNL     1       3.833  16.539  19.404  0.00  0.00    +0.000 C 
ATOM     30  C   UNL     1       3.082  16.752  17.168  0.00  0.00    +0.000 C 
ENDBRANCH  27  28
ENDBRANCH  22  27
ENDBRANCH   1  22
TORSDOF 6
ENDMDL
MODEL 7
REMARK VINA RESULT:      -5.9      2.417      4.047
REMARK  Name = 
REMARK  10 active torsions:
REMARK  status: ('A' for Active; 'I' for Inactive)
REMARK    1  A    between atoms: C_1  and  N_2
REMARK    2  A    between atoms: N_2  and  C_3
REMARK    3  A    between atoms: N_2  and  C_4
REMARK    4  A    between atoms: C_4  and  C_5
REMARK    5  A    between atoms: C_5  and  C_6
REMARK    6  A    between atoms: C_5  and  C_10
REMARK    7  A    between atoms: C_6  and  N_7
REMARK    8  A    between atoms: N_7  and  C_8
REMARK    9  A    between atoms: N_7  and  C_9
REMARK   10  A    between atoms: C_22  and  C_23
REMARK                            x       y       z     vdW  Elec       q    Type
REMARK                         _______ _______ _______ _____ _____    ______ ____
ROOT
ATOM      1  C   UNL     1      -0.759  13.957  21.185  0.00  0.00    +0.000 A 
ATOM      2  N   UNL     1      -0.421  14.194  22.447  0.00  0.00    +0.000 NA
ATOM      3  N   UNL     1      -0.395  13.021  23.132  0.00  0.00    +0.000 NA
ATOM      4  C   UNL     1      -0.701  12.070  22.290  0.00  0.00    +0.000 A 
ATOM      5  N   UNL     1      -1.009  12.603  21.057  0.00  0.00    +0.000 N 
ATOM      6  C   UNL     1      -1.534  11.849  19.981  0.00  0.00    +0.000 A 
ATOM      7  C   UNL     1      -2.615  12.369  19.253  0.00  0.00    +0.000 A 
ATOM      8  C   UNL     1      -3.080  11.692  18.124  0.00  0.00    +0.000 A 
ATOM      9  C   UNL     1      -2.481  10.497  17.741  0.00  0.00    +0.000 A 
ATOM     10 CL   UNL     1      -2.945   9.737  16.270  0.00  0.00    +0.000 Cl
ATOM     11  C   UNL     1      -1.489   9.920  18.532  0.00  0.00    +0.000 A 
ATOM     12  C   UNL     1      -1.004  10.587  19.675  0.00  0.00    +0.000 A 
ATOM     13  C   UNL     1       0.077   9.898  20.472  0.00  0.00    +0.000 C 
ATOM     14  N   UNL     1       0.157   9.891  21.762  0.00  0.00    +0.000 NA
ATOM     15  C   UNL     1      -0.806  10.619  22.573  0.00  0.00    +0.000 C 
ENDROOT
BRANCH  13  16
ATOM     16  C   UNL     1       1.113   9.101  19.740  0.00  0.00    +0.000 A 
ATOM     17  C   UNL     1       1.563   9.477  18.468  0.00  0.00    +0.000 A 
ATOM     18  C   UNL     1       2.387   8.619  17.740  0.00  0.00    +0.000 A 
ATOM     19  C   UNL     1       2.807   7.412  18.300  0.00  0.00    +0.000 A 
ATOM     20  C   UNL     1       2.425   7.071  19.598  0.00  0.00    +0.000 A 
ATOM     21  C   UNL     1       1.580   7.914  20.319  0.00  0.00    +0.000 A 
ENDBRANCH  13  16
BRANCH   1  22
ATOM     22  C   UNL     1      -0.752  15.046  20.120  0.00  0.00    +0.000 C 
BRANCH  22  23
ATOM     23  C   UNL     1      -1.739  16.154  20.666  0.00  0.00    +0.000 C 
BRANCH  23  25
ATOM     24  C   UNL     1      -3.498  16.012  22.379  0.00  0.00    +0.000 C 
ATOM     25  N   UNL     1      -3.164  15.897  20.961  0.00  0.00    +0.000 NA
ATOM     26  C   UNL     1      -3.968  16.888  20.213  0.00  0.00    +0.000 C 
ENDBRANCH  23  25
ENDBRANCH  22  23
BRANCH  22  27
ATOM     27  C   UNL     1       0.683  15.620  19.896  0.00  0.00    +0.000 C 
BRANCH  27  28
ATOM     28  N   UNL     1       1.635  14.829  19.058  0.00  0.00    +0.000 NA
ATOM     29  C   UNL     1       2.507  15.657  18.227  0.00  0.00    +0.000 C 
ATOM     30  C   UNL     1       2.498  14.020  19.939  0.00  0.00    +0.000 C 
ENDBRANCH  27  28
ENDBRANCH  22  27
ENDBRANCH   1  22
TORSDOF 6
ENDMDL
MODEL 8
REMARK VINA RESULT:      -5.9      1.252      1.865
REMARK  Name = 
REMARK  10 active torsions:
REMARK  status: ('A' for Active; 'I' for Inactive)
REMARK    1  A    between atoms: C_1  and  N_2
REMARK    2  A    between atoms: N_2  and  C_3
REMARK    3  A    between atoms: N_2  and  C_4
REMARK    4  A    between atoms: C_4  and  C_5
REMARK    5  A    between atoms: C_5  and  C_6
REMARK    6  A    between atoms: C_5  and  C_10
REMARK    7  A    between atoms: C_6  and  N_7
REMARK    8  A    between atoms: N_7  and  C_8
REMARK    9  A    between atoms: N_7  and  C_9
REMARK   10  A    between atoms: C_22  and  C_23
REMARK                            x       y       z     vdW  Elec       q    Type
REMARK                         _______ _______ _______ _____ _____    ______ ____
ROOT
ATOM      1  C   UNL     1      -3.516  12.663  20.019  0.00  0.00    +0.000 A 
ATOM      2  N   UNL     1      -4.609  12.127  19.488  0.00  0.00    +0.000 NA
ATOM      3  N   UNL     1      -4.276  11.469  18.346  0.00  0.00    +0.000 NA
ATOM      4  C   UNL     1      -2.985  11.591  18.187  0.00  0.00    +0.000 A 
ATOM      5  N   UNL     1      -2.455  12.392  19.175  0.00  0.00    +0.000 N 
ATOM      6  C   UNL     1      -1.114  12.846  19.189  0.00  0.00    +0.000 A 
ATOM      7  C   UNL     1      -0.858  14.193  19.484  0.00  0.00    +0.000 A 
ATOM      8  C   UNL     1       0.461  14.637  19.605  0.00  0.00    +0.000 A 
ATOM      9  C   UNL     1       1.509  13.745  19.413  0.00  0.00    +0.000 A 
ATOM     10 CL   UNL     1       3.127  14.245  19.710  0.00  0.00    +0.000 Cl
ATOM     11  C   UNL     1       1.256  12.437  19.001  0.00  0.00    +0.000 A 
ATOM     12  C   UNL     1      -0.066  11.968  18.874  0.00  0.00    +0.000 A 
ATOM     13  C   UNL     1      -0.254  10.537  18.431  0.00  0.00    +0.000 C 
ATOM     14  N   UNL     1      -1.171  10.127  17.617  0.00  0.00    +0.000 NA
ATOM     15  C   UNL     1      -2.160  11.047  17.082  0.00  0.00    +0.000 C 
ENDROOT
BRANCH  13  16
ATOM     16  C   UNL     1       0.721   9.504  18.906  0.00  0.00    +0.000 A 
ATOM     17  C   UNL     1       1.585   8.850  18.019  0.00  0.00    +0.000 A 
ATOM     18  C   UNL     1       2.348   7.769  18.463  0.00  0.00    +0.000 A 
ATOM     19  C   UNL     1       2.291   7.375  19.800  0.00  0.00    +0.000 A 
ATOM     20  C   UNL     1       1.492   8.077  20.703  0.00  0.00    +0.000 A 
ATOM     21  C   UNL     1       0.708   9.141  20.259  0.00  0.00    +0.000 A 
ENDBRANCH  13  16
BRANCH   1  22
ATOM     22  C   UNL     1      -3.525  13.358  21.375  0.00  0.00    +0.000 C 
BRANCH  22  23
ATOM     23  C   UNL     1      -3.905  14.859  21.059  0.00  0.00    +0.000 C 
BRANCH  23  25
ATOM     24  C   UNL     1      -4.292  16.743  22.592  0.00  0.00    +0.000 C 
ATOM     25  N   UNL     1      -3.324  16.013  21.778  0.00  0.00    +0.000 NA
ATOM     26  C   UNL     1      -2.259  15.502  22.669  0.00  0.00    +0.000 C 
ENDBRANCH  23  25
ENDBRANCH  22  23
BRANCH  22  27
ATOM     27  C   UNL     1      -4.553  12.700  22.349  0.00  0.00    +0.000 C 
BRANCH  27  28
ATOM     28  N   UNL     1      -5.888  13.351  22.509  0.00  0.00    +0.000 NA
ATOM     29  C   UNL     1      -7.005  12.501  22.101  0.00  0.00    +0.000 C 
ATOM     30  C   UNL     1      -6.090  13.699  23.928  0.00  0.00    +0.000 C 
ENDBRANCH  27  28
ENDBRANCH  22  27
ENDBRANCH   1  22
TORSDOF 6
ENDMDL
MODEL 9
REMARK VINA RESULT:      -5.9      0.925      1.131
REMARK  Name = 
REMARK  10 active torsions:
REMARK  status: ('A' for Active; 'I' for Inactive)
REMARK    1  A    between atoms: C_1  and  N_2
REMARK    2  A    between atoms: N_2  and  C_3
REMARK    3  A    between atoms: N_2  and  C_4
REMARK    4  A    between atoms: C_4  and  C_5
REMARK    5  A    between atoms: C_5  and  C_6
REMARK    6  A    between atoms: C_5  and  C_10
REMARK    7  A    between atoms: C_6  and  N_7
REMARK    8  A    between atoms: N_7  and  C_8
REMARK    9  A    between atoms: N_7  and  C_9
REMARK   10  A    between atoms: C_22  and  C_23
REMARK                            x       y       z     vdW  Elec       q    Type
REMARK                         _______ _______ _______ _____ _____    ______ ____
ROOT
ATOM      1  C   UNL     1      -2.974  13.302  20.452  0.00  0.00    +0.000 A 
ATOM      2  N   UNL     1      -4.189  12.812  20.236  0.00  0.00    +0.000 NA
ATOM      3  N   UNL     1      -4.154  11.985  19.158  0.00  0.00    +0.000 NA
ATOM      4  C   UNL     1      -2.921  11.959  18.726  0.00  0.00    +0.000 A 
ATOM      5  N   UNL     1      -2.139  12.824  19.460  0.00  0.00    +0.000 N 
ATOM      6  C   UNL     1      -0.798  13.143  19.136  0.00  0.00    +0.000 A 
ATOM      7  C   UNL     1      -0.393  14.485  19.175  0.00  0.00    +0.000 A 
ATOM      8  C   UNL     1       0.949  14.810  18.962  0.00  0.00    +0.000 A 
ATOM      9  C   UNL     1       1.868  13.803  18.693  0.00  0.00    +0.000 A 
ATOM     10 CL   UNL     1       3.543  14.176  18.581  0.00  0.00    +0.000 Cl
ATOM     11  C   UNL     1       1.444  12.484  18.535  0.00  0.00    +0.000 A 
ATOM     12  C   UNL     1       0.096  12.134  18.747  0.00  0.00    +0.000 A 
ATOM     13  C   UNL     1      -0.280  10.684  18.563  0.00  0.00    +0.000 C 
ATOM     14  N   UNL     1      -1.375  10.265  18.020  0.00  0.00    +0.000 NA
ATOM     15  C   UNL     1      -2.391  11.201  17.568  0.00  0.00    +0.000 C 
ENDROOT
BRANCH  13  16
ATOM     16  C   UNL     1       0.701   9.629  18.976  0.00  0.00    +0.000 A 
ATOM     17  C   UNL     1       1.545   9.009  18.046  0.00  0.00    +0.000 A 
ATOM     18  C   UNL     1       2.312   7.909  18.429  0.00  0.00    +0.000 A 
ATOM     19  C   UNL     1       2.281   7.461  19.751  0.00  0.00    +0.000 A 
ATOM     20  C   UNL     1       1.502   8.128  20.697  0.00  0.00    +0.000 A 
ATOM     21  C   UNL     1       0.713   9.211  20.313  0.00  0.00    +0.000 A 
ENDBRANCH  13  16
BRANCH   1  22
ATOM     22  C   UNL     1      -2.645  14.161  21.667  0.00  0.00    +0.000 C 
BRANCH  22  23
ATOM     23  C   UNL     1      -4.048  14.545  22.284  0.00  0.00    +0.000 C 
BRANCH  23  25
ATOM     24  C   UNL     1      -3.704  16.919  21.741  0.00  0.00    +0.000 C 
ATOM     25  N   UNL     1      -4.496  15.940  22.481  0.00  0.00    +0.000 NA
ATOM     26  C   UNL     1      -5.900  16.035  22.024  0.00  0.00    +0.000 C 
ENDBRANCH  23  25
ENDBRANCH  22  23
BRANCH  22  27
ATOM     27  C   UNL     1      -1.761  13.386  22.694  0.00  0.00    +0.000 C 
BRANCH  27  28
ATOM     28  N   UNL     1      -0.738  14.156  23.466  0.00  0.00    +0.000 NA
ATOM     29  C   UNL     1      -0.045  15.166  22.668  0.00  0.00    +0.000 C 
ATOM     30  C   UNL     1      -1.398  14.851  24.586  0.00  0.00    +0.000 C 
ENDBRANCH  27  28
ENDBRANCH  22  27
ENDBRANCH   1  22
TORSDOF 6
ENDMDL
