MODEL 1
REMARK VINA RESULT:      -8.7      0.000      0.000
REMARK  Name = 
REMARK  8 active torsions:
REMARK  status: ('A' for Active; 'I' for Inactive)
REMARK    1  A    between atoms: C_1  and  C_2
REMARK    2  A    between atoms: C_8  and  C_9
REMARK    3  A    between atoms: C_10  and  C_11
REMARK    4  A    between atoms: C_11  and  O_12
REMARK    5  A    between atoms: O_12  and  C_13
REMARK    6  A    between atoms: C_13  and  C_14
REMARK    7  A    between atoms: C_17  and  C_18
REMARK    8  A    between atoms: N_22  and  C_23
REMARK                            x       y       z     vdW  Elec       q    Type
REMARK                         _______ _______ _______ _____ _____    ______ ____
ROOT
ATOM      1  C   UNL     1       3.370   5.444  17.879  0.00  0.00    +0.000 A 
ATOM      2  C   UNL     1       3.048   6.706  18.356  0.00  0.00    +0.000 A 
ATOM      3  N   UNL     1       2.234   6.518  19.459  0.00  0.00    +0.000 N 
ATOM      4  C   UNL     1       1.645   7.546  20.295  0.00  0.00    +0.000 C 
ATOM      5  C   UNL     1       2.009   5.169  19.670  0.00  0.00    +0.000 A 
ATOM      6  C   UNL     1       1.216   4.512  20.626  0.00  0.00    +0.000 A 
ATOM      7  C   UNL     1       1.167   3.116  20.586  0.00  0.00    +0.000 A 
ATOM      8  C   UNL     1       1.903   2.415  19.643  0.00  0.00    +0.000 A 
ATOM      9  F   UNL     1       1.838   1.076  19.628  0.00  0.00    +0.000 F 
ATOM     10  C   UNL     1       2.696   3.064  18.702  0.00  0.00    +0.000 A 
ATOM     11  C   UNL     1       2.734   4.473  18.701  0.00  0.00    +0.000 A 
ENDROOT
BRANCH   1  19
ATOM     12  C   UNL     1       6.261   5.214  19.144  0.00  0.00    +0.000 C 
ATOM     13  C   UNL     1       6.509   5.017  17.692  0.00  0.00    +0.000 C 
ATOM     14  N   UNL     1       7.696   4.853  17.185  0.00  0.00    +0.000 NA
ATOM     15  O   UNL     1       7.536   4.671  15.767  0.00  0.00    +0.000 OA
ATOM     16  C   UNL     1       6.204   4.727  15.419  0.00  0.00    +0.000 C 
ATOM     17  O   UNL     1       5.741   4.593  14.301  0.00  0.00    +0.000 OA
ATOM     18  C   UNL     1       5.482   4.984  16.668  0.00  0.00    +0.000 C 
ATOM     19  C   UNL     1       4.157   5.160  16.722  0.00  0.00    +0.000 C 
ENDBRANCH   1  19
BRANCH   2  20
ATOM     20  C   UNL     1       3.469   8.070  17.911  0.00  0.00    +0.000 C 
BRANCH  20  21
ATOM     21  O   UNL     1       2.318   8.763  17.438  0.00  0.00    +0.000 OA
BRANCH  21  22
ATOM     22  C   UNL     1       2.224  10.084  17.974  0.00  0.00    +0.000 C 
BRANCH  22  23
ATOM     23  C   UNL     1       0.786  10.459  18.227  0.00  0.00    +0.000 A 
ATOM     24  C   UNL     1      -0.249   9.646  17.742  0.00  0.00    +0.000 A 
ATOM     25  C   UNL     1      -1.581  10.035  17.882  0.00  0.00    +0.000 A 
ATOM     26  C   UNL     1      -1.892  11.238  18.523  0.00  0.00    +0.000 A 
ATOM     27  C   UNL     1      -0.865  12.050  19.017  0.00  0.00    +0.000 A 
ATOM     28  C   UNL     1       0.468  11.663  18.869  0.00  0.00    +0.000 A 
BRANCH  26  29
ATOM     29  C   UNL     1      -3.257  11.647  18.665  0.00  0.00    +0.000 C 
ATOM     30  N   UNL     1      -4.360  11.993  18.784  0.00  0.00    +0.000 NA
ENDBRANCH  26  29
ENDBRANCH  22  23
ENDBRANCH  21  22
ENDBRANCH  20  21
ENDBRANCH   2  20
TORSDOF 6
ENDMDL
MODEL 2
REMARK VINA RESULT:      -8.3      0.996      1.389
REMARK  Name = 
REMARK  8 active torsions:
REMARK  status: ('A' for Active; 'I' for Inactive)
REMARK    1  A    between atoms: C_1  and  C_2
REMARK    2  A    between atoms: C_8  and  C_9
REMARK    3  A    between atoms: C_10  and  C_11
REMARK    4  A    between atoms: C_11  and  O_12
REMARK    5  A    between atoms: O_12  and  C_13
REMARK    6  A    between atoms: C_13  and  C_14
REMARK    7  A    between atoms: C_17  and  C_18
REMARK    8  A    between atoms: N_22  and  C_23
REMARK                            x       y       z     vdW  Elec       q    Type
REMARK                         _______ _______ _______ _____ _____    ______ ____
ROOT
ATOM      1  C   UNL     1       3.340   5.499  17.944  0.00  0.00    +0.000 A 
ATOM      2  C   UNL     1       3.021   6.746  18.460  0.00  0.00    +0.000 A 
ATOM      3  N   UNL     1       2.218   6.524  19.565  0.00  0.00    +0.000 N 
ATOM      4  C   UNL     1       1.635   7.526  20.437  0.00  0.00    +0.000 C 
ATOM      5  C   UNL     1       1.998   5.169  19.740  0.00  0.00    +0.000 A 
ATOM      6  C   UNL     1       1.216   4.483  20.684  0.00  0.00    +0.000 A 
ATOM      7  C   UNL     1       1.169   3.089  20.605  0.00  0.00    +0.000 A 
ATOM      8  C   UNL     1       1.897   2.417  19.635  0.00  0.00    +0.000 A 
ATOM      9  F   UNL     1       1.835   1.079  19.581  0.00  0.00    +0.000 F 
ATOM     10  C   UNL     1       2.680   3.095  18.704  0.00  0.00    +0.000 A 
ATOM     11  C   UNL     1       2.715   4.503  18.744  0.00  0.00    +0.000 A 
ENDROOT
BRANCH   1  19
ATOM     12  C   UNL     1       6.230   5.148  19.182  0.00  0.00    +0.000 C 
ATOM     13  C   UNL     1       6.468   5.012  17.721  0.00  0.00    +0.000 C 
ATOM     14  N   UNL     1       7.649   4.845  17.202  0.00  0.00    +0.000 NA
ATOM     15  O   UNL     1       7.479   4.731  15.778  0.00  0.00    +0.000 OA
ATOM     16  C   UNL     1       6.147   4.831  15.440  0.00  0.00    +0.000 C 
ATOM     17  O   UNL     1       5.677   4.758  14.319  0.00  0.00    +0.000 OA
ATOM     18  C   UNL     1       5.437   5.048  16.702  0.00  0.00    +0.000 C 
ATOM     19  C   UNL     1       4.116   5.251  16.771  0.00  0.00    +0.000 C 
ENDBRANCH   1  19
BRANCH   2  20
ATOM     20  C   UNL     1       3.434   8.123  18.051  0.00  0.00    +0.000 C 
BRANCH  20  21
ATOM     21  O   UNL     1       2.299   8.789  17.506  0.00  0.00    +0.000 OA
BRANCH  21  22
ATOM     22  C   UNL     1       2.389  10.208  17.642  0.00  0.00    +0.000 C 
BRANCH  22  23
ATOM     23  C   UNL     1       1.277  10.735  18.514  0.00  0.00    +0.000 A 
ATOM     24  C   UNL     1       1.527  11.775  19.421  0.00  0.00    +0.000 A 
ATOM     25  C   UNL     1       0.534  12.202  20.302  0.00  0.00    +0.000 A 
ATOM     26  C   UNL     1      -0.727  11.599  20.275  0.00  0.00    +0.000 A 
ATOM     27  C   UNL     1      -0.987  10.567  19.368  0.00  0.00    +0.000 A 
ATOM     28  C   UNL     1       0.011  10.136  18.492  0.00  0.00    +0.000 A 
BRANCH  26  29
ATOM     29  C   UNL     1      -1.750  12.028  21.182  0.00  0.00    +0.000 C 
ATOM     30  N   UNL     1      -2.568  12.381  21.928  0.00  0.00    +0.000 NA
ENDBRANCH  26  29
ENDBRANCH  22  23
ENDBRANCH  21  22
ENDBRANCH  20  21
ENDBRANCH   2  20
TORSDOF 6
ENDMDL
MODEL 3
REMARK VINA RESULT:      -8.0      1.942      2.392
REMARK  Name = 
REMARK  8 active torsions:
REMARK  status: ('A' for Active; 'I' for Inactive)
REMARK    1  A    between atoms: C_1  and  C_2
REMARK    2  A    between atoms: C_8  and  C_9
REMARK    3  A    between atoms: C_10  and  C_11
REMARK    4  A    between atoms: C_11  and  O_12
REMARK    5  A    between atoms: O_12  and  C_13
REMARK    6  A    between atoms: C_13  and  C_14
REMARK    7  A    between atoms: C_17  and  C_18
REMARK    8  A    between atoms: N_22  and  C_23
REMARK                            x       y       z     vdW  Elec       q    Type
REMARK                         _______ _______ _______ _____ _____    ______ ____
ROOT
ATOM      1  C   UNL     1       3.291   5.604  18.058  0.00  0.00    +0.000 A 
ATOM      2  C   UNL     1       2.936   6.806  18.655  0.00  0.00    +0.000 A 
ATOM      3  N   UNL     1       2.139   6.490  19.741  0.00  0.00    +0.000 N 
ATOM      4  C   UNL     1       1.528   7.417  20.674  0.00  0.00    +0.000 C 
ATOM      5  C   UNL     1       1.957   5.121  19.826  0.00  0.00    +0.000 A 
ATOM      6  C   UNL     1       1.194   4.353  20.721  0.00  0.00    +0.000 A 
ATOM      7  C   UNL     1       1.186   2.966  20.551  0.00  0.00    +0.000 A 
ATOM      8  C   UNL     1       1.933   2.379  19.541  0.00  0.00    +0.000 A 
ATOM      9  F   UNL     1       1.909   1.047  19.400  0.00  0.00    +0.000 F 
ATOM     10  C   UNL     1       2.697   3.139  18.659  0.00  0.00    +0.000 A 
ATOM     11  C   UNL     1       2.693   4.541  18.790  0.00  0.00    +0.000 A 
ENDROOT
BRANCH   1  19
ATOM     12  C   UNL     1       6.178   5.183  19.281  0.00  0.00    +0.000 C 
ATOM     13  C   UNL     1       6.424   5.163  17.815  0.00  0.00    +0.000 C 
ATOM     14  N   UNL     1       7.609   5.047  17.291  0.00  0.00    +0.000 NA
ATOM     15  O   UNL     1       7.446   5.043  15.861  0.00  0.00    +0.000 OA
ATOM     16  C   UNL     1       6.115   5.158  15.525  0.00  0.00    +0.000 C 
ATOM     17  O   UNL     1       5.651   5.169  14.399  0.00  0.00    +0.000 OA
ATOM     18  C   UNL     1       5.397   5.270  16.797  0.00  0.00    +0.000 C 
ATOM     19  C   UNL     1       4.074   5.455  16.874  0.00  0.00    +0.000 C 
ENDBRANCH   1  19
BRANCH   2  20
ATOM     20  C   UNL     1       3.311   8.218  18.337  0.00  0.00    +0.000 C 
BRANCH  20  21
ATOM     21  O   UNL     1       2.449   8.690  17.307  0.00  0.00    +0.000 OA
BRANCH  21  22
ATOM     22  C   UNL     1       1.232   9.229  17.824  0.00  0.00    +0.000 C 
BRANCH  22  23
ATOM     23  C   UNL     1       1.463  10.588  18.435  0.00  0.00    +0.000 A 
ATOM     24  C   UNL     1       2.291  11.518  17.789  0.00  0.00    +0.000 A 
ATOM     25  C   UNL     1       2.592  12.738  18.393  0.00  0.00    +0.000 A 
ATOM     26  C   UNL     1       2.054  13.048  19.646  0.00  0.00    +0.000 A 
ATOM     27  C   UNL     1       1.220  12.129  20.292  0.00  0.00    +0.000 A 
ATOM     28  C   UNL     1       0.926  10.905  19.690  0.00  0.00    +0.000 A 
BRANCH  26  29
ATOM     29  C   UNL     1       2.364  14.297  20.274  0.00  0.00    +0.000 C 
ATOM     30  N   UNL     1       2.623  15.315  20.770  0.00  0.00    +0.000 NA
ENDBRANCH  26  29
ENDBRANCH  22  23
ENDBRANCH  21  22
ENDBRANCH  20  21
ENDBRANCH   2  20
TORSDOF 6
ENDMDL
MODEL 4
REMARK VINA RESULT:      -8.0      1.609      2.028
REMARK  Name = 
REMARK  8 active torsions:
REMARK  status: ('A' for Active; 'I' for Inactive)
REMARK    1  A    between atoms: C_1  and  C_2
REMARK    2  A    between atoms: C_8  and  C_9
REMARK    3  A    between atoms: C_10  and  C_11
REMARK    4  A    between atoms: C_11  and  O_12
REMARK    5  A    between atoms: O_12  and  C_13
REMARK    6  A    between atoms: C_13  and  C_14
REMARK    7  A    between atoms: C_17  and  C_18
REMARK    8  A    between atoms: N_22  and  C_23
REMARK                            x       y       z     vdW  Elec       q    Type
REMARK                         _______ _______ _______ _____ _____    ______ ____
ROOT
ATOM      1  C   UNL     1       3.371   5.409  17.982  0.00  0.00    +0.000 A 
ATOM      2  C   UNL     1       3.088   6.646  18.543  0.00  0.00    +0.000 A 
ATOM      3  N   UNL     1       2.275   6.407  19.637  0.00  0.00    +0.000 N 
ATOM      4  C   UNL     1       1.719   7.394  20.543  0.00  0.00    +0.000 C 
ATOM      5  C   UNL     1       2.014   5.054  19.761  0.00  0.00    +0.000 A 
ATOM      6  C   UNL     1       1.207   4.358  20.677  0.00  0.00    +0.000 A 
ATOM      7  C   UNL     1       1.119   2.970  20.547  0.00  0.00    +0.000 A 
ATOM      8  C   UNL     1       1.830   2.312  19.554  0.00  0.00    +0.000 A 
ATOM      9  F   UNL     1       1.728   0.979  19.451  0.00  0.00    +0.000 F 
ATOM     10  C   UNL     1       2.636   3.000  18.652  0.00  0.00    +0.000 A 
ATOM     11  C   UNL     1       2.713   4.404  18.743  0.00  0.00    +0.000 A 
ENDROOT
BRANCH   1  19
ATOM     12  C   UNL     1       6.273   5.087  19.201  0.00  0.00    +0.000 C 
ATOM     13  C   UNL     1       6.504   4.966  17.738  0.00  0.00    +0.000 C 
ATOM     14  N   UNL     1       7.684   4.819  17.211  0.00  0.00    +0.000 NA
ATOM     15  O   UNL     1       7.508   4.714  15.787  0.00  0.00    +0.000 OA
ATOM     16  C   UNL     1       6.173   4.800  15.457  0.00  0.00    +0.000 C 
ATOM     17  O   UNL     1       5.697   4.730  14.338  0.00  0.00    +0.000 OA
ATOM     18  C   UNL     1       5.467   4.997  16.725  0.00  0.00    +0.000 C 
ATOM     19  C   UNL     1       4.144   5.181  16.803  0.00  0.00    +0.000 C 
ENDBRANCH   1  19
BRANCH   2  20
ATOM     20  C   UNL     1       3.544   8.023  18.186  0.00  0.00    +0.000 C 
BRANCH  20  21
ATOM     21  O   UNL     1       2.664   8.545  17.196  0.00  0.00    +0.000 OA
BRANCH  21  22
ATOM     22  C   UNL     1       1.400   8.926  17.742  0.00  0.00    +0.000 C 
BRANCH  22  23
ATOM     23  C   UNL     1       1.426  10.360  18.206  0.00  0.00    +0.000 A 
ATOM     24  C   UNL     1       0.365  10.871  18.969  0.00  0.00    +0.000 A 
ATOM     25  C   UNL     1       0.330  12.221  19.318  0.00  0.00    +0.000 A 
ATOM     26  C   UNL     1       1.365  13.072  18.919  0.00  0.00    +0.000 A 
ATOM     27  C   UNL     1       2.430  12.567  18.166  0.00  0.00    +0.000 A 
ATOM     28  C   UNL     1       2.461  11.218  17.810  0.00  0.00    +0.000 A 
BRANCH  26  29
ATOM     29  C   UNL     1       1.332  14.460  19.269  0.00  0.00    +0.000 C 
ATOM     30  N   UNL     1       1.314  15.590  19.540  0.00  0.00    +0.000 NA
ENDBRANCH  26  29
ENDBRANCH  22  23
ENDBRANCH  21  22
ENDBRANCH  20  21
ENDBRANCH   2  20
TORSDOF 6
ENDMDL
MODEL 5
REMARK VINA RESULT:      -7.8      3.251      7.520
REMARK  Name = 
REMARK  8 active torsions:
REMARK  status: ('A' for Active; 'I' for Inactive)
REMARK    1  A    between atoms: C_1  and  C_2
REMARK    2  A    between atoms: C_8  and  C_9
REMARK    3  A    between atoms: C_10  and  C_11
REMARK    4  A    between atoms: C_11  and  O_12
REMARK    5  A    between atoms: O_12  and  C_13
REMARK    6  A    between atoms: C_13  and  C_14
REMARK    7  A    between atoms: C_17  and  C_18
REMARK    8  A    between atoms: N_22  and  C_23
REMARK                            x       y       z     vdW  Elec       q    Type
REMARK                         _______ _______ _______ _____ _____    ______ ____
ROOT
ATOM      1  C   UNL     1       2.301   6.477  20.052  0.00  0.00    +0.000 A 
ATOM      2  C   UNL     1       2.933   6.908  18.895  0.00  0.00    +0.000 A 
ATOM      3  N   UNL     1       2.460   8.183  18.637  0.00  0.00    +0.000 N 
ATOM      4  C   UNL     1       2.830   9.044  17.530  0.00  0.00    +0.000 C 
ATOM      5  C   UNL     1       1.522   8.552  19.585  0.00  0.00    +0.000 A 
ATOM      6  C   UNL     1       0.746   9.718  19.699  0.00  0.00    +0.000 A 
ATOM      7  C   UNL     1      -0.145   9.808  20.771  0.00  0.00    +0.000 A 
ATOM      8  C   UNL     1      -0.231   8.782  21.699  0.00  0.00    +0.000 A 
ATOM      9  F   UNL     1      -1.094   8.893  22.719  0.00  0.00    +0.000 F 
ATOM     10  C   UNL     1       0.544   7.630  21.592  0.00  0.00    +0.000 A 
ATOM     11  C   UNL     1       1.424   7.503  20.500  0.00  0.00    +0.000 A 
ENDROOT
BRANCH   1  19
ATOM     12  C   UNL     1       1.230   4.571  17.765  0.00  0.00    +0.000 C 
ATOM     13  C   UNL     1       1.554   3.629  18.868  0.00  0.00    +0.000 C 
ATOM     14  N   UNL     1       1.345   2.347  18.797  0.00  0.00    +0.000 NA
ATOM     15  O   UNL     1       1.803   1.769  20.033  0.00  0.00    +0.000 OA
ATOM     16  C   UNL     1       2.304   2.744  20.867  0.00  0.00    +0.000 C 
ATOM     17  O   UNL     1       2.781   2.575  21.975  0.00  0.00    +0.000 OA
ATOM     18  C   UNL     1       2.133   4.006  20.143  0.00  0.00    +0.000 C 
ATOM     19  C   UNL     1       2.456   5.196  20.664  0.00  0.00    +0.000 C 
ENDBRANCH   1  19
BRANCH   2  20
ATOM     20  C   UNL     1       3.973   6.265  18.035  0.00  0.00    +0.000 C 
BRANCH  20  21
ATOM     21  O   UNL     1       5.034   5.816  18.873  0.00  0.00    +0.000 OA
BRANCH  21  22
ATOM     22  C   UNL     1       5.508   4.523  18.499  0.00  0.00    +0.000 C 
BRANCH  22  23
ATOM     23  C   UNL     1       5.802   4.466  17.020  0.00  0.00    +0.000 A 
ATOM     24  C   UNL     1       4.907   3.826  16.150  0.00  0.00    +0.000 A 
ATOM     25  C   UNL     1       5.217   3.679  14.798  0.00  0.00    +0.000 A 
ATOM     26  C   UNL     1       6.421   4.185  14.300  0.00  0.00    +0.000 A 
ATOM     27  C   UNL     1       7.314   4.832  15.160  0.00  0.00    +0.000 A 
ATOM     28  C   UNL     1       7.007   4.971  16.515  0.00  0.00    +0.000 A 
BRANCH  26  29
ATOM     29  C   UNL     1       6.748   4.032  12.914  0.00  0.00    +0.000 C 
ATOM     30  N   UNL     1       7.029   3.908  11.793  0.00  0.00    +0.000 NA
ENDBRANCH  26  29
ENDBRANCH  22  23
ENDBRANCH  21  22
ENDBRANCH  20  21
ENDBRANCH   2  20
TORSDOF 6
ENDMDL
MODEL 6
REMARK VINA RESULT:      -7.6      3.314      5.048
REMARK  Name = 
REMARK  8 active torsions:
REMARK  status: ('A' for Active; 'I' for Inactive)
REMARK    1  A    between atoms: C_1  and  C_2
REMARK    2  A    between atoms: C_8  and  C_9
REMARK    3  A    between atoms: C_10  and  C_11
REMARK    4  A    between atoms: C_11  and  O_12
REMARK    5  A    between atoms: O_12  and  C_13
REMARK    6  A    between atoms: C_13  and  C_14
REMARK    7  A    between atoms: C_17  and  C_18
REMARK    8  A    between atoms: N_22  and  C_23
REMARK                            x       y       z     vdW  Elec       q    Type
REMARK                         _______ _______ _______ _____ _____    ______ ____
ROOT
ATOM      1  C   UNL     1       3.724   5.607  19.205  0.00  0.00    +0.000 A 
ATOM      2  C   UNL     1       3.034   6.754  18.836  0.00  0.00    +0.000 A 
ATOM      3  N   UNL     1       3.814   7.399  17.893  0.00  0.00    +0.000 N 
ATOM      4  C   UNL     1       3.509   8.644  17.213  0.00  0.00    +0.000 C 
ATOM      5  C   UNL     1       4.992   6.705  17.682  0.00  0.00    +0.000 A 
ATOM      6  C   UNL     1       6.095   7.003  16.864  0.00  0.00    +0.000 A 
ATOM      7  C   UNL     1       7.169   6.110  16.865  0.00  0.00    +0.000 A 
ATOM      8  C   UNL     1       7.123   4.958  17.635  0.00  0.00    +0.000 A 
ATOM      9  F   UNL     1       8.167   4.117  17.618  0.00  0.00    +0.000 F 
ATOM     10  C   UNL     1       6.026   4.657  18.439  0.00  0.00    +0.000 A 
ATOM     11  C   UNL     1       4.946   5.561  18.480  0.00  0.00    +0.000 A 
ENDROOT
BRANCH   1  19
ATOM     12  C   UNL     1       1.629   3.893  17.567  0.00  0.00    +0.000 C 
ATOM     13  C   UNL     1       1.578   3.286  18.923  0.00  0.00    +0.000 C 
ATOM     14  N   UNL     1       0.773   2.315  19.243  0.00  0.00    +0.000 NA
ATOM     15  O   UNL     1       1.028   1.982  20.619  0.00  0.00    +0.000 OA
ATOM     16  C   UNL     1       2.023   2.783  21.135  0.00  0.00    +0.000 C 
ATOM     17  O   UNL     1       2.476   2.738  22.264  0.00  0.00    +0.000 OA
ATOM     18  C   UNL     1       2.401   3.689  20.048  0.00  0.00    +0.000 C 
ATOM     19  C   UNL     1       3.310   4.661  20.190  0.00  0.00    +0.000 C 
ENDBRANCH   1  19
BRANCH   2  20
ATOM     20  C   UNL     1       1.694   7.277  19.243  0.00  0.00    +0.000 C 
BRANCH  20  21
ATOM     21  O   UNL     1       1.885   8.268  20.247  0.00  0.00    +0.000 OA
BRANCH  21  22
ATOM     22  C   UNL     1       1.011   8.084  21.362  0.00  0.00    +0.000 C 
BRANCH  22  23
ATOM     23  C   UNL     1       0.248   9.350  21.660  0.00  0.00    +0.000 A 
ATOM     24  C   UNL     1      -0.301   9.557  22.934  0.00  0.00    +0.000 A 
ATOM     25  C   UNL     1      -1.093  10.675  23.192  0.00  0.00    +0.000 A 
ATOM     26  C   UNL     1      -1.334  11.607  22.178  0.00  0.00    +0.000 A 
ATOM     27  C   UNL     1      -0.783  11.412  20.907  0.00  0.00    +0.000 A 
ATOM     28  C   UNL     1       0.004  10.288  20.649  0.00  0.00    +0.000 A 
BRANCH  26  29
ATOM     29  C   UNL     1      -2.152  12.755  22.434  0.00  0.00    +0.000 C 
ATOM     30  N   UNL     1      -2.818  13.680  22.657  0.00  0.00    +0.000 NA
ENDBRANCH  26  29
ENDBRANCH  22  23
ENDBRANCH  21  22
ENDBRANCH  20  21
ENDBRANCH   2  20
TORSDOF 6
ENDMDL
MODEL 7
REMARK VINA RESULT:      -7.4      3.438      5.057
REMARK  Name = 
REMARK  8 active torsions:
REMARK  status: ('A' for Active; 'I' for Inactive)
REMARK    1  A    between atoms: C_1  and  C_2
REMARK    2  A    between atoms: C_8  and  C_9
REMARK    3  A    between atoms: C_10  and  C_11
REMARK    4  A    between atoms: C_11  and  O_12
REMARK    5  A    between atoms: O_12  and  C_13
REMARK    6  A    between atoms: C_13  and  C_14
REMARK    7  A    between atoms: C_17  and  C_18
REMARK    8  A    between atoms: N_22  and  C_23
REMARK                            x       y       z     vdW  Elec       q    Type
REMARK                         _______ _______ _______ _____ _____    ______ ____
ROOT
ATOM      1  C   UNL     1       3.011   6.049  19.254  0.00  0.00    +0.000 A 
ATOM      2  C   UNL     1       2.385   7.284  19.159  0.00  0.00    +0.000 A 
ATOM      3  N   UNL     1       2.928   7.920  18.057  0.00  0.00    +0.000 N 
ATOM      4  C   UNL     1       2.589   9.238  17.554  0.00  0.00    +0.000 C 
ATOM      5  C   UNL     1       3.903   7.130  17.473  0.00  0.00    +0.000 A 
ATOM      6  C   UNL     1       4.748   7.379  16.379  0.00  0.00    +0.000 A 
ATOM      7  C   UNL     1       5.662   6.385  16.020  0.00  0.00    +0.000 A 
ATOM      8  C   UNL     1       5.705   5.187  16.716  0.00  0.00    +0.000 A 
ATOM      9  F   UNL     1       6.591   4.250  16.351  0.00  0.00    +0.000 F 
ATOM     10  C   UNL     1       4.862   4.936  17.795  0.00  0.00    +0.000 A 
ATOM     11  C   UNL     1       3.955   5.937  18.196  0.00  0.00    +0.000 A 
ENDROOT
BRANCH   1  19
ATOM     12  C   UNL     1       1.281   3.906  17.696  0.00  0.00    +0.000 C 
ATOM     13  C   UNL     1       1.355   3.348  19.072  0.00  0.00    +0.000 C 
ATOM     14  N   UNL     1       0.754   2.252  19.432  0.00  0.00    +0.000 NA
ATOM     15  O   UNL     1       1.074   2.021  20.815  0.00  0.00    +0.000 OA
ATOM     16  C   UNL     1       1.897   3.017  21.294  0.00  0.00    +0.000 C 
ATOM     17  O   UNL     1       2.355   3.099  22.419  0.00  0.00    +0.000 OA
ATOM     18  C   UNL     1       2.089   3.941  20.174  0.00  0.00    +0.000 C 
ATOM     19  C   UNL     1       2.792   5.075  20.274  0.00  0.00    +0.000 C 
ENDBRANCH   1  19
BRANCH   2  20
ATOM     20  C   UNL     1       1.293   7.905  19.969  0.00  0.00    +0.000 C 
BRANCH  20  21
ATOM     21  O   UNL     1       1.883   8.798  20.908  0.00  0.00    +0.000 OA
BRANCH  21  22
ATOM     22  C   UNL     1       1.147   8.863  22.131  0.00  0.00    +0.000 C 
BRANCH  22  23
ATOM     23  C   UNL     1       0.243  10.069  22.150  0.00  0.00    +0.000 A 
ATOM     24  C   UNL     1       0.488  11.145  21.284  0.00  0.00    +0.000 A 
ATOM     25  C   UNL     1      -0.280  12.307  21.363  0.00  0.00    +0.000 A 
ATOM     26  C   UNL     1      -1.312  12.398  22.302  0.00  0.00    +0.000 A 
ATOM     27  C   UNL     1      -1.567  11.326  23.163  0.00  0.00    +0.000 A 
ATOM     28  C   UNL     1      -0.793  10.167  23.088  0.00  0.00    +0.000 A 
BRANCH  26  29
ATOM     29  C   UNL     1      -2.100  13.591  22.393  0.00  0.00    +0.000 C 
ATOM     30  N   UNL     1      -2.733  14.563  22.452  0.00  0.00    +0.000 NA
ENDBRANCH  26  29
ENDBRANCH  22  23
ENDBRANCH  21  22
ENDBRANCH  20  21
ENDBRANCH   2  20
TORSDOF 6
ENDMDL
MODEL 8
REMARK VINA RESULT:      -7.4      1.927      2.209
REMARK  Name = 
REMARK  8 active torsions:
REMARK  status: ('A' for Active; 'I' for Inactive)
REMARK    1  A    between atoms: C_1  and  C_2
REMARK    2  A    between atoms: C_8  and  C_9
REMARK    3  A    between atoms: C_10  and  C_11
REMARK    4  A    between atoms: C_11  and  O_12
REMARK    5  A    between atoms: O_12  and  C_13
REMARK    6  A    between atoms: C_13  and  C_14
REMARK    7  A    between atoms: C_17  and  C_18
REMARK    8  A    between atoms: N_22  and  C_23
REMARK                            x       y       z     vdW  Elec       q    Type
REMARK                         _______ _______ _______ _____ _____    ______ ____
ROOT
ATOM      1  C   UNL     1       3.628   4.597  17.937  0.00  0.00    +0.000 A 
ATOM      2  C   UNL     1       2.667   5.510  18.347  0.00  0.00    +0.000 A 
ATOM      3  N   UNL     1       2.279   5.132  19.620  0.00  0.00    +0.000 N 
ATOM      4  C   UNL     1       1.295   5.784  20.462  0.00  0.00    +0.000 C 
ATOM      5  C   UNL     1       2.949   3.986  20.010  0.00  0.00    +0.000 A 
ATOM      6  C   UNL     1       2.844   3.219  21.183  0.00  0.00    +0.000 A 
ATOM      7  C   UNL     1       3.649   2.083  21.296  0.00  0.00    +0.000 A 
ATOM      8  C   UNL     1       4.536   1.749  20.284  0.00  0.00    +0.000 A 
ATOM      9  F   UNL     1       5.298   0.654  20.417  0.00  0.00    +0.000 F 
ATOM     10  C   UNL     1       4.648   2.513  19.125  0.00  0.00    +0.000 A 
ATOM     11  C   UNL     1       3.821   3.644  18.976  0.00  0.00    +0.000 A 
ENDROOT
BRANCH   1  19
ATOM     12  C   UNL     1       6.404   5.944  18.636  0.00  0.00    +0.000 C 
ATOM     13  C   UNL     1       6.504   5.701  17.173  0.00  0.00    +0.000 C 
ATOM     14  N   UNL     1       7.529   6.060  16.457  0.00  0.00    +0.000 NA
ATOM     15  O   UNL     1       7.275   5.639  15.105  0.00  0.00    +0.000 OA
ATOM     16  C   UNL     1       6.055   5.006  15.015  0.00  0.00    +0.000 C 
ATOM     17  O   UNL     1       5.562   4.522  14.012  0.00  0.00    +0.000 OA
ATOM     18  C   UNL     1       5.490   5.048  16.366  0.00  0.00    +0.000 C 
ATOM     19  C   UNL     1       4.275   4.575  16.664  0.00  0.00    +0.000 C 
ENDBRANCH   1  19
BRANCH   2  20
ATOM     20  C   UNL     1       2.113   6.729  17.683  0.00  0.00    +0.000 C 
BRANCH  20  21
ATOM     21  O   UNL     1       2.513   7.870  18.435  0.00  0.00    +0.000 OA
BRANCH  21  22
ATOM     22  C   UNL     1       1.852   9.061  18.005  0.00  0.00    +0.000 C 
BRANCH  22  23
ATOM     23  C   UNL     1       1.097   9.698  19.144  0.00  0.00    +0.000 A 
ATOM     24  C   UNL     1       1.286   9.239  20.456  0.00  0.00    +0.000 A 
ATOM     25  C   UNL     1       0.520   9.752  21.503  0.00  0.00    +0.000 A 
ATOM     26  C   UNL     1      -0.435  10.741  21.249  0.00  0.00    +0.000 A 
ATOM     27  C   UNL     1      -0.623  11.209  19.944  0.00  0.00    +0.000 A 
ATOM     28  C   UNL     1       0.139  10.689  18.896  0.00  0.00    +0.000 A 
BRANCH  26  29
ATOM     29  C   UNL     1      -1.230  11.266  22.318  0.00  0.00    +0.000 C 
ATOM     30  N   UNL     1      -1.883  11.679  23.186  0.00  0.00    +0.000 NA
ENDBRANCH  26  29
ENDBRANCH  22  23
ENDBRANCH  21  22
ENDBRANCH  20  21
ENDBRANCH   2  20
TORSDOF 6
ENDMDL
MODEL 9
REMARK VINA RESULT:      -7.3      2.899      4.600
REMARK  Name = 
REMARK  8 active torsions:
REMARK  status: ('A' for Active; 'I' for Inactive)
REMARK    1  A    between atoms: C_1  and  C_2
REMARK    2  A    between atoms: C_8  and  C_9
REMARK    3  A    between atoms: C_10  and  C_11
REMARK    4  A    between atoms: C_11  and  O_12
REMARK    5  A    between atoms: O_12  and  C_13
REMARK    6  A    between atoms: C_13  and  C_14
REMARK    7  A    between atoms: C_17  and  C_18
REMARK    8  A    between atoms: N_22  and  C_23
REMARK                            x       y       z     vdW  Elec       q    Type
REMARK                         _______ _______ _______ _____ _____    ______ ____
ROOT
ATOM      1  C   UNL     1       3.232   5.922  19.135  0.00  0.00    +0.000 A 
ATOM      2  C   UNL     1       2.782   7.233  19.062  0.00  0.00    +0.000 A 
ATOM      3  N   UNL     1       3.312   7.770  17.902  0.00  0.00    +0.000 N 
ATOM      4  C   UNL     1       3.121   9.117  17.397  0.00  0.00    +0.000 C 
ATOM      5  C   UNL     1       4.110   6.841  17.259  0.00  0.00    +0.000 A 
ATOM      6  C   UNL     1       4.883   6.952  16.090  0.00  0.00    +0.000 A 
ATOM      7  C   UNL     1       5.611   5.832  15.680  0.00  0.00    +0.000 A 
ATOM      8  C   UNL     1       5.544   4.649  16.401  0.00  0.00    +0.000 A 
ATOM      9  F   UNL     1       6.253   3.590  15.986  0.00  0.00    +0.000 F 
ATOM     10  C   UNL     1       4.771   4.536  17.553  0.00  0.00    +0.000 A 
ATOM     11  C   UNL     1       4.055   5.662  18.004  0.00  0.00    +0.000 A 
ENDROOT
BRANCH   1  19
ATOM     12  C   UNL     1       1.214   3.932  17.729  0.00  0.00    +0.000 C 
ATOM     13  C   UNL     1       1.300   3.405  19.116  0.00  0.00    +0.000 C 
ATOM     14  N   UNL     1       0.609   2.386  19.537  0.00  0.00    +0.000 NA
ATOM     15  O   UNL     1       0.973   2.160  20.910  0.00  0.00    +0.000 OA
ATOM     16  C   UNL     1       1.918   3.076  21.319  0.00  0.00    +0.000 C 
ATOM     17  O   UNL     1       2.439   3.139  22.417  0.00  0.00    +0.000 OA
ATOM     18  C   UNL     1       2.146   3.946  20.162  0.00  0.00    +0.000 C 
ATOM     19  C   UNL     1       2.967   5.002  20.194  0.00  0.00    +0.000 C 
ENDBRANCH   1  19
BRANCH   2  20
ATOM     20  C   UNL     1       1.865   8.015  19.946  0.00  0.00    +0.000 C 
BRANCH  20  21
ATOM     21  O   UNL     1       0.943   8.722  19.122  0.00  0.00    +0.000 OA
BRANCH  21  22
ATOM     22  C   UNL     1       0.552   9.970  19.696  0.00  0.00    +0.000 C 
BRANCH  22  23
ATOM     23  C   UNL     1      -0.704  10.491  19.045  0.00  0.00    +0.000 A 
ATOM     24  C   UNL     1      -1.478  11.467  19.689  0.00  0.00    +0.000 A 
ATOM     25  C   UNL     1      -2.693  11.882  19.145  0.00  0.00    +0.000 A 
ATOM     26  C   UNL     1      -3.140  11.333  17.939  0.00  0.00    +0.000 A 
ATOM     27  C   UNL     1      -2.370  10.365  17.286  0.00  0.00    +0.000 A 
ATOM     28  C   UNL     1      -1.158   9.945  17.837  0.00  0.00    +0.000 A 
BRANCH  26  29
ATOM     29  C   UNL     1      -4.390  11.750  17.378  0.00  0.00    +0.000 C 
ATOM     30  N   UNL     1      -5.411  12.087  16.937  0.00  0.00    +0.000 NA
ENDBRANCH  26  29
ENDBRANCH  22  23
ENDBRANCH  21  22
ENDBRANCH  20  21
ENDBRANCH   2  20
TORSDOF 6
ENDMDL
