MODEL 1
REMARK VINA RESULT:      -7.5      0.000      0.000
REMARK  Name = 
REMARK  7 active torsions:
REMARK  status: ('A' for Active; 'I' for Inactive)
REMARK    1  A    between atoms: C_1  and  N_2
REMARK    2  A    between atoms: C_6  and  C_7
REMARK    3  A    between atoms: C_7  and  N_8
REMARK    4  A    between atoms: N_8  and  C_9
REMARK    5  A    between atoms: C_10  and  C_12
REMARK    6  A    between atoms: C_16  and  C_17
REMARK    7  A    between atoms: C_17  and  N_18
REMARK                            x       y       z     vdW  Elec       q    Type
REMARK                         _______ _______ _______ _____ _____    ______ ____
ROOT
ATOM      1  N   UNL     1       5.487   4.802  16.673  0.00  0.00    +0.000 N 
ATOM      2  C   UNL     1       6.780   4.295  16.223  0.00  0.00    +0.000 C 
ATOM      3  C   UNL     1       5.504   5.929  17.509  0.00  0.00    +0.000 C 
ATOM      4  O   UNL     1       6.541   6.562  17.712  0.00  0.00    +0.000 OA
ENDROOT
BRANCH   3   5
ATOM      5  C   UNL     1       4.276   6.458  18.170  0.00  0.00    +0.000 A 
ATOM      6  C   UNL     1       3.787   5.967  19.382  0.00  0.00    +0.000 A 
ATOM      7  C   UNL     1       2.621   6.490  19.944  0.00  0.00    +0.000 A 
ATOM      8  C   UNL     1       1.990   7.578  19.351  0.00  0.00    +0.000 A 
ATOM      9  C   UNL     1       2.526   8.170  18.201  0.00  0.00    +0.000 A 
ATOM     10  C   UNL     1       3.648   7.578  17.595  0.00  0.00    +0.000 A 
BRANCH   9  11
ATOM     11  C   UNL     1       1.943   9.459  17.678  0.00  0.00    +0.000 C 
BRANCH  11  12
ATOM     12  N   UNL     1       0.782   9.908  18.431  0.00  0.00    +0.000 N 
ATOM     13  C   UNL     1      -0.522   9.843  18.024  0.00  0.00    +0.000 A 
ATOM     14  C   UNL     1      -1.250  10.535  18.962  0.00  0.00    +0.000 A 
ATOM     15  C   UNL     1      -0.297  10.978  19.897  0.00  0.00    +0.000 A 
ATOM     16  N   UNL     1       0.946  10.614  19.570  0.00  0.00    +0.000 NA
ENDBRANCH  11  12
ENDBRANCH   9  11
ENDBRANCH   3   5
BRANCH   1  17
ATOM     17  C   UNL     1       4.334   4.009  16.242  0.00  0.00    +0.000 C 
BRANCH  17  23
ATOM     18  C   UNL     1       1.440   2.605  21.627  0.00  0.00    +0.000 C 
ATOM     19  N   UNL     1       0.796   2.611  20.335  0.00  0.00    +0.000 N 
ATOM     20  C   UNL     1       1.682   2.796  19.278  0.00  0.00    +0.000 A 
ATOM     21  N   UNL     1       2.953   2.383  19.376  0.00  0.00    +0.000 NA
ATOM     22  C   UNL     1       3.795   2.728  18.381  0.00  0.00    +0.000 A 
ATOM     23  C   UNL     1       3.415   3.458  17.282  0.00  0.00    +0.000 A 
ATOM     24  C   UNL     1       2.074   3.789  17.262  0.00  0.00    +0.000 A 
ATOM     25  N   UNL     1       1.200   3.483  18.237  0.00  0.00    +0.000 NA
ATOM     26  H   UNL     1       0.073   3.308  20.209  0.00  0.00    +0.000 HD
ENDBRANCH  17  23
ENDBRANCH   1  17
TORSDOF 5
ENDMDL
MODEL 2
REMARK VINA RESULT:      -7.5      2.306      4.593
REMARK  Name = 
REMARK  7 active torsions:
REMARK  status: ('A' for Active; 'I' for Inactive)
REMARK    1  A    between atoms: C_1  and  N_2
REMARK    2  A    between atoms: C_6  and  C_7
REMARK    3  A    between atoms: C_7  and  N_8
REMARK    4  A    between atoms: N_8  and  C_9
REMARK    5  A    between atoms: C_10  and  C_12
REMARK    6  A    between atoms: C_16  and  C_17
REMARK    7  A    between atoms: C_17  and  N_18
REMARK                            x       y       z     vdW  Elec       q    Type
REMARK                         _______ _______ _______ _____ _____    ______ ____
ROOT
ATOM      1  N   UNL     1       4.085   4.433  19.548  0.00  0.00    +0.000 N 
ATOM      2  C   UNL     1       4.281   2.989  19.637  0.00  0.00    +0.000 C 
ATOM      3  C   UNL     1       2.762   4.897  19.594  0.00  0.00    +0.000 C 
ATOM      4  O   UNL     1       1.827   4.143  19.870  0.00  0.00    +0.000 OA
ENDROOT
BRANCH   3   5
ATOM      5  C   UNL     1       2.402   6.325  19.357  0.00  0.00    +0.000 A 
ATOM      6  C   UNL     1       2.472   6.934  18.102  0.00  0.00    +0.000 A 
ATOM      7  C   UNL     1       2.139   8.280  17.944  0.00  0.00    +0.000 A 
ATOM      8  C   UNL     1       1.635   9.003  19.020  0.00  0.00    +0.000 A 
ATOM      9  C   UNL     1       1.439   8.387  20.261  0.00  0.00    +0.000 A 
ATOM     10  C   UNL     1       1.862   7.057  20.430  0.00  0.00    +0.000 A 
BRANCH   9  11
ATOM     11  C   UNL     1       0.720   9.126  21.362  0.00  0.00    +0.000 C 
BRANCH  11  12
ATOM     12  N   UNL     1       0.353  10.484  20.993  0.00  0.00    +0.000 N 
ATOM     13  C   UNL     1      -0.719  10.853  20.228  0.00  0.00    +0.000 A 
ATOM     14  C   UNL     1      -0.574  12.200  19.992  0.00  0.00    +0.000 A 
ATOM     15  C   UNL     1       0.615  12.552  20.657  0.00  0.00    +0.000 A 
ATOM     16  N   UNL     1       1.194  11.508  21.254  0.00  0.00    +0.000 NA
ENDBRANCH  11  12
ENDBRANCH   9  11
ENDBRANCH   3   5
BRANCH   1  17
ATOM     17  C   UNL     1       5.312   5.207  19.347  0.00  0.00    +0.000 C 
BRANCH  17  23
ATOM     18  C   UNL     1       6.780   4.630  13.275  0.00  0.00    +0.000 C 
ATOM     19  N   UNL     1       7.621   5.272  14.258  0.00  0.00    +0.000 N 
ATOM     20  C   UNL     1       7.151   5.131  15.561  0.00  0.00    +0.000 A 
ATOM     21  N   UNL     1       6.434   4.057  15.913  0.00  0.00    +0.000 NA
ATOM     22  C   UNL     1       5.883   4.055  17.143  0.00  0.00    +0.000 A 
ATOM     23  C   UNL     1       6.032   5.079  18.045  0.00  0.00    +0.000 A 
ATOM     24  C   UNL     1       6.830   6.114  17.594  0.00  0.00    +0.000 A 
ATOM     25  N   UNL     1       7.386   6.169  16.371  0.00  0.00    +0.000 NA
ATOM     26  H   UNL     1       7.767   6.265  14.128  0.00  0.00    +0.000 HD
ENDBRANCH  17  23
ENDBRANCH   1  17
TORSDOF 5
ENDMDL
MODEL 3
REMARK VINA RESULT:      -7.3      3.073      8.256
REMARK  Name = 
REMARK  7 active torsions:
REMARK  status: ('A' for Active; 'I' for Inactive)
REMARK    1  A    between atoms: C_1  and  N_2
REMARK    2  A    between atoms: C_6  and  C_7
REMARK    3  A    between atoms: C_7  and  N_8
REMARK    4  A    between atoms: N_8  and  C_9
REMARK    5  A    between atoms: C_10  and  C_12
REMARK    6  A    between atoms: C_16  and  C_17
REMARK    7  A    between atoms: C_17  and  N_18
REMARK                            x       y       z     vdW  Elec       q    Type
REMARK                         _______ _______ _______ _____ _____    ______ ____
ROOT
ATOM      1  N   UNL     1      -0.211  10.677  20.714  0.00  0.00    +0.000 N 
ATOM      2  C   UNL     1      -0.711  11.441  21.853  0.00  0.00    +0.000 C 
ATOM      3  C   UNL     1       0.586   9.559  21.001  0.00  0.00    +0.000 C 
ATOM      4  O   UNL     1       0.713   9.141  22.154  0.00  0.00    +0.000 OA
ENDROOT
BRANCH   3   5
ATOM      5  C   UNL     1       1.293   8.781  19.943  0.00  0.00    +0.000 A 
ATOM      6  C   UNL     1       1.546   9.283  18.665  0.00  0.00    +0.000 A 
ATOM      7  C   UNL     1       2.197   8.502  17.709  0.00  0.00    +0.000 A 
ATOM      8  C   UNL     1       2.690   7.248  18.054  0.00  0.00    +0.000 A 
ATOM      9  C   UNL     1       2.559   6.768  19.362  0.00  0.00    +0.000 A 
ATOM     10  C   UNL     1       1.823   7.525  20.290  0.00  0.00    +0.000 A 
BRANCH   9  11
ATOM     11  C   UNL     1       3.260   5.495  19.769  0.00  0.00    +0.000 C 
BRANCH  11  12
ATOM     12  N   UNL     1       2.341   4.419  20.104  0.00  0.00    +0.000 N 
ATOM     13  C   UNL     1       2.129   3.892  21.348  0.00  0.00    +0.000 A 
ATOM     14  C   UNL     1       1.324   2.793  21.165  0.00  0.00    +0.000 A 
ATOM     15  C   UNL     1       1.103   2.739  19.777  0.00  0.00    +0.000 A 
ATOM     16  N   UNL     1       1.734   3.717  19.122  0.00  0.00    +0.000 NA
ENDBRANCH  11  12
ENDBRANCH   9  11
ENDBRANCH   3   5
BRANCH   1  17
ATOM     17  C   UNL     1      -0.555  11.233  19.404  0.00  0.00    +0.000 C 
BRANCH  17  23
ATOM     18  C   UNL     1      -6.221  12.682  17.133  0.00  0.00    +0.000 C 
ATOM     19  N   UNL     1      -5.666  11.349  17.147  0.00  0.00    +0.000 N 
ATOM     20  C   UNL     1      -4.466  11.258  17.846  0.00  0.00    +0.000 A 
ATOM     21  N   UNL     1      -4.210  12.086  18.868  0.00  0.00    +0.000 NA
ATOM     22  C   UNL     1      -2.973  12.047  19.402  0.00  0.00    +0.000 A 
ATOM     23  C   UNL     1      -1.983  11.202  18.966  0.00  0.00    +0.000 A 
ATOM     24  C   UNL     1      -2.371  10.361  17.941  0.00  0.00    +0.000 A 
ATOM     25  N   UNL     1      -3.586  10.375  17.365  0.00  0.00    +0.000 NA
ATOM     26  H   UNL     1      -5.483  10.941  16.239  0.00  0.00    +0.000 HD
ENDBRANCH  17  23
ENDBRANCH   1  17
TORSDOF 5
ENDMDL
MODEL 4
REMARK VINA RESULT:      -7.3      2.215      4.420
REMARK  Name = 
REMARK  7 active torsions:
REMARK  status: ('A' for Active; 'I' for Inactive)
REMARK    1  A    between atoms: C_1  and  N_2
REMARK    2  A    between atoms: C_6  and  C_7
REMARK    3  A    between atoms: C_7  and  N_8
REMARK    4  A    between atoms: N_8  and  C_9
REMARK    5  A    between atoms: C_10  and  C_12
REMARK    6  A    between atoms: C_16  and  C_17
REMARK    7  A    between atoms: C_17  and  N_18
REMARK                            x       y       z     vdW  Elec       q    Type
REMARK                         _______ _______ _______ _____ _____    ______ ____
ROOT
ATOM      1  N   UNL     1       3.457   3.316  18.240  0.00  0.00    +0.000 N 
ATOM      2  C   UNL     1       3.447   1.860  18.357  0.00  0.00    +0.000 C 
ATOM      3  C   UNL     1       2.667   4.031  19.153  0.00  0.00    +0.000 C 
ATOM      4  O   UNL     1       2.132   3.473  20.112  0.00  0.00    +0.000 OA
ENDROOT
BRANCH   3   5
ATOM      5  C   UNL     1       2.457   5.504  19.052  0.00  0.00    +0.000 A 
ATOM      6  C   UNL     1       2.461   6.197  17.841  0.00  0.00    +0.000 A 
ATOM      7  C   UNL     1       2.276   7.580  17.810  0.00  0.00    +0.000 A 
ATOM      8  C   UNL     1       1.984   8.269  18.983  0.00  0.00    +0.000 A 
ATOM      9  C   UNL     1       1.853   7.583  20.196  0.00  0.00    +0.000 A 
ATOM     10  C   UNL     1       2.131   6.206  20.227  0.00  0.00    +0.000 A 
BRANCH   9  11
ATOM     11  C   UNL     1       1.354   8.310  21.420  0.00  0.00    +0.000 C 
BRANCH  11  12
ATOM     12  N   UNL     1       0.694   9.568  21.108  0.00  0.00    +0.000 N 
ATOM     13  C   UNL     1      -0.387   9.734  20.287  0.00  0.00    +0.000 A 
ATOM     14  C   UNL     1      -0.555  11.091  20.146  0.00  0.00    +0.000 A 
ATOM     15  C   UNL     1       0.472  11.660  20.921  0.00  0.00    +0.000 A 
ATOM     16  N   UNL     1       1.248  10.737  21.496  0.00  0.00    +0.000 NA
ENDBRANCH  11  12
ENDBRANCH   9  11
ENDBRANCH   3   5
BRANCH   1  17
ATOM     17  C   UNL     1       4.246   3.834  17.120  0.00  0.00    +0.000 C 
BRANCH  17  23
ATOM     18  C   UNL     1       8.235   8.587  18.046  0.00  0.00    +0.000 C 
ATOM     19  N   UNL     1       8.339   7.299  18.692  0.00  0.00    +0.000 N 
ATOM     20  C   UNL     1       7.433   6.363  18.203  0.00  0.00    +0.000 A 
ATOM     21  N   UNL     1       7.005   6.428  16.935  0.00  0.00    +0.000 NA
ATOM     22  C   UNL     1       6.017   5.586  16.570  0.00  0.00    +0.000 A 
ATOM     23  C   UNL     1       5.448   4.668  17.419  0.00  0.00    +0.000 A 
ATOM     24  C   UNL     1       5.998   4.656  18.686  0.00  0.00    +0.000 A 
ATOM     25  N   UNL     1       6.971   5.487  19.101  0.00  0.00    +0.000 NA
ATOM     26  H   UNL     1       8.212   7.301  19.695  0.00  0.00    +0.000 HD
ENDBRANCH  17  23
ENDBRANCH   1  17
TORSDOF 5
ENDMDL
MODEL 5
REMARK VINA RESULT:      -7.2      0.840      1.008
REMARK  Name = 
REMARK  7 active torsions:
REMARK  status: ('A' for Active; 'I' for Inactive)
REMARK    1  A    between atoms: C_1  and  N_2
REMARK    2  A    between atoms: C_6  and  C_7
REMARK    3  A    between atoms: C_7  and  N_8
REMARK    4  A    between atoms: N_8  and  C_9
REMARK    5  A    between atoms: C_10  and  C_12
REMARK    6  A    between atoms: C_16  and  C_17
REMARK    7  A    between atoms: C_17  and  N_18
REMARK                            x       y       z     vdW  Elec       q    Type
REMARK                         _______ _______ _______ _____ _____    ______ ____
ROOT
ATOM      1  N   UNL     1       5.552   5.039  16.666  0.00  0.00    +0.000 N 
ATOM      2  C   UNL     1       6.886   4.672  16.199  0.00  0.00    +0.000 C 
ATOM      3  C   UNL     1       5.459   6.159  17.506  0.00  0.00    +0.000 C 
ATOM      4  O   UNL     1       6.427   6.897  17.699  0.00  0.00    +0.000 OA
ENDROOT
BRANCH   3   5
ATOM      5  C   UNL     1       4.191   6.554  18.183  0.00  0.00    +0.000 A 
ATOM      6  C   UNL     1       3.816   6.082  19.443  0.00  0.00    +0.000 A 
ATOM      7  C   UNL     1       2.607   6.473  20.020  0.00  0.00    +0.000 A 
ATOM      8  C   UNL     1       1.808   7.419  19.386  0.00  0.00    +0.000 A 
ATOM      9  C   UNL     1       2.216   8.002  18.180  0.00  0.00    +0.000 A 
ATOM     10  C   UNL     1       3.391   7.533  17.567  0.00  0.00    +0.000 A 
BRANCH   9  11
ATOM     11  C   UNL     1       1.438   9.157  17.603  0.00  0.00    +0.000 C 
BRANCH  11  12
ATOM     12  N   UNL     1       1.470  10.344  18.442  0.00  0.00    +0.000 N 
ATOM     13  C   UNL     1       0.586  10.657  19.438  0.00  0.00    +0.000 A 
ATOM     14  C   UNL     1       0.893  11.937  19.834  0.00  0.00    +0.000 A 
ATOM     15  C   UNL     1       1.977  12.311  19.019  0.00  0.00    +0.000 A 
ATOM     16  N   UNL     1       2.323  11.352  18.156  0.00  0.00    +0.000 NA
ENDBRANCH  11  12
ENDBRANCH   9  11
ENDBRANCH   3   5
BRANCH   1  17
ATOM     17  C   UNL     1       4.484   4.129  16.245  0.00  0.00    +0.000 C 
BRANCH  17  23
ATOM     18  C   UNL     1       1.599   2.692  21.627  0.00  0.00    +0.000 C 
ATOM     19  N   UNL     1       0.979   2.614  20.325  0.00  0.00    +0.000 N 
ATOM     20  C   UNL     1       1.869   2.828  19.277  0.00  0.00    +0.000 A 
ATOM     21  N   UNL     1       3.164   2.508  19.408  0.00  0.00    +0.000 NA
ATOM     22  C   UNL     1       3.997   2.880  18.416  0.00  0.00    +0.000 A 
ATOM     23  C   UNL     1       3.587   3.548  17.288  0.00  0.00    +0.000 A 
ATOM     24  C   UNL     1       2.227   3.784  17.237  0.00  0.00    +0.000 A 
ATOM     25  N   UNL     1       1.359   3.448  18.208  0.00  0.00    +0.000 NA
ATOM     26  H   UNL     1       0.213   3.254  20.166  0.00  0.00    +0.000 HD
ENDBRANCH  17  23
ENDBRANCH   1  17
TORSDOF 5
ENDMDL
MODEL 6
REMARK VINA RESULT:      -7.2      2.218      4.375
REMARK  Name = 
REMARK  7 active torsions:
REMARK  status: ('A' for Active; 'I' for Inactive)
REMARK    1  A    between atoms: C_1  and  N_2
REMARK    2  A    between atoms: C_6  and  C_7
REMARK    3  A    between atoms: C_7  and  N_8
REMARK    4  A    between atoms: N_8  and  C_9
REMARK    5  A    between atoms: C_10  and  C_12
REMARK    6  A    between atoms: C_16  and  C_17
REMARK    7  A    between atoms: C_17  and  N_18
REMARK                            x       y       z     vdW  Elec       q    Type
REMARK                         _______ _______ _______ _____ _____    ______ ____
ROOT
ATOM      1  N   UNL     1       3.813   4.870  19.729  0.00  0.00    +0.000 N 
ATOM      2  C   UNL     1       3.877   3.477  20.165  0.00  0.00    +0.000 C 
ATOM      3  C   UNL     1       2.593   5.537  19.914  0.00  0.00    +0.000 C 
ATOM      4  O   UNL     1       1.678   5.031  20.568  0.00  0.00    +0.000 OA
ENDROOT
BRANCH   3   5
ATOM      5  C   UNL     1       2.333   6.903  19.376  0.00  0.00    +0.000 A 
ATOM      6  C   UNL     1       2.591   7.267  18.053  0.00  0.00    +0.000 A 
ATOM      7  C   UNL     1       2.345   8.567  17.611  0.00  0.00    +0.000 A 
ATOM      8  C   UNL     1       1.743   9.489  18.461  0.00  0.00    +0.000 A 
ATOM      9  C   UNL     1       1.361   9.118  19.756  0.00  0.00    +0.000 A 
ATOM     10  C   UNL     1       1.697   7.834  20.218  0.00  0.00    +0.000 A 
BRANCH   9  11
ATOM     11  C   UNL     1       0.544  10.065  20.598  0.00  0.00    +0.000 C 
BRANCH  11  12
ATOM     12  N   UNL     1      -0.258  10.986  19.808  0.00  0.00    +0.000 N 
ATOM     13  C   UNL     1      -0.097  12.343  19.736  0.00  0.00    +0.000 A 
ATOM     14  C   UNL     1      -1.173  12.817  19.023  0.00  0.00    +0.000 A 
ATOM     15  C   UNL     1      -1.925  11.671  18.708  0.00  0.00    +0.000 A 
ATOM     16  N   UNL     1      -1.382  10.553  19.198  0.00  0.00    +0.000 NA
ENDBRANCH  11  12
ENDBRANCH   9  11
ENDBRANCH   3   5
BRANCH   1  17
ATOM     17  C   UNL     1       5.029   5.365  19.082  0.00  0.00    +0.000 C 
BRANCH  17  23
ATOM     18  C   UNL     1       5.640   3.874  13.019  0.00  0.00    +0.000 C 
ATOM     19  N   UNL     1       6.694   3.748  13.998  0.00  0.00    +0.000 N 
ATOM     20  C   UNL     1       6.268   3.988  15.301  0.00  0.00    +0.000 A 
ATOM     21  N   UNL     1       5.004   3.731  15.661  0.00  0.00    +0.000 NA
ATOM     22  C   UNL     1       4.616   4.126  16.890  0.00  0.00    +0.000 A 
ATOM     23  C   UNL     1       5.446   4.758  17.783  0.00  0.00    +0.000 A 
ATOM     24  C   UNL     1       6.739   4.930  17.325  0.00  0.00    +0.000 A 
ATOM     25  N   UNL     1       7.167   4.568  16.103  0.00  0.00    +0.000 NA
ATOM     26  H   UNL     1       7.496   4.351  13.860  0.00  0.00    +0.000 HD
ENDBRANCH  17  23
ENDBRANCH   1  17
TORSDOF 5
ENDMDL
MODEL 7
REMARK VINA RESULT:      -7.2      2.408      4.546
REMARK  Name = 
REMARK  7 active torsions:
REMARK  status: ('A' for Active; 'I' for Inactive)
REMARK    1  A    between atoms: C_1  and  N_2
REMARK    2  A    between atoms: C_6  and  C_7
REMARK    3  A    between atoms: C_7  and  N_8
REMARK    4  A    between atoms: N_8  and  C_9
REMARK    5  A    between atoms: C_10  and  C_12
REMARK    6  A    between atoms: C_16  and  C_17
REMARK    7  A    between atoms: C_17  and  N_18
REMARK                            x       y       z     vdW  Elec       q    Type
REMARK                         _______ _______ _______ _____ _____    ______ ____
ROOT
ATOM      1  N   UNL     1       4.375   5.187  19.081  0.00  0.00    +0.000 N 
ATOM      2  C   UNL     1       4.805   3.823  19.375  0.00  0.00    +0.000 C 
ATOM      3  C   UNL     1       3.188   5.622  19.687  0.00  0.00    +0.000 C 
ATOM      4  O   UNL     1       2.630   4.953  20.559  0.00  0.00    +0.000 OA
ENDROOT
BRANCH   3   5
ATOM      5  C   UNL     1       2.547   6.928  19.356  0.00  0.00    +0.000 A 
ATOM      6  C   UNL     1       2.511   7.456  18.064  0.00  0.00    +0.000 A 
ATOM      7  C   UNL     1       1.912   8.693  17.816  0.00  0.00    +0.000 A 
ATOM      8  C   UNL     1       1.255   9.365  18.842  0.00  0.00    +0.000 A 
ATOM      9  C   UNL     1       1.170   8.802  20.121  0.00  0.00    +0.000 A 
ATOM     10  C   UNL     1       1.853   7.601  20.378  0.00  0.00    +0.000 A 
BRANCH   9  11
ATOM     11  C   UNL     1       0.298   9.447  21.169  0.00  0.00    +0.000 C 
BRANCH  11  12
ATOM     12  N   UNL     1       0.163  10.885  20.994  0.00  0.00    +0.000 N 
ATOM     13  C   UNL     1      -0.875  11.532  20.384  0.00  0.00    +0.000 A 
ATOM     14  C   UNL     1      -0.500  12.851  20.289  0.00  0.00    +0.000 A 
ATOM     15  C   UNL     1       0.780  12.901  20.871  0.00  0.00    +0.000 A 
ATOM     16  N   UNL     1       1.198  11.702  21.287  0.00  0.00    +0.000 NA
ENDBRANCH  11  12
ENDBRANCH   9  11
ENDBRANCH   3   5
BRANCH   1  17
ATOM     17  C   UNL     1       5.219   5.900  18.119  0.00  0.00    +0.000 C 
BRANCH  17  23
ATOM     18  C   UNL     1       5.761   3.478  12.358  0.00  0.00    +0.000 C 
ATOM     19  N   UNL     1       6.879   3.794  13.217  0.00  0.00    +0.000 N 
ATOM     20  C   UNL     1       6.497   4.167  14.502  0.00  0.00    +0.000 A 
ATOM     21  N   UNL     1       5.369   3.690  15.043  0.00  0.00    +0.000 NA
ATOM     22  C   UNL     1       4.981   4.207  16.226  0.00  0.00    +0.000 A 
ATOM     23  C   UNL     1       5.684   5.175  16.900  0.00  0.00    +0.000 A 
ATOM     24  C   UNL     1       6.855   5.559  16.274  0.00  0.00    +0.000 A 
ATOM     25  N   UNL     1       7.274   5.085  15.088  0.00  0.00    +0.000 NA
ATOM     26  H   UNL     1       7.488   4.531  12.889  0.00  0.00    +0.000 HD
ENDBRANCH  17  23
ENDBRANCH   1  17
TORSDOF 5
ENDMDL
MODEL 8
REMARK VINA RESULT:      -7.2      2.402      6.347
REMARK  Name = 
REMARK  7 active torsions:
REMARK  status: ('A' for Active; 'I' for Inactive)
REMARK    1  A    between atoms: C_1  and  N_2
REMARK    2  A    between atoms: C_6  and  C_7
REMARK    3  A    between atoms: C_7  and  N_8
REMARK    4  A    between atoms: N_8  and  C_9
REMARK    5  A    between atoms: C_10  and  C_12
REMARK    6  A    between atoms: C_16  and  C_17
REMARK    7  A    between atoms: C_17  and  N_18
REMARK                            x       y       z     vdW  Elec       q    Type
REMARK                         _______ _______ _______ _____ _____    ______ ____
ROOT
ATOM      1  N   UNL     1       2.651   4.271  19.506  0.00  0.00    +0.000 N 
ATOM      2  C   UNL     1       1.496   3.710  20.202  0.00  0.00    +0.000 C 
ATOM      3  C   UNL     1       3.221   3.489  18.491  0.00  0.00    +0.000 C 
ATOM      4  O   UNL     1       2.672   2.461  18.088  0.00  0.00    +0.000 OA
ENDROOT
BRANCH   3   5
ATOM      5  C   UNL     1       4.492   3.862  17.806  0.00  0.00    +0.000 A 
ATOM      6  C   UNL     1       4.675   3.762  16.425  0.00  0.00    +0.000 A 
ATOM      7  C   UNL     1       5.895   4.110  15.842  0.00  0.00    +0.000 A 
ATOM      8  C   UNL     1       6.909   4.655  16.622  0.00  0.00    +0.000 A 
ATOM      9  C   UNL     1       6.711   4.881  17.989  0.00  0.00    +0.000 A 
ATOM     10  C   UNL     1       5.512   4.444  18.580  0.00  0.00    +0.000 A 
BRANCH   9  11
ATOM     11  C   UNL     1       7.743   5.643  18.783  0.00  0.00    +0.000 C 
BRANCH  11  12
ATOM     12  N   UNL     1       7.902   7.019  18.339  0.00  0.00    +0.000 N 
ATOM     13  C   UNL     1       8.688   7.972  18.925  0.00  0.00    +0.000 A 
ATOM     14  C   UNL     1       8.396   9.154  18.287  0.00  0.00    +0.000 A 
ATOM     15  C   UNL     1       7.423   8.810  17.330  0.00  0.00    +0.000 A 
ATOM     16  N   UNL     1       7.105   7.514  17.368  0.00  0.00    +0.000 NA
ENDBRANCH  11  12
ENDBRANCH   9  11
ENDBRANCH   3   5
BRANCH   1  17
ATOM     17  C   UNL     1       3.108   5.564  20.021  0.00  0.00    +0.000 C 
BRANCH  17  23
ATOM     18  C   UNL     1       1.523  11.517  18.837  0.00  0.00    +0.000 C 
ATOM     19  N   UNL     1       1.546  10.468  17.844  0.00  0.00    +0.000 N 
ATOM     20  C   UNL     1       1.773   9.205  18.382  0.00  0.00    +0.000 A 
ATOM     21  N   UNL     1       1.383   8.918  19.631  0.00  0.00    +0.000 NA
ATOM     22  C   UNL     1       1.767   7.731  20.143  0.00  0.00    +0.000 A 
ATOM     23  C   UNL     1       2.515   6.810  19.451  0.00  0.00    +0.000 A 
ATOM     24  C   UNL     1       2.821   7.191  18.158  0.00  0.00    +0.000 A 
ATOM     25  N   UNL     1       2.475   8.369  17.610  0.00  0.00    +0.000 NA
ATOM     26  H   UNL     1       2.232  10.577  17.108  0.00  0.00    +0.000 HD
ENDBRANCH  17  23
ENDBRANCH   1  17
TORSDOF 5
ENDMDL
MODEL 9
REMARK VINA RESULT:      -7.2      1.584      2.198
REMARK  Name = 
REMARK  7 active torsions:
REMARK  status: ('A' for Active; 'I' for Inactive)
REMARK    1  A    between atoms: C_1  and  N_2
REMARK    2  A    between atoms: C_6  and  C_7
REMARK    3  A    between atoms: C_7  and  N_8
REMARK    4  A    between atoms: N_8  and  C_9
REMARK    5  A    between atoms: C_10  and  C_12
REMARK    6  A    between atoms: C_16  and  C_17
REMARK    7  A    between atoms: C_17  and  N_18
REMARK                            x       y       z     vdW  Elec       q    Type
REMARK                         _______ _______ _______ _____ _____    ______ ____
ROOT
ATOM      1  N   UNL     1       5.582   4.963  16.998  0.00  0.00    +0.000 N 
ATOM      2  C   UNL     1       6.889   4.323  16.882  0.00  0.00    +0.000 C 
ATOM      3  C   UNL     1       5.546   6.228  17.605  0.00  0.00    +0.000 C 
ATOM      4  O   UNL     1       6.582   6.842  17.868  0.00  0.00    +0.000 OA
ENDROOT
BRANCH   3   5
ATOM      5  C   UNL     1       4.271   6.927  17.933  0.00  0.00    +0.000 A 
ATOM      6  C   UNL     1       3.610   7.772  17.040  0.00  0.00    +0.000 A 
ATOM      7  C   UNL     1       2.427   8.414  17.409  0.00  0.00    +0.000 A 
ATOM      8  C   UNL     1       1.839   8.136  18.639  0.00  0.00    +0.000 A 
ATOM      9  C   UNL     1       2.414   7.200  19.506  0.00  0.00    +0.000 A 
ATOM     10  C   UNL     1       3.652   6.629  19.161  0.00  0.00    +0.000 A 
BRANCH   9  11
ATOM     11  C   UNL     1       1.672   6.770  20.747  0.00  0.00    +0.000 C 
BRANCH  11  12
ATOM     12  N   UNL     1       0.984   7.866  21.410  0.00  0.00    +0.000 N 
ATOM     13  C   UNL     1       1.567   8.868  22.136  0.00  0.00    +0.000 A 
ATOM     14  C   UNL     1       0.536   9.567  22.718  0.00  0.00    +0.000 A 
ATOM     15  C   UNL     1      -0.630   8.912  22.282  0.00  0.00    +0.000 A 
ATOM     16  N   UNL     1      -0.364   7.864  21.498  0.00  0.00    +0.000 NA
ENDBRANCH  11  12
ENDBRANCH   9  11
ENDBRANCH   3   5
BRANCH   1  17
ATOM     17  C   UNL     1       4.459   4.152  16.523  0.00  0.00    +0.000 C 
BRANCH  17  23
ATOM     18  C   UNL     1       1.356   2.747  21.791  0.00  0.00    +0.000 C 
ATOM     19  N   UNL     1       0.760   2.766  20.476  0.00  0.00    +0.000 N 
ATOM     20  C   UNL     1       1.686   2.949  19.454  0.00  0.00    +0.000 A 
ATOM     21  N   UNL     1       2.949   2.524  19.595  0.00  0.00    +0.000 NA
ATOM     22  C   UNL     1       3.830   2.865  18.634  0.00  0.00    +0.000 A 
ATOM     23  C   UNL     1       3.497   3.605  17.526  0.00  0.00    +0.000 A 
ATOM     24  C   UNL     1       2.161   3.949  17.459  0.00  0.00    +0.000 A 
ATOM     25  N   UNL     1       1.249   3.646  18.400  0.00  0.00    +0.000 NA
ATOM     26  H   UNL     1       0.049   3.471  20.328  0.00  0.00    +0.000 HD
ENDBRANCH  17  23
ENDBRANCH   1  17
TORSDOF 5
ENDMDL
