MODEL 1
REMARK VINA RESULT:      -7.6      0.000      0.000
REMARK  Name = 
REMARK  9 active torsions:
REMARK  status: ('A' for Active; 'I' for Inactive)
REMARK    1  A    between atoms: C_1  and  C_2
REMARK    2  A    between atoms: C_2  and  C_3
REMARK    3  A    between atoms: C_2  and  O_4
REMARK    4  A    between atoms: C_2  and  C_22
REMARK    5  A    between atoms: O_4  and  C_5
REMARK    6  A    between atoms: C_8  and  N_9
REMARK    7  A    between atoms: C_10  and  C_12
REMARK    8  A    between atoms: C_12  and  C_13
REMARK    9  A    between atoms: C_22  and  O_24
REMARK                            x       y       z     vdW  Elec       q    Type
REMARK                         _______ _______ _______ _____ _____    ______ ____
ROOT
ATOM      1  C   UNL     1       9.521  12.480  18.552  0.00  0.00    +0.000 A 
ATOM      2  C   UNL     1       8.587  11.884  17.705  0.00  0.00    +0.000 A 
ATOM      3  C   UNL     1       8.275  10.526  17.819  0.00  0.00    +0.000 A 
ATOM      4  C   UNL     1       8.897   9.734  18.783  0.00  0.00    +0.000 A 
ATOM      5  C   UNL     1       9.832  10.331  19.633  0.00  0.00    +0.000 A 
ATOM      6  C   UNL     1      10.163  11.687  19.497  0.00  0.00    +0.000 A 
ENDROOT
BRANCH   4   7
ATOM      7  N   UNL     1       8.649   8.356  18.943  0.00  0.00    +0.000 N 
ATOM      8  C   UNL     1       7.962   7.530  18.067  0.00  0.00    +0.000 C 
ATOM      9  O   UNL     1       7.460   7.860  16.995  0.00  0.00    +0.000 OA
ATOM     10  H   UNL     1       9.036   7.925  19.775  0.00  0.00    +0.000 HD
BRANCH   8  11
ATOM     11  C   UNL     1       7.840   6.095  18.561  0.00  0.00    +0.000 C 
BRANCH  11  12
ATOM     12  C   UNL     1       6.521   5.480  18.161  0.00  0.00    +0.000 A 
ATOM     13  C   UNL     1       5.406   5.605  19.004  0.00  0.00    +0.000 A 
ATOM     14  C   UNL     1       4.204   4.971  18.686  0.00  0.00    +0.000 A 
ATOM     15  C   UNL     1       4.109   4.220  17.519  0.00  0.00    +0.000 A 
ATOM     16 CL   UNL     1       2.645   3.395  17.152  0.00  0.00    +0.000 Cl
ATOM     17  C   UNL     1       5.197   4.121  16.651  0.00  0.00    +0.000 A 
ATOM     18  C   UNL     1       6.401   4.754  16.970  0.00  0.00    +0.000 A 
ENDBRANCH  11  12
ENDBRANCH   8  11
ENDBRANCH   4   7
BRANCH   1  19
ATOM     19  O   UNL     1       9.710  13.810  18.330  0.00  0.00    +0.000 OA
BRANCH  19  21
ATOM     20  C   UNL     1      12.015  14.618  18.889  0.00  0.00    +0.000 C 
ATOM     21  C   UNL     1      10.948  14.353  17.820  0.00  0.00    +0.000 C 
ATOM     22  C   UNL     1      11.447  13.526  16.631  0.00  0.00    +0.000 C 
BRANCH  21  23
ATOM     23  C   UNL     1      10.561  15.741  17.256  0.00  0.00    +0.000 C 
ATOM     24  O   UNL     1      10.024  16.628  17.904  0.00  0.00    +0.000 OA
BRANCH  23  25
ATOM     25  O   UNL     1      10.866  15.900  15.942  0.00  0.00    +0.000 OA
ATOM     26  H   UNL     1      11.819  16.124  15.858  0.00  0.00    +0.000 HD
ENDBRANCH  23  25
ENDBRANCH  21  23
ENDBRANCH  19  21
ENDBRANCH   1  19
TORSDOF 7
ENDMDL
MODEL 2
REMARK VINA RESULT:      -7.6      6.886      7.812
REMARK  Name = 
REMARK  9 active torsions:
REMARK  status: ('A' for Active; 'I' for Inactive)
REMARK    1  A    between atoms: C_1  and  C_2
REMARK    2  A    between atoms: C_2  and  C_3
REMARK    3  A    between atoms: C_2  and  O_4
REMARK    4  A    between atoms: C_2  and  C_22
REMARK    5  A    between atoms: O_4  and  C_5
REMARK    6  A    between atoms: C_8  and  N_9
REMARK    7  A    between atoms: C_10  and  C_12
REMARK    8  A    between atoms: C_12  and  C_13
REMARK    9  A    between atoms: C_22  and  O_24
REMARK                            x       y       z     vdW  Elec       q    Type
REMARK                         _______ _______ _______ _____ _____    ______ ____
ROOT
ATOM      1  C   UNL     1       0.753   9.925  19.016  0.00  0.00    +0.000 A 
ATOM      2  C   UNL     1       0.896   9.305  20.257  0.00  0.00    +0.000 A 
ATOM      3  C   UNL     1       1.655   8.139  20.397  0.00  0.00    +0.000 A 
ATOM      4  C   UNL     1       2.283   7.566  19.292  0.00  0.00    +0.000 A 
ATOM      5  C   UNL     1       2.140   8.187  18.048  0.00  0.00    +0.000 A 
ATOM      6  C   UNL     1       1.355   9.341  17.908  0.00  0.00    +0.000 A 
ENDROOT
BRANCH   4   7
ATOM      7  N   UNL     1       3.045   6.382  19.351  0.00  0.00    +0.000 N 
ATOM      8  C   UNL     1       2.575   5.106  19.624  0.00  0.00    +0.000 C 
ATOM      9  O   UNL     1       1.410   4.791  19.850  0.00  0.00    +0.000 OA
ATOM     10  H   UNL     1       4.034   6.475  19.151  0.00  0.00    +0.000 HD
BRANCH   8  11
ATOM     11  C   UNL     1       3.673   4.051  19.648  0.00  0.00    +0.000 C 
BRANCH  11  12
ATOM     12  C   UNL     1       4.571   4.157  18.440  0.00  0.00    +0.000 A 
ATOM     13  C   UNL     1       5.906   4.563  18.593  0.00  0.00    +0.000 A 
ATOM     14  C   UNL     1       6.723   4.745  17.475  0.00  0.00    +0.000 A 
ATOM     15  C   UNL     1       6.212   4.510  16.203  0.00  0.00    +0.000 A 
ATOM     16 CL   UNL     1       7.201   4.784  14.823  0.00  0.00    +0.000 Cl
ATOM     17  C   UNL     1       4.899   4.066  16.039  0.00  0.00    +0.000 A 
ATOM     18  C   UNL     1       4.081   3.886  17.157  0.00  0.00    +0.000 A 
ENDBRANCH  11  12
ENDBRANCH   8  11
ENDBRANCH   4   7
BRANCH   1  19
ATOM     19  O   UNL     1      -0.003  11.057  19.039  0.00  0.00    +0.000 OA
BRANCH  19  21
ATOM     20  C   UNL     1       0.427  12.848  20.737  0.00  0.00    +0.000 C 
ATOM     21  C   UNL     1       0.552  12.368  19.286  0.00  0.00    +0.000 C 
ATOM     22  C   UNL     1       1.970  12.466  18.716  0.00  0.00    +0.000 C 
BRANCH  21  23
ATOM     23  C   UNL     1      -0.325  13.327  18.447  0.00  0.00    +0.000 C 
ATOM     24  O   UNL     1      -0.369  14.540  18.599  0.00  0.00    +0.000 OA
BRANCH  23  25
ATOM     25  O   UNL     1      -1.071  12.698  17.503  0.00  0.00    +0.000 OA
ATOM     26  H   UNL     1      -1.762  12.157  17.946  0.00  0.00    +0.000 HD
ENDBRANCH  23  25
ENDBRANCH  21  23
ENDBRANCH  19  21
ENDBRANCH   1  19
TORSDOF 7
ENDMDL
MODEL 3
REMARK VINA RESULT:      -7.5      6.936      7.891
REMARK  Name = 
REMARK  9 active torsions:
REMARK  status: ('A' for Active; 'I' for Inactive)
REMARK    1  A    between atoms: C_1  and  C_2
REMARK    2  A    between atoms: C_2  and  C_3
REMARK    3  A    between atoms: C_2  and  O_4
REMARK    4  A    between atoms: C_2  and  C_22
REMARK    5  A    between atoms: O_4  and  C_5
REMARK    6  A    between atoms: C_8  and  N_9
REMARK    7  A    between atoms: C_10  and  C_12
REMARK    8  A    between atoms: C_12  and  C_13
REMARK    9  A    between atoms: C_22  and  O_24
REMARK                            x       y       z     vdW  Elec       q    Type
REMARK                         _______ _______ _______ _____ _____    ______ ____
ROOT
ATOM      1  C   UNL     1       0.664   9.929  19.029  0.00  0.00    +0.000 A 
ATOM      2  C   UNL     1       0.857   9.292  20.255  0.00  0.00    +0.000 A 
ATOM      3  C   UNL     1       1.664   8.154  20.356  0.00  0.00    +0.000 A 
ATOM      4  C   UNL     1       2.290   7.627  19.228  0.00  0.00    +0.000 A 
ATOM      5  C   UNL     1       2.098   8.265  18.000  0.00  0.00    +0.000 A 
ATOM      6  C   UNL     1       1.266   9.390  17.898  0.00  0.00    +0.000 A 
ENDROOT
BRANCH   4   7
ATOM      7  N   UNL     1       3.099   6.473  19.250  0.00  0.00    +0.000 N 
ATOM      8  C   UNL     1       2.688   5.177  19.522  0.00  0.00    +0.000 C 
ATOM      9  O   UNL     1       1.543   4.815  19.780  0.00  0.00    +0.000 OA
ATOM     10  H   UNL     1       4.077   6.607  19.019  0.00  0.00    +0.000 HD
BRANCH   8  11
ATOM     11  C   UNL     1       3.825   4.166  19.499  0.00  0.00    +0.000 C 
BRANCH  11  12
ATOM     12  C   UNL     1       4.695   4.337  18.278  0.00  0.00    +0.000 A 
ATOM     13  C   UNL     1       4.150   4.155  16.997  0.00  0.00    +0.000 A 
ATOM     14  C   UNL     1       4.962   4.228  15.865  0.00  0.00    +0.000 A 
ATOM     15  C   UNL     1       6.320   4.496  16.007  0.00  0.00    +0.000 A 
ATOM     16 CL   UNL     1       7.332   4.535  14.617  0.00  0.00    +0.000 Cl
ATOM     17  C   UNL     1       6.868   4.721  17.270  0.00  0.00    +0.000 A 
ATOM     18  C   UNL     1       6.055   4.645  18.404  0.00  0.00    +0.000 A 
ENDBRANCH  11  12
ENDBRANCH   8  11
ENDBRANCH   4   7
BRANCH   1  19
ATOM     19  O   UNL     1      -0.134  11.029  19.089  0.00  0.00    +0.000 OA
BRANCH  19  21
ATOM     20  C   UNL     1       0.043  12.818  20.835  0.00  0.00    +0.000 C 
ATOM     21  C   UNL     1       0.365  12.347  19.411  0.00  0.00    +0.000 C 
ATOM     22  C   UNL     1       1.844  12.467  19.033  0.00  0.00    +0.000 C 
BRANCH  21  23
ATOM     23  C   UNL     1      -0.407  13.298  18.467  0.00  0.00    +0.000 C 
ATOM     24  O   UNL     1      -0.374  14.519  18.533  0.00  0.00    +0.000 OA
BRANCH  23  25
ATOM     25  O   UNL     1      -1.154  12.653  17.534  0.00  0.00    +0.000 OA
ATOM     26  H   UNL     1      -1.921  12.225  17.975  0.00  0.00    +0.000 HD
ENDBRANCH  23  25
ENDBRANCH  21  23
ENDBRANCH  19  21
ENDBRANCH   1  19
TORSDOF 7
ENDMDL
MODEL 4
REMARK VINA RESULT:      -7.5      0.370      1.038
REMARK  Name = 
REMARK  9 active torsions:
REMARK  status: ('A' for Active; 'I' for Inactive)
REMARK    1  A    between atoms: C_1  and  C_2
REMARK    2  A    between atoms: C_2  and  C_3
REMARK    3  A    between atoms: C_2  and  O_4
REMARK    4  A    between atoms: C_2  and  C_22
REMARK    5  A    between atoms: O_4  and  C_5
REMARK    6  A    between atoms: C_8  and  N_9
REMARK    7  A    between atoms: C_10  and  C_12
REMARK    8  A    between atoms: C_12  and  C_13
REMARK    9  A    between atoms: C_22  and  O_24
REMARK                            x       y       z     vdW  Elec       q    Type
REMARK                         _______ _______ _______ _____ _____    ______ ____
ROOT
ATOM      1  C   UNL     1       9.524  12.526  18.528  0.00  0.00    +0.000 A 
ATOM      2  C   UNL     1       8.598  11.939  17.665  0.00  0.00    +0.000 A 
ATOM      3  C   UNL     1       8.276  10.582  17.769  0.00  0.00    +0.000 A 
ATOM      4  C   UNL     1       8.879   9.783  18.738  0.00  0.00    +0.000 A 
ATOM      5  C   UNL     1       9.806  10.370  19.604  0.00  0.00    +0.000 A 
ATOM      6  C   UNL     1      10.147  11.725  19.479  0.00  0.00    +0.000 A 
ENDROOT
BRANCH   4   7
ATOM      7  N   UNL     1       8.621   8.405  18.889  0.00  0.00    +0.000 N 
ATOM      8  C   UNL     1       7.916   7.593  18.013  0.00  0.00    +0.000 C 
ATOM      9  O   UNL     1       7.406   7.937  16.950  0.00  0.00    +0.000 OA
ATOM     10  H   UNL     1       9.012   7.964  19.712  0.00  0.00    +0.000 HD
BRANCH   8  11
ATOM     11  C   UNL     1       7.787   6.155  18.496  0.00  0.00    +0.000 C 
BRANCH  11  12
ATOM     12  C   UNL     1       6.391   5.622  18.284  0.00  0.00    +0.000 A 
ATOM     13  C   UNL     1       6.006   5.149  17.020  0.00  0.00    +0.000 A 
ATOM     14  C   UNL     1       4.694   4.732  16.791  0.00  0.00    +0.000 A 
ATOM     15  C   UNL     1       3.767   4.772  17.827  0.00  0.00    +0.000 A 
ATOM     16 CL   UNL     1       2.137   4.307  17.532  0.00  0.00    +0.000 Cl
ATOM     17  C   UNL     1       4.146   5.200  19.100  0.00  0.00    +0.000 A 
ATOM     18  C   UNL     1       5.459   5.621  19.329  0.00  0.00    +0.000 A 
ENDBRANCH  11  12
ENDBRANCH   8  11
ENDBRANCH   4   7
BRANCH   1  19
ATOM     19  O   UNL     1       9.724  13.855  18.315  0.00  0.00    +0.000 OA
BRANCH  19  21
ATOM     20  C   UNL     1      11.995  14.676  18.984  0.00  0.00    +0.000 C 
ATOM     21  C   UNL     1      10.985  14.397  17.864  0.00  0.00    +0.000 C 
ATOM     22  C   UNL     1      11.547  13.560  16.711  0.00  0.00    +0.000 C 
BRANCH  21  23
ATOM     23  C   UNL     1      10.625  15.778  17.267  0.00  0.00    +0.000 C 
ATOM     24  O   UNL     1      10.254  16.742  17.922  0.00  0.00    +0.000 OA
BRANCH  23  25
ATOM     25  O   UNL     1      10.748  15.837  15.916  0.00  0.00    +0.000 OA
ATOM     26  H   UNL     1      11.516  15.289  15.639  0.00  0.00    +0.000 HD
ENDBRANCH  23  25
ENDBRANCH  21  23
ENDBRANCH  19  21
ENDBRANCH   1  19
TORSDOF 7
ENDMDL
MODEL 5
REMARK VINA RESULT:      -7.4      7.161      8.293
REMARK  Name = 
REMARK  9 active torsions:
REMARK  status: ('A' for Active; 'I' for Inactive)
REMARK    1  A    between atoms: C_1  and  C_2
REMARK    2  A    between atoms: C_2  and  C_3
REMARK    3  A    between atoms: C_2  and  O_4
REMARK    4  A    between atoms: C_2  and  C_22
REMARK    5  A    between atoms: O_4  and  C_5
REMARK    6  A    between atoms: C_8  and  N_9
REMARK    7  A    between atoms: C_10  and  C_12
REMARK    8  A    between atoms: C_12  and  C_13
REMARK    9  A    between atoms: C_22  and  O_24
REMARK                            x       y       z     vdW  Elec       q    Type
REMARK                         _______ _______ _______ _____ _____    ______ ____
ROOT
ATOM      1  C   UNL     1       1.240   9.861  19.096  0.00  0.00    +0.000 A 
ATOM      2  C   UNL     1       1.914   9.664  17.891  0.00  0.00    +0.000 A 
ATOM      3  C   UNL     1       2.628   8.486  17.649  0.00  0.00    +0.000 A 
ATOM      4  C   UNL     1       2.686   7.482  18.614  0.00  0.00    +0.000 A 
ATOM      5  C   UNL     1       2.009   7.678  19.822  0.00  0.00    +0.000 A 
ATOM      6  C   UNL     1       1.318   8.873  20.071  0.00  0.00    +0.000 A 
ENDROOT
BRANCH   4   7
ATOM      7  N   UNL     1       3.401   6.279  18.450  0.00  0.00    +0.000 N 
ATOM      8  C   UNL     1       2.877   5.043  18.103  0.00  0.00    +0.000 C 
ATOM      9  O   UNL     1       1.698   4.791  17.868  0.00  0.00    +0.000 OA
ATOM     10  H   UNL     1       4.405   6.333  18.579  0.00  0.00    +0.000 HD
BRANCH   8  11
ATOM     11  C   UNL     1       3.923   3.938  18.047  0.00  0.00    +0.000 C 
BRANCH  11  12
ATOM     12  C   UNL     1       4.927   4.180  16.947  0.00  0.00    +0.000 A 
ATOM     13  C   UNL     1       6.256   4.501  17.268  0.00  0.00    +0.000 A 
ATOM     14  C   UNL     1       7.173   4.808  16.262  0.00  0.00    +0.000 A 
ATOM     15  C   UNL     1       6.769   4.782  14.931  0.00  0.00    +0.000 A 
ATOM     16 CL   UNL     1       7.884   5.210  13.693  0.00  0.00    +0.000 Cl
ATOM     17  C   UNL     1       5.463   4.424  14.594  0.00  0.00    +0.000 A 
ATOM     18  C   UNL     1       4.544   4.119  15.601  0.00  0.00    +0.000 A 
ENDBRANCH  11  12
ENDBRANCH   8  11
ENDBRANCH   4   7
BRANCH   1  19
ATOM     19  O   UNL     1       0.580  11.048  19.181  0.00  0.00    +0.000 OA
BRANCH  19  21
ATOM     20  C   UNL     1      -1.461  10.041  18.135  0.00  0.00    +0.000 C 
ATOM     21  C   UNL     1      -0.842  11.175  18.961  0.00  0.00    +0.000 C 
ATOM     22  C   UNL     1      -1.566  11.452  20.282  0.00  0.00    +0.000 C 
BRANCH  21  23
ATOM     23  C   UNL     1      -0.992  12.454  18.104  0.00  0.00    +0.000 C 
ATOM     24  O   UNL     1      -0.505  13.540  18.386  0.00  0.00    +0.000 OA
BRANCH  23  25
ATOM     25  O   UNL     1      -1.735  12.274  16.982  0.00  0.00    +0.000 OA
ATOM     26  H   UNL     1      -1.688  13.086  16.431  0.00  0.00    +0.000 HD
ENDBRANCH  23  25
ENDBRANCH  21  23
ENDBRANCH  19  21
ENDBRANCH   1  19
TORSDOF 7
ENDMDL
MODEL 6
REMARK VINA RESULT:      -7.3      6.964      7.983
REMARK  Name = 
REMARK  9 active torsions:
REMARK  status: ('A' for Active; 'I' for Inactive)
REMARK    1  A    between atoms: C_1  and  C_2
REMARK    2  A    between atoms: C_2  and  C_3
REMARK    3  A    between atoms: C_2  and  O_4
REMARK    4  A    between atoms: C_2  and  C_22
REMARK    5  A    between atoms: O_4  and  C_5
REMARK    6  A    between atoms: C_8  and  N_9
REMARK    7  A    between atoms: C_10  and  C_12
REMARK    8  A    between atoms: C_12  and  C_13
REMARK    9  A    between atoms: C_22  and  O_24
REMARK                            x       y       z     vdW  Elec       q    Type
REMARK                         _______ _______ _______ _____ _____    ______ ____
ROOT
ATOM      1  C   UNL     1       0.625   9.838  19.178  0.00  0.00    +0.000 A 
ATOM      2  C   UNL     1       0.793   9.186  20.399  0.00  0.00    +0.000 A 
ATOM      3  C   UNL     1       1.624   8.067  20.511  0.00  0.00    +0.000 A 
ATOM      4  C   UNL     1       2.302   7.575  19.397  0.00  0.00    +0.000 A 
ATOM      5  C   UNL     1       2.135   8.228  18.173  0.00  0.00    +0.000 A 
ATOM      6  C   UNL     1       1.279   9.333  18.060  0.00  0.00    +0.000 A 
ENDROOT
BRANCH   4   7
ATOM      7  N   UNL     1       3.139   6.441  19.428  0.00  0.00    +0.000 N 
ATOM      8  C   UNL     1       2.738   5.116  19.513  0.00  0.00    +0.000 C 
ATOM      9  O   UNL     1       1.581   4.707  19.564  0.00  0.00    +0.000 OA
ATOM     10  H   UNL     1       4.134   6.617  19.359  0.00  0.00    +0.000 HD
BRANCH   8  11
ATOM     11  C   UNL     1       3.901   4.136  19.563  0.00  0.00    +0.000 C 
BRANCH  11  12
ATOM     12  C   UNL     1       4.759   4.229  18.324  0.00  0.00    +0.000 A 
ATOM     13  C   UNL     1       6.111   4.591  18.434  0.00  0.00    +0.000 A 
ATOM     14  C   UNL     1       6.892   4.762  17.290  0.00  0.00    +0.000 A 
ATOM     15  C   UNL     1       6.330   4.559  16.035  0.00  0.00    +0.000 A 
ATOM     16 CL   UNL     1       7.277   4.819  14.623  0.00  0.00    +0.000 Cl
ATOM     17  C   UNL     1       4.999   4.158  15.912  0.00  0.00    +0.000 A 
ATOM     18  C   UNL     1       4.215   3.989  17.057  0.00  0.00    +0.000 A 
ENDBRANCH  11  12
ENDBRANCH   8  11
ENDBRANCH   4   7
BRANCH   1  19
ATOM     19  O   UNL     1      -0.202  10.917  19.228  0.00  0.00    +0.000 OA
BRANCH  19  21
ATOM     20  C   UNL     1       1.800  12.418  19.100  0.00  0.00    +0.000 C 
ATOM     21  C   UNL     1       0.281  12.279  19.260  0.00  0.00    +0.000 C 
ATOM     22  C   UNL     1      -0.531  13.158  18.305  0.00  0.00    +0.000 C 
BRANCH  21  23
ATOM     23  C   UNL     1      -0.040  12.773  20.690  0.00  0.00    +0.000 C 
ATOM     24  O   UNL     1       0.680  12.597  21.663  0.00  0.00    +0.000 OA
BRANCH  23  25
ATOM     25  O   UNL     1      -1.223  13.432  20.787  0.00  0.00    +0.000 OA
ATOM     26  H   UNL     1      -1.203  14.218  20.197  0.00  0.00    +0.000 HD
ENDBRANCH  23  25
ENDBRANCH  21  23
ENDBRANCH  19  21
ENDBRANCH   1  19
TORSDOF 7
ENDMDL
MODEL 7
REMARK VINA RESULT:      -7.3      8.545     11.657
REMARK  Name = 
REMARK  9 active torsions:
REMARK  status: ('A' for Active; 'I' for Inactive)
REMARK    1  A    between atoms: C_1  and  C_2
REMARK    2  A    between atoms: C_2  and  C_3
REMARK    3  A    between atoms: C_2  and  O_4
REMARK    4  A    between atoms: C_2  and  C_22
REMARK    5  A    between atoms: O_4  and  C_5
REMARK    6  A    between atoms: C_8  and  N_9
REMARK    7  A    between atoms: C_10  and  C_12
REMARK    8  A    between atoms: C_12  and  C_13
REMARK    9  A    between atoms: C_22  and  O_24
REMARK                            x       y       z     vdW  Elec       q    Type
REMARK                         _______ _______ _______ _____ _____    ______ ____
ROOT
ATOM      1  C   UNL     1       2.458   6.200  19.363  0.00  0.00    +0.000 A 
ATOM      2  C   UNL     1       1.853   6.511  20.582  0.00  0.00    +0.000 A 
ATOM      3  C   UNL     1       1.324   7.783  20.820  0.00  0.00    +0.000 A 
ATOM      4  C   UNL     1       1.395   8.774  19.843  0.00  0.00    +0.000 A 
ATOM      5  C   UNL     1       2.000   8.464  18.621  0.00  0.00    +0.000 A 
ATOM      6  C   UNL     1       2.554   7.195  18.397  0.00  0.00    +0.000 A 
ENDROOT
BRANCH   4   7
ATOM      7  N   UNL     1       0.903  10.083  20.018  0.00  0.00    +0.000 N 
ATOM      8  C   UNL     1      -0.296  10.590  19.542  0.00  0.00    +0.000 C 
ATOM      9  O   UNL     1      -1.140   9.976  18.893  0.00  0.00    +0.000 OA
ATOM     10  H   UNL     1       1.480  10.708  20.569  0.00  0.00    +0.000 HD
BRANCH   8  11
ATOM     11  C   UNL     1      -0.506  12.059  19.877  0.00  0.00    +0.000 C 
BRANCH  11  12
ATOM     12  C   UNL     1      -1.452  12.233  21.040  0.00  0.00    +0.000 A 
ATOM     13  C   UNL     1      -1.025  11.932  22.343  0.00  0.00    +0.000 A 
ATOM     14  C   UNL     1      -1.914  12.009  23.416  0.00  0.00    +0.000 A 
ATOM     15  C   UNL     1      -3.231  12.399  23.192  0.00  0.00    +0.000 A 
ATOM     16 CL   UNL     1      -4.341  12.444  24.505  0.00  0.00    +0.000 Cl
ATOM     17  C   UNL     1      -3.659  12.742  21.909  0.00  0.00    +0.000 A 
ATOM     18  C   UNL     1      -2.769  12.662  20.835  0.00  0.00    +0.000 A 
ENDBRANCH  11  12
ENDBRANCH   8  11
ENDBRANCH   4   7
BRANCH   1  19
ATOM     19  O   UNL     1       2.913   4.921  19.274  0.00  0.00    +0.000 OA
BRANCH  19  21
ATOM     20  C   UNL     1       1.202   3.218  19.944  0.00  0.00    +0.000 C 
ATOM     21  C   UNL     1       2.084   3.819  18.842  0.00  0.00    +0.000 C 
ATOM     22  C   UNL     1       1.323   4.189  17.566  0.00  0.00    +0.000 C 
BRANCH  21  23
ATOM     23  C   UNL     1       3.085   2.708  18.449  0.00  0.00    +0.000 C 
ATOM     24  O   UNL     1       4.233   2.908  18.076  0.00  0.00    +0.000 OA
BRANCH  23  25
ATOM     25  O   UNL     1       2.574   1.454  18.547  0.00  0.00    +0.000 OA
ATOM     26  H   UNL     1       1.650   1.507  18.878  0.00  0.00    +0.000 HD
ENDBRANCH  23  25
ENDBRANCH  21  23
ENDBRANCH  19  21
ENDBRANCH   1  19
TORSDOF 7
ENDMDL
MODEL 8
REMARK VINA RESULT:      -7.2      8.114     10.969
REMARK  Name = 
REMARK  9 active torsions:
REMARK  status: ('A' for Active; 'I' for Inactive)
REMARK    1  A    between atoms: C_1  and  C_2
REMARK    2  A    between atoms: C_2  and  C_3
REMARK    3  A    between atoms: C_2  and  O_4
REMARK    4  A    between atoms: C_2  and  C_22
REMARK    5  A    between atoms: O_4  and  C_5
REMARK    6  A    between atoms: C_8  and  N_9
REMARK    7  A    between atoms: C_10  and  C_12
REMARK    8  A    between atoms: C_12  and  C_13
REMARK    9  A    between atoms: C_22  and  O_24
REMARK                            x       y       z     vdW  Elec       q    Type
REMARK                         _______ _______ _______ _____ _____    ______ ____
ROOT
ATOM      1  C   UNL     1       2.610   5.752  18.545  0.00  0.00    +0.000 A 
ATOM      2  C   UNL     1       2.519   7.105  18.216  0.00  0.00    +0.000 A 
ATOM      3  C   UNL     1       2.112   8.051  19.162  0.00  0.00    +0.000 A 
ATOM      4  C   UNL     1       1.782   7.659  20.458  0.00  0.00    +0.000 A 
ATOM      5  C   UNL     1       1.874   6.304  20.789  0.00  0.00    +0.000 A 
ATOM      6  C   UNL     1       2.255   5.356  19.829  0.00  0.00    +0.000 A 
ENDROOT
BRANCH   4   7
ATOM      7  N   UNL     1       1.345   8.552  21.458  0.00  0.00    +0.000 N 
ATOM      8  C   UNL     1       0.056   8.673  21.954  0.00  0.00    +0.000 C 
ATOM      9  O   UNL     1      -0.923   8.014  21.611  0.00  0.00    +0.000 OA
ATOM     10  H   UNL     1       2.054   9.147  21.869  0.00  0.00    +0.000 HD
BRANCH   8  11
ATOM     11  C   UNL     1      -0.085   9.764  23.006  0.00  0.00    +0.000 C 
BRANCH  11  12
ATOM     12  C   UNL     1      -0.891  10.932  22.492  0.00  0.00    +0.000 A 
ATOM     13  C   UNL     1      -0.677  11.411  21.190  0.00  0.00    +0.000 A 
ATOM     14  C   UNL     1      -1.356  12.542  20.732  0.00  0.00    +0.000 A 
ATOM     15  C   UNL     1      -2.260  13.188  21.568  0.00  0.00    +0.000 A 
ATOM     16 CL   UNL     1      -3.058  14.611  21.023  0.00  0.00    +0.000 Cl
ATOM     17  C   UNL     1      -2.514  12.698  22.849  0.00  0.00    +0.000 A 
ATOM     18  C   UNL     1      -1.833  11.568  23.309  0.00  0.00    +0.000 A 
ENDBRANCH  11  12
ENDBRANCH   8  11
ENDBRANCH   4   7
BRANCH   1  19
ATOM     19  O   UNL     1       3.031   4.955  17.526  0.00  0.00    +0.000 OA
BRANCH  19  21
ATOM     20  C   UNL     1       4.855   4.093  16.041  0.00  0.00    +0.000 C 
ATOM     21  C   UNL     1       4.363   4.399  17.461  0.00  0.00    +0.000 C 
ATOM     22  C   UNL     1       5.336   5.241  18.291  0.00  0.00    +0.000 C 
BRANCH  21  23
ATOM     23  C   UNL     1       4.250   3.031  18.173  0.00  0.00    +0.000 C 
ATOM     24  O   UNL     1       3.457   2.151  17.865  0.00  0.00    +0.000 OA
BRANCH  23  25
ATOM     25  O   UNL     1       5.121   2.879  19.204  0.00  0.00    +0.000 OA
ATOM     26  H   UNL     1       5.983   3.282  18.959  0.00  0.00    +0.000 HD
ENDBRANCH  23  25
ENDBRANCH  21  23
ENDBRANCH  19  21
ENDBRANCH   1  19
TORSDOF 7
ENDMDL
MODEL 9
REMARK VINA RESULT:      -7.2      8.377     11.302
REMARK  Name = 
REMARK  9 active torsions:
REMARK  status: ('A' for Active; 'I' for Inactive)
REMARK    1  A    between atoms: C_1  and  C_2
REMARK    2  A    between atoms: C_2  and  C_3
REMARK    3  A    between atoms: C_2  and  O_4
REMARK    4  A    between atoms: C_2  and  C_22
REMARK    5  A    between atoms: O_4  and  C_5
REMARK    6  A    between atoms: C_8  and  N_9
REMARK    7  A    between atoms: C_10  and  C_12
REMARK    8  A    between atoms: C_12  and  C_13
REMARK    9  A    between atoms: C_22  and  O_24
REMARK                            x       y       z     vdW  Elec       q    Type
REMARK                         _______ _______ _______ _____ _____    ______ ____
ROOT
ATOM      1  C   UNL     1       3.003   5.719  19.381  0.00  0.00    +0.000 A 
ATOM      2  C   UNL     1       3.053   6.364  18.146  0.00  0.00    +0.000 A 
ATOM      3  C   UNL     1       2.489   7.632  17.972  0.00  0.00    +0.000 A 
ATOM      4  C   UNL     1       1.859   8.278  19.034  0.00  0.00    +0.000 A 
ATOM      5  C   UNL     1       1.809   7.633  20.273  0.00  0.00    +0.000 A 
ATOM      6  C   UNL     1       2.351   6.349  20.435  0.00  0.00    +0.000 A 
ENDROOT
BRANCH   4   7
ATOM      7  N   UNL     1       1.250   9.546  18.929  0.00  0.00    +0.000 N 
ATOM      8  C   UNL     1       0.185  10.018  19.680  0.00  0.00    +0.000 C 
ATOM      9  O   UNL     1      -0.403   9.414  20.573  0.00  0.00    +0.000 OA
ATOM     10  H   UNL     1       1.652  10.180  18.250  0.00  0.00    +0.000 HD
BRANCH   8  11
ATOM     11  C   UNL     1      -0.254  11.422  19.287  0.00  0.00    +0.000 C 
BRANCH  11  12
ATOM     12  C   UNL     1      -1.718  11.463  18.921  0.00  0.00    +0.000 A 
ATOM     13  C   UNL     1      -2.176  10.775  17.786  0.00  0.00    +0.000 A 
ATOM     14  C   UNL     1      -3.510  10.874  17.389  0.00  0.00    +0.000 A 
ATOM     15  C   UNL     1      -4.394  11.649  18.132  0.00  0.00    +0.000 A 
ATOM     16 CL   UNL     1      -6.027  11.814  17.616  0.00  0.00    +0.000 Cl
ATOM     17  C   UNL     1      -3.963  12.305  19.286  0.00  0.00    +0.000 A 
ATOM     18  C   UNL     1      -2.626  12.208  19.682  0.00  0.00    +0.000 A 
ENDBRANCH  11  12
ENDBRANCH   8  11
ENDBRANCH   4   7
BRANCH   1  19
ATOM     19  O   UNL     1       3.604   4.498  19.400  0.00  0.00    +0.000 OA
BRANCH  19  21
ATOM     20  C   UNL     1       2.608   2.955  21.104  0.00  0.00    +0.000 C 
ATOM     21  C   UNL     1       2.881   3.268  19.627  0.00  0.00    +0.000 C 
ATOM     22  C   UNL     1       1.637   3.205  18.736  0.00  0.00    +0.000 C 
BRANCH  21  23
ATOM     23  C   UNL     1       3.834   2.157  19.128  0.00  0.00    +0.000 C 
ATOM     24  O   UNL     1       3.594   1.405  18.193  0.00  0.00    +0.000 OA
BRANCH  23  25
ATOM     25  O   UNL     1       4.990   2.072  19.835  0.00  0.00    +0.000 OA
ATOM     26  H   UNL     1       4.969   2.727  20.567  0.00  0.00    +0.000 HD
ENDBRANCH  23  25
ENDBRANCH  21  23
ENDBRANCH  19  21
ENDBRANCH   1  19
TORSDOF 7
ENDMDL
