MODEL 1
REMARK VINA RESULT:      -7.8      0.000      0.000
REMARK  Name = 
REMARK  7 active torsions:
REMARK  status: ('A' for Active; 'I' for Inactive)
REMARK    1  A    between atoms: C_1  and  O_2
REMARK    2  A    between atoms: O_2  and  C_3
REMARK    3  A    between atoms: C_6  and  N_7
REMARK    4  A    between atoms: N_7  and  C_8
REMARK    5  A    between atoms: C_9  and  C_11
REMARK    6  A    between atoms: C_11  and  N_12
REMARK    7  A    between atoms: C_19  and  C_20
REMARK                            x       y       z     vdW  Elec       q    Type
REMARK                         _______ _______ _______ _____ _____    ______ ____
ROOT
ATOM      1  N   UNL     1       1.340   9.195  19.248  0.00  0.00    +0.000 N 
ATOM      2  C   UNL     1       0.625   8.813  20.391  0.00  0.00    +0.000 A 
ATOM      3  O   UNL     1      -0.357   9.385  20.849  0.00  0.00    +0.000 OA
ATOM      4  O   UNL     1       1.152   7.687  20.982  0.00  0.00    +0.000 OA
ATOM      5  C   UNL     1       2.065   7.280  20.031  0.00  0.00    +0.000 A 
ATOM      6  C   UNL     1       2.750   6.100  20.202  0.00  0.00    +0.000 A 
ATOM      7  C   UNL     1       3.531   5.665  19.148  0.00  0.00    +0.000 A 
ATOM      8  C   UNL     1       3.653   6.401  17.936  0.00  0.00    +0.000 A 
ATOM      9  C   UNL     1       2.960   7.671  17.840  0.00  0.00    +0.000 A 
ATOM     10  C   UNL     1       2.168   8.110  18.917  0.00  0.00    +0.000 A 
ENDROOT
BRANCH   8  11
ATOM     11  C   UNL     1       4.458   5.719  16.864  0.00  0.00    +0.000 A 
ATOM     12  C   UNL     1       4.693   4.341  16.812  0.00  0.00    +0.000 A 
ATOM     13  C   UNL     1       5.631   3.804  15.907  0.00  0.00    +0.000 A 
ATOM     14  C   UNL     1       6.322   4.656  15.061  0.00  0.00    +0.000 A 
ATOM     15  N   UNL     1       6.126   5.983  15.050  0.00  0.00    +0.000 NA
ATOM     16  C   UNL     1       5.213   6.467  15.936  0.00  0.00    +0.000 A 
ENDBRANCH   8  11
BRANCH   1  17
ATOM     17  C   UNL     1       0.908  10.443  18.647  0.00  0.00    +0.000 C 
BRANCH  17  20
ATOM     18  N   UNL     1       0.708  12.894  19.503  0.00  0.00    +0.000 N 
ATOM     19  C   UNL     1       1.140  14.256  19.142  0.00  0.00    +0.000 C 
ATOM     20  C   UNL     1       1.431  11.879  18.821  0.00  0.00    +0.000 C 
ATOM     21  O   UNL     1       2.465  12.159  18.193  0.00  0.00    +0.000 OA
BRANCH  18  25
ATOM     22  C   UNL     1      -2.513  12.355  22.358  0.00  0.00    +0.000 A 
ATOM     23  C   UNL     1      -2.772  12.547  21.008  0.00  0.00    +0.000 A 
ATOM     24  C   UNL     1      -1.733  12.722  20.068  0.00  0.00    +0.000 A 
ATOM     25  C   UNL     1      -0.388  12.782  20.455  0.00  0.00    +0.000 A 
ATOM     26  C   UNL     1      -0.159  12.621  21.841  0.00  0.00    +0.000 A 
ATOM     27  C   UNL     1      -1.194  12.393  22.784  0.00  0.00    +0.000 A 
BRANCH  22  29
ATOM     28  C   UNL     1      -3.941  13.251  24.038  0.00  0.00    +0.000 C 
ATOM     29  O   UNL     1      -3.617  12.190  23.146  0.00  0.00    +0.000 OA
ENDBRANCH  22  29
ENDBRANCH  18  25
ENDBRANCH  17  20
ENDBRANCH   1  17
TORSDOF 5
ENDMDL
MODEL 2
REMARK VINA RESULT:      -7.8      3.567      6.996
REMARK  Name = 
REMARK  7 active torsions:
REMARK  status: ('A' for Active; 'I' for Inactive)
REMARK    1  A    between atoms: C_1  and  O_2
REMARK    2  A    between atoms: O_2  and  C_3
REMARK    3  A    between atoms: C_6  and  N_7
REMARK    4  A    between atoms: N_7  and  C_8
REMARK    5  A    between atoms: C_9  and  C_11
REMARK    6  A    between atoms: C_11  and  N_12
REMARK    7  A    between atoms: C_19  and  C_20
REMARK                            x       y       z     vdW  Elec       q    Type
REMARK                         _______ _______ _______ _____ _____    ______ ____
ROOT
ATOM      1  N   UNL     1       5.773   4.470  18.291  0.00  0.00    +0.000 N 
ATOM      2  C   UNL     1       6.815   5.210  18.864  0.00  0.00    +0.000 A 
ATOM      3  O   UNL     1       7.132   5.206  20.048  0.00  0.00    +0.000 OA
ATOM      4  O   UNL     1       7.480   5.978  17.935  0.00  0.00    +0.000 OA
ATOM      5  C   UNL     1       6.947   5.504  16.755  0.00  0.00    +0.000 A 
ATOM      6  C   UNL     1       7.436   5.958  15.553  0.00  0.00    +0.000 A 
ATOM      7  C   UNL     1       6.976   5.335  14.409  0.00  0.00    +0.000 A 
ATOM      8  C   UNL     1       6.022   4.280  14.446  0.00  0.00    +0.000 A 
ATOM      9  C   UNL     1       5.492   3.889  15.739  0.00  0.00    +0.000 A 
ATOM     10  C   UNL     1       5.963   4.529  16.901  0.00  0.00    +0.000 A 
ENDROOT
BRANCH   8  11
ATOM     11  C   UNL     1       5.724   3.653  13.112  0.00  0.00    +0.000 A 
ATOM     12  C   UNL     1       4.490   3.737  12.459  0.00  0.00    +0.000 A 
ATOM     13  C   UNL     1       4.220   2.947  11.324  0.00  0.00    +0.000 A 
ATOM     14  C   UNL     1       5.192   2.080  10.854  0.00  0.00    +0.000 A 
ATOM     15  N   UNL     1       6.402   1.968  11.424  0.00  0.00    +0.000 NA
ATOM     16  C   UNL     1       6.629   2.747  12.517  0.00  0.00    +0.000 A 
ENDBRANCH   8  11
BRANCH   1  17
ATOM     17  C   UNL     1       4.957   3.731  19.236  0.00  0.00    +0.000 C 
BRANCH  17  20
ATOM     18  N   UNL     1       2.377   4.068  19.334  0.00  0.00    +0.000 N 
ATOM     19  C   UNL     1       1.152   3.320  19.670  0.00  0.00    +0.000 C 
ATOM     20  C   UNL     1       3.506   3.229  19.138  0.00  0.00    +0.000 C 
ATOM     21  O   UNL     1       3.365   2.000  19.030  0.00  0.00    +0.000 OA
BRANCH  18  25
ATOM     22  C   UNL     1       1.844   8.370  19.176  0.00  0.00    +0.000 A 
ATOM     23  C   UNL     1       2.292   7.658  18.071  0.00  0.00    +0.000 A 
ATOM     24  C   UNL     1       2.468   6.258  18.109  0.00  0.00    +0.000 A 
ATOM     25  C   UNL     1       2.269   5.518  19.282  0.00  0.00    +0.000 A 
ATOM     26  C   UNL     1       1.849   6.276  20.400  0.00  0.00    +0.000 A 
ATOM     27  C   UNL     1       1.620   7.676  20.355  0.00  0.00    +0.000 A 
BRANCH  22  29
ATOM     28  C   UNL     1       0.843  10.412  19.875  0.00  0.00    +0.000 C 
ATOM     29  O   UNL     1       1.712   9.716  18.988  0.00  0.00    +0.000 OA
ENDBRANCH  22  29
ENDBRANCH  18  25
ENDBRANCH  17  20
ENDBRANCH   1  17
TORSDOF 5
ENDMDL
MODEL 3
REMARK VINA RESULT:      -7.7      2.345      3.353
REMARK  Name = 
REMARK  7 active torsions:
REMARK  status: ('A' for Active; 'I' for Inactive)
REMARK    1  A    between atoms: C_1  and  O_2
REMARK    2  A    between atoms: O_2  and  C_3
REMARK    3  A    between atoms: C_6  and  N_7
REMARK    4  A    between atoms: N_7  and  C_8
REMARK    5  A    between atoms: C_9  and  C_11
REMARK    6  A    between atoms: C_11  and  N_12
REMARK    7  A    between atoms: C_19  and  C_20
REMARK                            x       y       z     vdW  Elec       q    Type
REMARK                         _______ _______ _______ _____ _____    ______ ____
ROOT
ATOM      1  N   UNL     1       1.617   8.383  19.880  0.00  0.00    +0.000 N 
ATOM      2  C   UNL     1       0.827   7.797  20.877  0.00  0.00    +0.000 A 
ATOM      3  O   UNL     1      -0.130   8.321  21.436  0.00  0.00    +0.000 OA
ATOM      4  O   UNL     1       1.243   6.522  21.189  0.00  0.00    +0.000 OA
ATOM      5  C   UNL     1       2.163   6.282  20.191  0.00  0.00    +0.000 A 
ATOM      6  C   UNL     1       2.752   5.043  20.086  0.00  0.00    +0.000 A 
ATOM      7  C   UNL     1       3.543   4.813  18.978  0.00  0.00    +0.000 A 
ATOM      8  C   UNL     1       3.773   5.806  17.985  0.00  0.00    +0.000 A 
ATOM      9  C   UNL     1       3.181   7.115  18.184  0.00  0.00    +0.000 A 
ATOM     10  C   UNL     1       2.377   7.345  19.315  0.00  0.00    +0.000 A 
ENDROOT
BRANCH   8  11
ATOM     11  C   UNL     1       4.571   5.338  16.799  0.00  0.00    +0.000 A 
ATOM     12  C   UNL     1       4.898   4.002  16.547  0.00  0.00    +0.000 A 
ATOM     13  C   UNL     1       5.828   3.665  15.542  0.00  0.00    +0.000 A 
ATOM     14  C   UNL     1       6.418   4.673  14.798  0.00  0.00    +0.000 A 
ATOM     15  N   UNL     1       6.131   5.971  14.979  0.00  0.00    +0.000 NA
ATOM     16  C   UNL     1       5.229   6.260  15.957  0.00  0.00    +0.000 A 
ENDBRANCH   8  11
BRANCH   1  17
ATOM     17  C   UNL     1       1.306   9.770  19.590  0.00  0.00    +0.000 C 
BRANCH  17  20
ATOM     18  N   UNL     1      -0.571  11.533  19.976  0.00  0.00    +0.000 N 
ATOM     19  C   UNL     1      -0.802  12.800  20.693  0.00  0.00    +0.000 C 
ATOM     20  C   UNL     1       0.581  10.837  20.429  0.00  0.00    +0.000 C 
ATOM     21  O   UNL     1       1.150  11.179  21.478  0.00  0.00    +0.000 OA
BRANCH  18  25
ATOM     22  C   UNL     1      -3.249  10.644  16.682  0.00  0.00    +0.000 A 
ATOM     23  C   UNL     1      -3.605  11.545  17.676  0.00  0.00    +0.000 A 
ATOM     24  C   UNL     1      -2.742  11.844  18.753  0.00  0.00    +0.000 A 
ATOM     25  C   UNL     1      -1.510  11.197  18.916  0.00  0.00    +0.000 A 
ATOM     26  C   UNL     1      -1.193  10.258  17.907  0.00  0.00    +0.000 A 
ATOM     27  C   UNL     1      -2.032   9.991  16.795  0.00  0.00    +0.000 A 
BRANCH  22  29
ATOM     28  C   UNL     1      -3.698  10.133  14.402  0.00  0.00    +0.000 C 
ATOM     29  O   UNL     1      -4.181  10.463  15.699  0.00  0.00    +0.000 OA
ENDBRANCH  22  29
ENDBRANCH  18  25
ENDBRANCH  17  20
ENDBRANCH   1  17
TORSDOF 5
ENDMDL
MODEL 4
REMARK VINA RESULT:      -7.6      1.910      2.504
REMARK  Name = 
REMARK  7 active torsions:
REMARK  status: ('A' for Active; 'I' for Inactive)
REMARK    1  A    between atoms: C_1  and  O_2
REMARK    2  A    between atoms: O_2  and  C_3
REMARK    3  A    between atoms: C_6  and  N_7
REMARK    4  A    between atoms: N_7  and  C_8
REMARK    5  A    between atoms: C_9  and  C_11
REMARK    6  A    between atoms: C_11  and  N_12
REMARK    7  A    between atoms: C_19  and  C_20
REMARK                            x       y       z     vdW  Elec       q    Type
REMARK                         _______ _______ _______ _____ _____    ______ ____
ROOT
ATOM      1  N   UNL     1       1.422   9.253  19.097  0.00  0.00    +0.000 N 
ATOM      2  C   UNL     1       0.691   8.919  20.245  0.00  0.00    +0.000 A 
ATOM      3  O   UNL     1      -0.281   9.527  20.680  0.00  0.00    +0.000 OA
ATOM      4  O   UNL     1       1.187   7.796  20.869  0.00  0.00    +0.000 OA
ATOM      5  C   UNL     1       2.095   7.343  19.936  0.00  0.00    +0.000 A 
ATOM      6  C   UNL     1       2.751   6.152  20.144  0.00  0.00    +0.000 A 
ATOM      7  C   UNL     1       3.528   5.671  19.107  0.00  0.00    +0.000 A 
ATOM      8  C   UNL     1       3.676   6.371  17.877  0.00  0.00    +0.000 A 
ATOM      9  C   UNL     1       3.014   7.654  17.742  0.00  0.00    +0.000 A 
ATOM     10  C   UNL     1       2.226   8.140  18.802  0.00  0.00    +0.000 A 
ENDROOT
BRANCH   8  11
ATOM     11  C   UNL     1       4.471   5.641  16.830  0.00  0.00    +0.000 A 
ATOM     12  C   UNL     1       4.691   4.259  16.827  0.00  0.00    +0.000 A 
ATOM     13  C   UNL     1       5.622   3.680  15.941  0.00  0.00    +0.000 A 
ATOM     14  C   UNL     1       6.320   4.492  15.064  0.00  0.00    +0.000 A 
ATOM     15  N   UNL     1       6.138   5.821  15.004  0.00  0.00    +0.000 NA
ATOM     16  C   UNL     1       5.232   6.346  15.873  0.00  0.00    +0.000 A 
ENDBRANCH   8  11
BRANCH   1  17
ATOM     17  C   UNL     1       1.024  10.494  18.460  0.00  0.00    +0.000 C 
BRANCH  17  20
ATOM     18  N   UNL     1      -0.340  12.657  18.952  0.00  0.00    +0.000 N 
ATOM     19  C   UNL     1      -0.139  14.109  19.107  0.00  0.00    +0.000 C 
ATOM     20  C   UNL     1       0.869  11.915  19.029  0.00  0.00    +0.000 C 
ATOM     21  O   UNL     1       1.913  12.454  19.431  0.00  0.00    +0.000 OA
BRANCH  18  25
ATOM     22  C   UNL     1      -4.431  11.474  18.130  0.00  0.00    +0.000 A 
ATOM     23  C   UNL     1      -4.066  11.995  19.364  0.00  0.00    +0.000 A 
ATOM     24  C   UNL     1      -2.738  12.385  19.644  0.00  0.00    +0.000 A 
ATOM     25  C   UNL     1      -1.703  12.203  18.718  0.00  0.00    +0.000 A 
ATOM     26  C   UNL     1      -2.099  11.637  17.485  0.00  0.00    +0.000 A 
ATOM     27  C   UNL     1      -3.441  11.291  17.178  0.00  0.00    +0.000 A 
BRANCH  22  29
ATOM     28  C   UNL     1      -6.646  12.202  17.655  0.00  0.00    +0.000 C 
ATOM     29  O   UNL     1      -5.752  11.150  18.002  0.00  0.00    +0.000 OA
ENDBRANCH  22  29
ENDBRANCH  18  25
ENDBRANCH  17  20
ENDBRANCH   1  17
TORSDOF 5
ENDMDL
MODEL 5
REMARK VINA RESULT:      -7.5      0.665      1.109
REMARK  Name = 
REMARK  7 active torsions:
REMARK  status: ('A' for Active; 'I' for Inactive)
REMARK    1  A    between atoms: C_1  and  O_2
REMARK    2  A    between atoms: O_2  and  C_3
REMARK    3  A    between atoms: C_6  and  N_7
REMARK    4  A    between atoms: N_7  and  C_8
REMARK    5  A    between atoms: C_9  and  C_11
REMARK    6  A    between atoms: C_11  and  N_12
REMARK    7  A    between atoms: C_19  and  C_20
REMARK                            x       y       z     vdW  Elec       q    Type
REMARK                         _______ _______ _______ _____ _____    ______ ____
ROOT
ATOM      1  N   UNL     1       1.050   9.463  19.619  0.00  0.00    +0.000 N 
ATOM      2  C   UNL     1       0.293   9.073  20.732  0.00  0.00    +0.000 A 
ATOM      3  O   UNL     1      -0.677   9.669  21.185  0.00  0.00    +0.000 OA
ATOM      4  O   UNL     1       0.760   7.907  21.297  0.00  0.00    +0.000 OA
ATOM      5  C   UNL     1       1.679   7.495  20.355  0.00  0.00    +0.000 A 
ATOM      6  C   UNL     1       2.313   6.284  20.503  0.00  0.00    +0.000 A 
ATOM      7  C   UNL     1       3.102   5.853  19.454  0.00  0.00    +0.000 A 
ATOM      8  C   UNL     1       3.284   6.622  18.270  0.00  0.00    +0.000 A 
ATOM      9  C   UNL     1       2.644   7.921  18.200  0.00  0.00    +0.000 A 
ATOM     10  C   UNL     1       1.843   8.356  19.272  0.00  0.00    +0.000 A 
ENDROOT
BRANCH   8  11
ATOM     11  C   UNL     1       4.087   5.942  17.196  0.00  0.00    +0.000 A 
ATOM     12  C   UNL     1       4.161   4.556  17.023  0.00  0.00    +0.000 A 
ATOM     13  C   UNL     1       5.101   3.989  16.139  0.00  0.00    +0.000 A 
ATOM     14  C   UNL     1       5.955   4.820  15.432  0.00  0.00    +0.000 A 
ATOM     15  N   UNL     1       5.919   6.157  15.539  0.00  0.00    +0.000 NA
ATOM     16  C   UNL     1       4.999   6.670  16.402  0.00  0.00    +0.000 A 
ENDBRANCH   8  11
BRANCH   1  17
ATOM     17  C   UNL     1       0.683  10.746  19.050  0.00  0.00    +0.000 C 
BRANCH  17  20
ATOM     18  N   UNL     1       0.275  13.104  20.075  0.00  0.00    +0.000 N 
ATOM     19  C   UNL     1       0.702  14.504  19.895  0.00  0.00    +0.000 C 
ATOM     20  C   UNL     1       1.123  12.174  19.417  0.00  0.00    +0.000 C 
ATOM     21  O   UNL     1       2.222  12.535  18.965  0.00  0.00    +0.000 OA
BRANCH  18  25
ATOM     22  C   UNL     1      -3.388  12.637  22.350  0.00  0.00    +0.000 A 
ATOM     23  C   UNL     1      -2.155  12.729  22.981  0.00  0.00    +0.000 A 
ATOM     24  C   UNL     1      -0.956  12.883  22.252  0.00  0.00    +0.000 A 
ATOM     25  C   UNL     1      -0.935  12.880  20.852  0.00  0.00    +0.000 A 
ATOM     26  C   UNL     1      -2.202  12.747  20.238  0.00  0.00    +0.000 A 
ATOM     27  C   UNL     1      -3.417  12.645  20.964  0.00  0.00    +0.000 A 
BRANCH  22  29
ATOM     28  C   UNL     1      -4.210  12.587  24.582  0.00  0.00    +0.000 C 
ATOM     29  O   UNL     1      -4.462  12.501  23.184  0.00  0.00    +0.000 OA
ENDBRANCH  22  29
ENDBRANCH  18  25
ENDBRANCH  17  20
ENDBRANCH   1  17
TORSDOF 5
ENDMDL
MODEL 6
REMARK VINA RESULT:      -7.5      1.544      1.843
REMARK  Name = 
REMARK  7 active torsions:
REMARK  status: ('A' for Active; 'I' for Inactive)
REMARK    1  A    between atoms: C_1  and  O_2
REMARK    2  A    between atoms: O_2  and  C_3
REMARK    3  A    between atoms: C_6  and  N_7
REMARK    4  A    between atoms: N_7  and  C_8
REMARK    5  A    between atoms: C_9  and  C_11
REMARK    6  A    between atoms: C_11  and  N_12
REMARK    7  A    between atoms: C_19  and  C_20
REMARK                            x       y       z     vdW  Elec       q    Type
REMARK                         _______ _______ _______ _____ _____    ______ ____
ROOT
ATOM      1  N   UNL     1       1.471   8.619  19.773  0.00  0.00    +0.000 N 
ATOM      2  C   UNL     1       0.744   8.079  20.841  0.00  0.00    +0.000 A 
ATOM      3  O   UNL     1      -0.221   8.599  21.389  0.00  0.00    +0.000 OA
ATOM      4  O   UNL     1       1.235   6.855  21.239  0.00  0.00    +0.000 OA
ATOM      5  C   UNL     1       2.135   6.580  20.232  0.00  0.00    +0.000 A 
ATOM      6  C   UNL     1       2.783   5.367  20.206  0.00  0.00    +0.000 A 
ATOM      7  C   UNL     1       3.551   5.086  19.093  0.00  0.00    +0.000 A 
ATOM      8  C   UNL     1       3.698   6.004  18.016  0.00  0.00    +0.000 A 
ATOM      9  C   UNL     1       3.045   7.294  18.129  0.00  0.00    +0.000 A 
ATOM     10  C   UNL     1       2.266   7.576  19.267  0.00  0.00    +0.000 A 
ENDROOT
BRANCH   8  11
ATOM     11  C   UNL     1       4.482   5.480  16.844  0.00  0.00    +0.000 A 
ATOM     12  C   UNL     1       4.739   4.125  16.610  0.00  0.00    +0.000 A 
ATOM     13  C   UNL     1       5.659   3.727  15.619  0.00  0.00    +0.000 A 
ATOM     14  C   UNL     1       6.310   4.693  14.871  0.00  0.00    +0.000 A 
ATOM     15  N   UNL     1       6.092   6.008  15.034  0.00  0.00    +0.000 NA
ATOM     16  C   UNL     1       5.197   6.356  15.999  0.00  0.00    +0.000 A 
ENDBRANCH   8  11
BRANCH   1  17
ATOM     17  C   UNL     1       1.080   9.960  19.384  0.00  0.00    +0.000 C 
BRANCH  17  20
ATOM     18  N   UNL     1      -1.127  11.343  19.402  0.00  0.00    +0.000 N 
ATOM     19  C   UNL     1      -2.476  11.325  18.808  0.00  0.00    +0.000 C 
ATOM     20  C   UNL     1      -0.212  10.485  18.734  0.00  0.00    +0.000 C 
ATOM     21  O   UNL     1      -0.503   9.990  17.633  0.00  0.00    +0.000 OA
BRANCH  18  25
ATOM     22  C   UNL     1      -0.760  13.900  22.886  0.00  0.00    +0.000 A 
ATOM     23  C   UNL     1      -0.298  14.307  21.642  0.00  0.00    +0.000 A 
ATOM     24  C   UNL     1      -0.413  13.484  20.499  0.00  0.00    +0.000 A 
ATOM     25  C   UNL     1      -0.934  12.186  20.572  0.00  0.00    +0.000 A 
ATOM     26  C   UNL     1      -1.361  11.787  21.859  0.00  0.00    +0.000 A 
ATOM     27  C   UNL     1      -1.297  12.627  23.000  0.00  0.00    +0.000 A 
BRANCH  22  29
ATOM     28  C   UNL     1      -1.722  15.083  24.712  0.00  0.00    +0.000 C 
ATOM     29  O   UNL     1      -0.590  14.804  23.896  0.00  0.00    +0.000 OA
ENDBRANCH  22  29
ENDBRANCH  18  25
ENDBRANCH  17  20
ENDBRANCH   1  17
TORSDOF 5
ENDMDL
MODEL 7
REMARK VINA RESULT:      -7.5      2.663      9.641
REMARK  Name = 
REMARK  7 active torsions:
REMARK  status: ('A' for Active; 'I' for Inactive)
REMARK    1  A    between atoms: C_1  and  O_2
REMARK    2  A    between atoms: O_2  and  C_3
REMARK    3  A    between atoms: C_6  and  N_7
REMARK    4  A    between atoms: N_7  and  C_8
REMARK    5  A    between atoms: C_9  and  C_11
REMARK    6  A    between atoms: C_11  and  N_12
REMARK    7  A    between atoms: C_19  and  C_20
REMARK                            x       y       z     vdW  Elec       q    Type
REMARK                         _______ _______ _______ _____ _____    ______ ____
ROOT
ATOM      1  N   UNL     1       2.114   7.976  19.403  0.00  0.00    +0.000 N 
ATOM      2  C   UNL     1       2.426   8.006  18.038  0.00  0.00    +0.000 A 
ATOM      3  O   UNL     1       2.905   7.083  17.390  0.00  0.00    +0.000 OA
ATOM      4  O   UNL     1       2.136   9.224  17.464  0.00  0.00    +0.000 OA
ATOM      5  C   UNL     1       1.434   9.843  18.477  0.00  0.00    +0.000 A 
ATOM      6  C   UNL     1       0.866  11.077  18.260  0.00  0.00    +0.000 A 
ATOM      7  C   UNL     1       0.045  11.576  19.252  0.00  0.00    +0.000 A 
ATOM      8  C   UNL     1      -0.200  10.873  20.465  0.00  0.00    +0.000 A 
ATOM      9  C   UNL     1       0.479   9.608  20.666  0.00  0.00    +0.000 A 
ATOM     10  C   UNL     1       1.316   9.105  19.653  0.00  0.00    +0.000 A 
ENDROOT
BRANCH   8  11
ATOM     11  C   UNL     1      -1.205  11.523  21.377  0.00  0.00    +0.000 A 
ATOM     12  C   UNL     1      -1.313  11.258  22.746  0.00  0.00    +0.000 A 
ATOM     13  C   UNL     1      -2.412  11.737  23.488  0.00  0.00    +0.000 A 
ATOM     14  C   UNL     1      -3.390  12.479  22.849  0.00  0.00    +0.000 A 
ATOM     15  N   UNL     1      -3.333  12.783  21.542  0.00  0.00    +0.000 NA
ATOM     16  C   UNL     1      -2.258  12.305  20.858  0.00  0.00    +0.000 A 
ENDBRANCH   8  11
BRANCH   1  17
ATOM     17  C   UNL     1       2.506   6.761  20.092  0.00  0.00    +0.000 C 
BRANCH  17  20
ATOM     18  N   UNL     1       2.474   4.362  19.082  0.00  0.00    +0.000 N 
ATOM     19  C   UNL     1       1.531   3.261  18.815  0.00  0.00    +0.000 C 
ATOM     20  C   UNL     1       1.963   5.325  19.992  0.00  0.00    +0.000 C 
ATOM     21  O   UNL     1       0.936   5.088  20.648  0.00  0.00    +0.000 OA
BRANCH  18  25
ATOM     22  C   UNL     1       6.253   4.465  16.956  0.00  0.00    +0.000 A 
ATOM     23  C   UNL     1       5.089   4.034  16.335  0.00  0.00    +0.000 A 
ATOM     24  C   UNL     1       3.852   3.997  17.015  0.00  0.00    +0.000 A 
ATOM     25  C   UNL     1       3.744   4.325  18.373  0.00  0.00    +0.000 A 
ATOM     26  C   UNL     1       4.953   4.725  18.987  0.00  0.00    +0.000 A 
ATOM     27  C   UNL     1       6.190   4.814  18.296  0.00  0.00    +0.000 A 
BRANCH  22  29
ATOM     28  C   UNL     1       7.198   4.770  14.794  0.00  0.00    +0.000 C 
ATOM     29  O   UNL     1       7.371   4.456  16.171  0.00  0.00    +0.000 OA
ENDBRANCH  22  29
ENDBRANCH  18  25
ENDBRANCH  17  20
ENDBRANCH   1  17
TORSDOF 5
ENDMDL
MODEL 8
REMARK VINA RESULT:      -7.4      1.814      2.594
REMARK  Name = 
REMARK  7 active torsions:
REMARK  status: ('A' for Active; 'I' for Inactive)
REMARK    1  A    between atoms: C_1  and  O_2
REMARK    2  A    between atoms: O_2  and  C_3
REMARK    3  A    between atoms: C_6  and  N_7
REMARK    4  A    between atoms: N_7  and  C_8
REMARK    5  A    between atoms: C_9  and  C_11
REMARK    6  A    between atoms: C_11  and  N_12
REMARK    7  A    between atoms: C_19  and  C_20
REMARK                            x       y       z     vdW  Elec       q    Type
REMARK                         _______ _______ _______ _____ _____    ______ ____
ROOT
ATOM      1  N   UNL     1       2.559   6.911  19.576  0.00  0.00    +0.000 N 
ATOM      2  C   UNL     1       1.951   6.034  20.483  0.00  0.00    +0.000 A 
ATOM      3  O   UNL     1       0.992   6.293  21.200  0.00  0.00    +0.000 OA
ATOM      4  O   UNL     1       2.558   4.798  20.498  0.00  0.00    +0.000 OA
ATOM      5  C   UNL     1       3.402   4.894  19.411  0.00  0.00    +0.000 A 
ATOM      6  C   UNL     1       4.135   3.799  19.015  0.00  0.00    +0.000 A 
ATOM      7  C   UNL     1       4.840   3.907  17.832  0.00  0.00    +0.000 A 
ATOM      8  C   UNL     1       4.841   5.096  17.051  0.00  0.00    +0.000 A 
ATOM      9  C   UNL     1       4.105   6.240  17.553  0.00  0.00    +0.000 A 
ATOM     10  C   UNL     1       3.390   6.125  18.760  0.00  0.00    +0.000 A 
ENDROOT
BRANCH   8  11
ATOM     11  C   UNL     1       5.576   4.989  15.743  0.00  0.00    +0.000 A 
ATOM     12  C   UNL     1       5.187   4.162  14.685  0.00  0.00    +0.000 A 
ATOM     13  C   UNL     1       6.040   3.951  13.583  0.00  0.00    +0.000 A 
ATOM     14  C   UNL     1       7.276   4.575  13.552  0.00  0.00    +0.000 A 
ATOM     15  N   UNL     1       7.698   5.396  14.527  0.00  0.00    +0.000 NA
ATOM     16  C   UNL     1       6.848   5.577  15.575  0.00  0.00    +0.000 A 
ENDBRANCH   8  11
BRANCH   1  17
ATOM     17  C   UNL     1       2.042   8.267  19.598  0.00  0.00    +0.000 C 
BRANCH  17  20
ATOM     18  N   UNL     1       0.212   9.970  18.870  0.00  0.00    +0.000 N 
ATOM     19  C   UNL     1      -0.697  10.238  17.742  0.00  0.00    +0.000 C 
ATOM     20  C   UNL     1       1.255   9.063  18.543  0.00  0.00    +0.000 C 
ATOM     21  O   UNL     1       1.473   8.755  17.359  0.00  0.00    +0.000 OA
BRANCH  18  25
ATOM     22  C   UNL     1      -0.901  11.872  22.606  0.00  0.00    +0.000 A 
ATOM     23  C   UNL     1      -0.607  12.622  21.475  0.00  0.00    +0.000 A 
ATOM     24  C   UNL     1      -0.244  12.015  20.253  0.00  0.00    +0.000 A 
ATOM     25  C   UNL     1      -0.094  10.628  20.132  0.00  0.00    +0.000 A 
ATOM     26  C   UNL     1      -0.365   9.895  21.310  0.00  0.00    +0.000 A 
ATOM     27  C   UNL     1      -0.780  10.494  22.527  0.00  0.00    +0.000 A 
BRANCH  22  29
ATOM     28  C   UNL     1      -1.740  13.913  23.497  0.00  0.00    +0.000 C 
ATOM     29  O   UNL     1      -1.246  12.596  23.712  0.00  0.00    +0.000 OA
ENDBRANCH  22  29
ENDBRANCH  18  25
ENDBRANCH  17  20
ENDBRANCH   1  17
TORSDOF 5
ENDMDL
MODEL 9
REMARK VINA RESULT:      -7.4      0.730      1.013
REMARK  Name = 
REMARK  7 active torsions:
REMARK  status: ('A' for Active; 'I' for Inactive)
REMARK    1  A    between atoms: C_1  and  O_2
REMARK    2  A    between atoms: O_2  and  C_3
REMARK    3  A    between atoms: C_6  and  N_7
REMARK    4  A    between atoms: N_7  and  C_8
REMARK    5  A    between atoms: C_9  and  C_11
REMARK    6  A    between atoms: C_11  and  N_12
REMARK    7  A    between atoms: C_19  and  C_20
REMARK                            x       y       z     vdW  Elec       q    Type
REMARK                         _______ _______ _______ _____ _____    ______ ____
ROOT
ATOM      1  N   UNL     1       1.164   9.475  19.450  0.00  0.00    +0.000 N 
ATOM      2  C   UNL     1       0.344   9.114  20.527  0.00  0.00    +0.000 A 
ATOM      3  O   UNL     1      -0.645   9.726  20.914  0.00  0.00    +0.000 OA
ATOM      4  O   UNL     1       0.771   7.958  21.142  0.00  0.00    +0.000 OA
ATOM      5  C   UNL     1       1.737   7.520  20.260  0.00  0.00    +0.000 A 
ATOM      6  C   UNL     1       2.352   6.308  20.467  0.00  0.00    +0.000 A 
ATOM      7  C   UNL     1       3.193   5.849  19.472  0.00  0.00    +0.000 A 
ATOM      8  C   UNL     1       3.445   6.591  18.284  0.00  0.00    +0.000 A 
ATOM      9  C   UNL     1       2.820   7.893  18.152  0.00  0.00    +0.000 A 
ATOM     10  C   UNL     1       1.965   8.356  19.170  0.00  0.00    +0.000 A 
ENDROOT
BRANCH   8  11
ATOM     11  C   UNL     1       4.300   5.884  17.269  0.00  0.00    +0.000 A 
ATOM     12  C   UNL     1       4.950   6.519  16.206  0.00  0.00    +0.000 A 
ATOM     13  C   UNL     1       5.550   5.767  15.176  0.00  0.00    +0.000 A 
ATOM     14  C   UNL     1       5.496   4.385  15.225  0.00  0.00    +0.000 A 
ATOM     15  N   UNL     1       4.905   3.717  16.228  0.00  0.00    +0.000 NA
ATOM     16  C   UNL     1       4.336   4.475  17.206  0.00  0.00    +0.000 A 
ENDBRANCH   8  11
BRANCH   1  17
ATOM     17  C   UNL     1       0.838  10.748  18.835  0.00  0.00    +0.000 C 
BRANCH  17  20
ATOM     18  N   UNL     1       0.590  13.164  19.775  0.00  0.00    +0.000 N 
ATOM     19  C   UNL     1       1.070  14.532  19.514  0.00  0.00    +0.000 C 
ATOM     20  C   UNL     1       1.360  12.167  19.118  0.00  0.00    +0.000 C 
ATOM     21  O   UNL     1       2.451  12.456  18.598  0.00  0.00    +0.000 OA
BRANCH  18  25
ATOM     22  C   UNL     1      -2.874  12.562  22.315  0.00  0.00    +0.000 A 
ATOM     23  C   UNL     1      -3.004  12.702  20.941  0.00  0.00    +0.000 A 
ATOM     24  C   UNL     1      -1.885  12.897  20.102  0.00  0.00    +0.000 A 
ATOM     25  C   UNL     1      -0.589  13.030  20.617  0.00  0.00    +0.000 A 
ATOM     26  C   UNL     1      -0.493  12.920  22.024  0.00  0.00    +0.000 A 
ATOM     27  C   UNL     1      -1.607  12.672  22.867  0.00  0.00    +0.000 A 
BRANCH  22  29
ATOM     28  C   UNL     1      -4.004  12.532  24.409  0.00  0.00    +0.000 C 
ATOM     29  O   UNL     1      -4.043  12.369  22.996  0.00  0.00    +0.000 OA
ENDBRANCH  22  29
ENDBRANCH  18  25
ENDBRANCH  17  20
ENDBRANCH   1  17
TORSDOF 5
ENDMDL
