MODEL 1
REMARK VINA RESULT:      -7.8      0.000      0.000
REMARK  Name = 
REMARK  3 active torsions:
REMARK  status: ('A' for Active; 'I' for Inactive)
REMARK    1  A    between atoms: C_1  and  C_2
REMARK    2  A    between atoms: C_2  and  C_3
REMARK    3  A    between atoms: C_12  and  C_13
REMARK                            x       y       z     vdW  Elec       q    Type
REMARK                         _______ _______ _______ _____ _____    ______ ____
ROOT
ATOM      1  C   UNL     1       5.888   6.815  17.284  0.00  0.00    +0.000 C 
ATOM      2  C   UNL     1       5.774   5.303  17.078  0.00  0.00    +0.000 C 
ATOM      3  O   UNL     1       6.666   4.659  18.004  0.00  0.00    +0.000 OA
ATOM      4  N   UNL     1       5.852   4.106  19.013  0.00  0.00    +0.000 NA
ATOM      5  C   UNL     1       4.640   4.272  18.598  0.00  0.00    +0.000 C 
ATOM      6  O   UNL     1       4.453   4.911  17.428  0.00  0.00    +0.000 OA
ENDROOT
BRANCH   2   7
ATOM      7  C   UNL     1       6.124   4.919  15.643  0.00  0.00    +0.000 A 
ATOM      8  C   UNL     1       5.256   4.104  14.891  0.00  0.00    +0.000 A 
ATOM      9  C   UNL     1       5.568   3.737  13.577  0.00  0.00    +0.000 A 
ATOM     10  C   UNL     1       6.757   4.176  13.002  0.00  0.00    +0.000 A 
ATOM     11 CL   UNL     1       7.133   3.738  11.381  0.00  0.00    +0.000 Cl
ATOM     12  C   UNL     1       7.641   4.966  13.732  0.00  0.00    +0.000 A 
ATOM     13  C   UNL     1       7.328   5.332  15.046  0.00  0.00    +0.000 A 
ENDBRANCH   2   7
BRANCH   5  14
ATOM     14  C   UNL     1       3.425   3.941  19.349  0.00  0.00    +0.000 A 
ATOM     15  C   UNL     1       2.857   4.979  20.109  0.00  0.00    +0.000 A 
ATOM     16  C   UNL     1       1.680   4.770  20.830  0.00  0.00    +0.000 A 
ATOM     17  C   UNL     1       1.064   3.523  20.804  0.00  0.00    +0.000 A 
ATOM     18  C   UNL     1       1.630   2.483  20.064  0.00  0.00    +0.000 A 
ATOM     19  C   UNL     1       2.811   2.684  19.336  0.00  0.00    +0.000 A 
ATOM     20 CL   UNL     1       3.461   1.317  18.503  0.00  0.00    +0.000 Cl
ENDBRANCH   5  14
TORSDOF 2
ENDMDL
MODEL 2
REMARK VINA RESULT:      -7.8      0.150      1.089
REMARK  Name = 
REMARK  3 active torsions:
REMARK  status: ('A' for Active; 'I' for Inactive)
REMARK    1  A    between atoms: C_1  and  C_2
REMARK    2  A    between atoms: C_2  and  C_3
REMARK    3  A    between atoms: C_12  and  C_13
REMARK                            x       y       z     vdW  Elec       q    Type
REMARK                         _______ _______ _______ _____ _____    ______ ____
ROOT
ATOM      1  C   UNL     1       6.114   6.709  17.478  0.00  0.00    +0.000 C 
ATOM      2  C   UNL     1       5.883   5.222  17.199  0.00  0.00    +0.000 C 
ATOM      3  O   UNL     1       6.727   4.467  18.086  0.00  0.00    +0.000 OA
ATOM      4  N   UNL     1       5.879   3.928  19.074  0.00  0.00    +0.000 NA
ATOM      5  C   UNL     1       4.681   4.207  18.678  0.00  0.00    +0.000 C 
ATOM      6  O   UNL     1       4.538   4.915  17.541  0.00  0.00    +0.000 OA
ENDROOT
BRANCH   2   7
ATOM      7  C   UNL     1       6.195   4.883  15.744  0.00  0.00    +0.000 A 
ATOM      8  C   UNL     1       7.346   5.403  15.121  0.00  0.00    +0.000 A 
ATOM      9  C   UNL     1       7.640   5.107  13.786  0.00  0.00    +0.000 A 
ATOM     10  C   UNL     1       6.780   4.292  13.055  0.00  0.00    +0.000 A 
ATOM     11 CL   UNL     1       7.149   3.915  11.417  0.00  0.00    +0.000 Cl
ATOM     12  C   UNL     1       5.626   3.783  13.642  0.00  0.00    +0.000 A 
ATOM     13  C   UNL     1       5.333   4.079  14.979  0.00  0.00    +0.000 A 
ENDBRANCH   2   7
BRANCH   5  14
ATOM     14  C   UNL     1       3.448   3.933  19.422  0.00  0.00    +0.000 A 
ATOM     15  C   UNL     1       2.923   4.998  20.176  0.00  0.00    +0.000 A 
ATOM     16  C   UNL     1       1.733   4.845  20.890  0.00  0.00    +0.000 A 
ATOM     17  C   UNL     1       1.062   3.627  20.864  0.00  0.00    +0.000 A 
ATOM     18  C   UNL     1       1.585   2.559  20.131  0.00  0.00    +0.000 A 
ATOM     19  C   UNL     1       2.778   2.705  19.410  0.00  0.00    +0.000 A 
ATOM     20 CL   UNL     1       3.371   1.307  18.585  0.00  0.00    +0.000 Cl
ENDBRANCH   5  14
TORSDOF 2
ENDMDL
MODEL 3
REMARK VINA RESULT:      -7.7      1.155      1.291
REMARK  Name = 
REMARK  3 active torsions:
REMARK  status: ('A' for Active; 'I' for Inactive)
REMARK    1  A    between atoms: C_1  and  C_2
REMARK    2  A    between atoms: C_2  and  C_3
REMARK    3  A    between atoms: C_12  and  C_13
REMARK                            x       y       z     vdW  Elec       q    Type
REMARK                         _______ _______ _______ _____ _____    ______ ____
ROOT
ATOM      1  C   UNL     1       5.764   6.613  17.712  0.00  0.00    +0.000 C 
ATOM      2  C   UNL     1       5.647   5.115  17.422  0.00  0.00    +0.000 C 
ATOM      3  O   UNL     1       6.530   4.418  18.318  0.00  0.00    +0.000 OA
ATOM      4  N   UNL     1       5.708   3.813  19.290  0.00  0.00    +0.000 NA
ATOM      5  C   UNL     1       4.499   4.006  18.877  0.00  0.00    +0.000 C 
ATOM      6  O   UNL     1       4.322   4.710  17.742  0.00  0.00    +0.000 OA
ENDROOT
BRANCH   2   7
ATOM      7  C   UNL     1       6.004   4.809  15.971  0.00  0.00    +0.000 A 
ATOM      8  C   UNL     1       5.153   4.014  15.179  0.00  0.00    +0.000 A 
ATOM      9  C   UNL     1       5.472   3.719  13.849  0.00  0.00    +0.000 A 
ATOM     10  C   UNL     1       6.652   4.209  13.298  0.00  0.00    +0.000 A 
ATOM     11 CL   UNL     1       7.037   3.859  11.658  0.00  0.00    +0.000 Cl
ATOM     12  C   UNL     1       7.520   4.979  14.066  0.00  0.00    +0.000 A 
ATOM     13  C   UNL     1       7.200   5.275  15.397  0.00  0.00    +0.000 A 
ENDBRANCH   2   7
BRANCH   5  14
ATOM     14  C   UNL     1       3.278   3.640  19.601  0.00  0.00    +0.000 A 
ATOM     15  C   UNL     1       3.453   2.936  20.806  0.00  0.00    +0.000 A 
ATOM     16  C   UNL     1       2.352   2.574  21.585  0.00  0.00    +0.000 A 
ATOM     17  C   UNL     1       1.068   2.905  21.164  0.00  0.00    +0.000 A 
ATOM     18  C   UNL     1       0.885   3.590  19.961  0.00  0.00    +0.000 A 
ATOM     19  C   UNL     1       1.984   3.959  19.174  0.00  0.00    +0.000 A 
ATOM     20 CL   UNL     1       1.646   4.750  17.676  0.00  0.00    +0.000 Cl
ENDBRANCH   5  14
TORSDOF 2
ENDMDL
MODEL 4
REMARK VINA RESULT:      -7.7      1.276      1.972
REMARK  Name = 
REMARK  3 active torsions:
REMARK  status: ('A' for Active; 'I' for Inactive)
REMARK    1  A    between atoms: C_1  and  C_2
REMARK    2  A    between atoms: C_2  and  C_3
REMARK    3  A    between atoms: C_12  and  C_13
REMARK                            x       y       z     vdW  Elec       q    Type
REMARK                         _______ _______ _______ _____ _____    ______ ____
ROOT
ATOM      1  C   UNL     1       5.710   6.888  17.267  0.00  0.00    +0.000 C 
ATOM      2  C   UNL     1       5.628   5.367  17.127  0.00  0.00    +0.000 C 
ATOM      3  O   UNL     1       6.524   4.782  18.088  0.00  0.00    +0.000 OA
ATOM      4  N   UNL     1       5.713   4.257  19.115  0.00  0.00    +0.000 NA
ATOM      5  C   UNL     1       4.501   4.381  18.683  0.00  0.00    +0.000 C 
ATOM      6  O   UNL     1       4.312   4.964  17.484  0.00  0.00    +0.000 OA
ENDROOT
BRANCH   2   7
ATOM      7  C   UNL     1       5.997   4.927  15.713  0.00  0.00    +0.000 A 
ATOM      8  C   UNL     1       7.209   5.343  15.129  0.00  0.00    +0.000 A 
ATOM      9  C   UNL     1       7.556   4.954  13.831  0.00  0.00    +0.000 A 
ATOM     10  C   UNL     1       6.690   4.148  13.098  0.00  0.00    +0.000 A 
ATOM     11 CL   UNL     1       7.124   3.656  11.507  0.00  0.00    +0.000 Cl
ATOM     12  C   UNL     1       5.477   3.740  13.645  0.00  0.00    +0.000 A 
ATOM     13  C   UNL     1       5.130   4.130  14.944  0.00  0.00    +0.000 A 
ENDBRANCH   2   7
BRANCH   5  14
ATOM     14  C   UNL     1       3.287   4.059  19.439  0.00  0.00    +0.000 A 
ATOM     15  C   UNL     1       3.041   2.696  19.678  0.00  0.00    +0.000 A 
ATOM     16  C   UNL     1       1.929   2.293  20.419  0.00  0.00    +0.000 A 
ATOM     17  C   UNL     1       1.050   3.246  20.922  0.00  0.00    +0.000 A 
ATOM     18  C   UNL     1       1.278   4.602  20.676  0.00  0.00    +0.000 A 
ATOM     19  C   UNL     1       2.392   5.015  19.934  0.00  0.00    +0.000 A 
ATOM     20 CL   UNL     1       2.551   6.710  19.636  0.00  0.00    +0.000 Cl
ENDBRANCH   5  14
TORSDOF 2
ENDMDL
MODEL 5
REMARK VINA RESULT:      -7.5      3.699      7.006
REMARK  Name = 
REMARK  3 active torsions:
REMARK  status: ('A' for Active; 'I' for Inactive)
REMARK    1  A    between atoms: C_1  and  C_2
REMARK    2  A    between atoms: C_2  and  C_3
REMARK    3  A    between atoms: C_12  and  C_13
REMARK                            x       y       z     vdW  Elec       q    Type
REMARK                         _______ _______ _______ _____ _____    ______ ____
ROOT
ATOM      1  C   UNL     1       1.883   4.745  18.916  0.00  0.00    +0.000 C 
ATOM      2  C   UNL     1       2.883   5.902  18.892  0.00  0.00    +0.000 C 
ATOM      3  O   UNL     1       3.919   5.614  19.848  0.00  0.00    +0.000 OA
ATOM      4  N   UNL     1       5.054   5.241  19.100  0.00  0.00    +0.000 NA
ATOM      5  C   UNL     1       4.734   5.468  17.868  0.00  0.00    +0.000 C 
ATOM      6  O   UNL     1       3.495   5.927  17.609  0.00  0.00    +0.000 OA
ENDROOT
BRANCH   2   7
ATOM      7  C   UNL     1       2.199   7.224  19.226  0.00  0.00    +0.000 A 
ATOM      8  C   UNL     1       2.051   8.220  18.240  0.00  0.00    +0.000 A 
ATOM      9  C   UNL     1       1.432   9.440  18.534  0.00  0.00    +0.000 A 
ATOM     10  C   UNL     1       0.961   9.682  19.821  0.00  0.00    +0.000 A 
ATOM     11 CL   UNL     1       0.187  11.176  20.179  0.00  0.00    +0.000 Cl
ATOM     12  C   UNL     1       1.114   8.722  20.818  0.00  0.00    +0.000 A 
ATOM     13  C   UNL     1       1.733   7.501  20.523  0.00  0.00    +0.000 A 
ENDBRANCH   2   7
BRANCH   5  14
ATOM     14  C   UNL     1       5.558   5.150  16.698  0.00  0.00    +0.000 A 
ATOM     15  C   UNL     1       5.060   4.161  15.832  0.00  0.00    +0.000 A 
ATOM     16  C   UNL     1       5.756   3.814  14.673  0.00  0.00    +0.000 A 
ATOM     17  C   UNL     1       6.957   4.446  14.372  0.00  0.00    +0.000 A 
ATOM     18  C   UNL     1       7.467   5.419  15.234  0.00  0.00    +0.000 A 
ATOM     19  C   UNL     1       6.775   5.774  16.399  0.00  0.00    +0.000 A 
ATOM     20 CL   UNL     1       7.520   6.944  17.429  0.00  0.00    +0.000 Cl
ENDBRANCH   5  14
TORSDOF 2
ENDMDL
MODEL 6
REMARK VINA RESULT:      -7.5      3.714      6.982
REMARK  Name = 
REMARK  3 active torsions:
REMARK  status: ('A' for Active; 'I' for Inactive)
REMARK    1  A    between atoms: C_1  and  C_2
REMARK    2  A    between atoms: C_2  and  C_3
REMARK    3  A    between atoms: C_12  and  C_13
REMARK                            x       y       z     vdW  Elec       q    Type
REMARK                         _______ _______ _______ _____ _____    ______ ____
ROOT
ATOM      1  C   UNL     1       1.859   4.795  18.900  0.00  0.00    +0.000 C 
ATOM      2  C   UNL     1       2.873   5.940  18.855  0.00  0.00    +0.000 C 
ATOM      3  O   UNL     1       3.911   5.653  19.808  0.00  0.00    +0.000 OA
ATOM      4  N   UNL     1       5.037   5.257  19.058  0.00  0.00    +0.000 NA
ATOM      5  C   UNL     1       4.713   5.470  17.825  0.00  0.00    +0.000 C 
ATOM      6  O   UNL     1       3.477   5.940  17.567  0.00  0.00    +0.000 OA
ENDROOT
BRANCH   2   7
ATOM      7  C   UNL     1       2.206   7.274  19.174  0.00  0.00    +0.000 A 
ATOM      8  C   UNL     1       1.724   7.540  20.470  0.00  0.00    +0.000 A 
ATOM      9  C   UNL     1       1.104   8.756  20.775  0.00  0.00    +0.000 A 
ATOM     10  C   UNL     1       0.950   9.719  19.782  0.00  0.00    +0.000 A 
ATOM     11 CL   UNL     1       0.200  11.221  20.160  0.00  0.00    +0.000 Cl
ATOM     12  C   UNL     1       1.399   9.473  18.488  0.00  0.00    +0.000 A 
ATOM     13  C   UNL     1       2.020   8.256  18.184  0.00  0.00    +0.000 A 
ENDBRANCH   2   7
BRANCH   5  14
ATOM     14  C   UNL     1       5.526   5.126  16.655  0.00  0.00    +0.000 A 
ATOM     15  C   UNL     1       4.981   4.178  15.771  0.00  0.00    +0.000 A 
ATOM     16  C   UNL     1       5.664   3.813  14.610  0.00  0.00    +0.000 A 
ATOM     17  C   UNL     1       6.900   4.385  14.325  0.00  0.00    +0.000 A 
ATOM     18  C   UNL     1       7.455   5.316  15.205  0.00  0.00    +0.000 A 
ATOM     19  C   UNL     1       6.775   5.690  16.372  0.00  0.00    +0.000 A 
ATOM     20 CL   UNL     1       7.575   6.803  17.424  0.00  0.00    +0.000 Cl
ENDBRANCH   5  14
TORSDOF 2
ENDMDL
MODEL 7
REMARK VINA RESULT:      -6.9      2.627      3.421
REMARK  Name = 
REMARK  3 active torsions:
REMARK  status: ('A' for Active; 'I' for Inactive)
REMARK    1  A    between atoms: C_1  and  C_2
REMARK    2  A    between atoms: C_2  and  C_3
REMARK    3  A    between atoms: C_12  and  C_13
REMARK                            x       y       z     vdW  Elec       q    Type
REMARK                         _______ _______ _______ _____ _____    ______ ____
ROOT
ATOM      1  C   UNL     1       6.084   4.592  18.411  0.00  0.00    +0.000 C 
ATOM      2  C   UNL     1       5.037   4.871  17.331  0.00  0.00    +0.000 C 
ATOM      3  O   UNL     1       3.938   3.965  17.531  0.00  0.00    +0.000 OA
ATOM      4  N   UNL     1       2.889   4.732  18.079  0.00  0.00    +0.000 NA
ATOM      5  C   UNL     1       3.301   5.955  18.022  0.00  0.00    +0.000 C 
ATOM      6  O   UNL     1       4.536   6.186  17.536  0.00  0.00    +0.000 OA
ENDROOT
BRANCH   2   7
ATOM      7  C   UNL     1       5.629   4.696  15.936  0.00  0.00    +0.000 A 
ATOM      8  C   UNL     1       6.910   5.198  15.636  0.00  0.00    +0.000 A 
ATOM      9  C   UNL     1       7.462   5.051  14.359  0.00  0.00    +0.000 A 
ATOM     10  C   UNL     1       6.734   4.406  13.363  0.00  0.00    +0.000 A 
ATOM     11 CL   UNL     1       7.419   4.212  11.797  0.00  0.00    +0.000 Cl
ATOM     12  C   UNL     1       5.458   3.920  13.629  0.00  0.00    +0.000 A 
ATOM     13  C   UNL     1       4.906   4.067  14.908  0.00  0.00    +0.000 A 
ENDBRANCH   2   7
BRANCH   5  14
ATOM     14  C   UNL     1       2.595   7.122  18.561  0.00  0.00    +0.000 A 
ATOM     15  C   UNL     1       2.506   8.244  17.719  0.00  0.00    +0.000 A 
ATOM     16  C   UNL     1       1.822   9.389  18.130  0.00  0.00    +0.000 A 
ATOM     17  C   UNL     1       1.228   9.427  19.387  0.00  0.00    +0.000 A 
ATOM     18  C   UNL     1       1.324   8.322  20.236  0.00  0.00    +0.000 A 
ATOM     19  C   UNL     1       2.008   7.168  19.831  0.00  0.00    +0.000 A 
ATOM     20 CL   UNL     1       2.121   5.881  20.977  0.00  0.00    +0.000 Cl
ENDBRANCH   5  14
TORSDOF 2
ENDMDL
MODEL 8
REMARK VINA RESULT:      -6.9      1.105      1.390
REMARK  Name = 
REMARK  3 active torsions:
REMARK  status: ('A' for Active; 'I' for Inactive)
REMARK    1  A    between atoms: C_1  and  C_2
REMARK    2  A    between atoms: C_2  and  C_3
REMARK    3  A    between atoms: C_12  and  C_13
REMARK                            x       y       z     vdW  Elec       q    Type
REMARK                         _______ _______ _______ _____ _____    ______ ____
ROOT
ATOM      1  C   UNL     1       7.347   6.427  17.790  0.00  0.00    +0.000 C 
ATOM      2  C   UNL     1       6.415   5.271  17.419  0.00  0.00    +0.000 C 
ATOM      3  O   UNL     1       6.744   4.148  18.255  0.00  0.00    +0.000 OA
ATOM      4  N   UNL     1       5.711   4.051  19.209  0.00  0.00    +0.000 NA
ATOM      5  C   UNL     1       4.824   4.912  18.834  0.00  0.00    +0.000 C 
ATOM      6  O   UNL     1       5.086   5.658  17.745  0.00  0.00    +0.000 OA
ENDROOT
BRANCH   2   7
ATOM      7  C   UNL     1       6.559   4.903  15.945  0.00  0.00    +0.000 A 
ATOM      8  C   UNL     1       5.719   3.931  15.367  0.00  0.00    +0.000 A 
ATOM      9  C   UNL     1       5.846   3.578  14.019  0.00  0.00    +0.000 A 
ATOM     10  C   UNL     1       6.820   4.189  13.235  0.00  0.00    +0.000 A 
ATOM     11 CL   UNL     1       6.965   3.766  11.573  0.00  0.00    +0.000 Cl
ATOM     12  C   UNL     1       7.675   5.137  13.788  0.00  0.00    +0.000 A 
ATOM     13  C   UNL     1       7.548   5.490  15.137  0.00  0.00    +0.000 A 
ENDBRANCH   2   7
BRANCH   5  14
ATOM     14  C   UNL     1       3.597   5.249  19.563  0.00  0.00    +0.000 A 
ATOM     15  C   UNL     1       3.177   6.589  19.494  0.00  0.00    +0.000 A 
ATOM     16  C   UNL     1       2.001   6.998  20.126  0.00  0.00    +0.000 A 
ATOM     17  C   UNL     1       1.240   6.077  20.837  0.00  0.00    +0.000 A 
ATOM     18  C   UNL     1       1.658   4.747  20.923  0.00  0.00    +0.000 A 
ATOM     19  C   UNL     1       2.836   4.327  20.291  0.00  0.00    +0.000 A 
ATOM     20 CL   UNL     1       3.297   2.676  20.508  0.00  0.00    +0.000 Cl
ENDBRANCH   5  14
TORSDOF 2
ENDMDL
MODEL 9
REMARK VINA RESULT:      -6.8      1.953      6.890
REMARK  Name = 
REMARK  3 active torsions:
REMARK  status: ('A' for Active; 'I' for Inactive)
REMARK    1  A    between atoms: C_1  and  C_2
REMARK    2  A    between atoms: C_2  and  C_3
REMARK    3  A    between atoms: C_12  and  C_13
REMARK                            x       y       z     vdW  Elec       q    Type
REMARK                         _______ _______ _______ _____ _____    ______ ____
ROOT
ATOM      1  C   UNL     1       6.916   5.000  17.851  0.00  0.00    +0.000 C 
ATOM      2  C   UNL     1       5.572   4.996  17.119  0.00  0.00    +0.000 C 
ATOM      3  O   UNL     1       5.359   6.308  16.572  0.00  0.00    +0.000 OA
ATOM      4  N   UNL     1       5.579   6.197  15.184  0.00  0.00    +0.000 NA
ATOM      5  C   UNL     1       5.722   4.931  14.966  0.00  0.00    +0.000 C 
ATOM      6  O   UNL     1       5.673   4.097  16.022  0.00  0.00    +0.000 OA
ENDROOT
BRANCH   2   7
ATOM      7  C   UNL     1       4.435   4.618  18.065  0.00  0.00    +0.000 A 
ATOM      8  C   UNL     1       4.636   3.659  19.076  0.00  0.00    +0.000 A 
ATOM      9  C   UNL     1       3.600   3.298  19.944  0.00  0.00    +0.000 A 
ATOM     10  C   UNL     1       2.347   3.888  19.806  0.00  0.00    +0.000 A 
ATOM     11 CL   UNL     1       1.078   3.455  20.884  0.00  0.00    +0.000 Cl
ATOM     12  C   UNL     1       2.118   4.824  18.802  0.00  0.00    +0.000 A 
ATOM     13  C   UNL     1       3.155   5.185  17.934  0.00  0.00    +0.000 A 
ENDBRANCH   2   7
BRANCH   5  14
ATOM     14  C   UNL     1       6.065   4.318  13.679  0.00  0.00    +0.000 A 
ATOM     15  C   UNL     1       5.171   3.349  13.190  0.00  0.00    +0.000 A 
ATOM     16  C   UNL     1       5.394   2.735  11.956  0.00  0.00    +0.000 A 
ATOM     17  C   UNL     1       6.512   3.077  11.204  0.00  0.00    +0.000 A 
ATOM     18  C   UNL     1       7.413   4.028  11.690  0.00  0.00    +0.000 A 
ATOM     19  C   UNL     1       7.197   4.650  12.926  0.00  0.00    +0.000 A 
ATOM     20 CL   UNL     1       8.401   5.767  13.463  0.00  0.00    +0.000 Cl
ENDBRANCH   5  14
TORSDOF 2
ENDMDL
