MODEL 1
REMARK VINA RESULT:      -7.2      0.000      0.000
REMARK  Name = 
REMARK  9 active torsions:
REMARK  status: ('A' for Active; 'I' for Inactive)
REMARK    1  A    between atoms: C_2  and  C_3
REMARK    2  A    between atoms: C_3  and  S_4
REMARK    3  A    between atoms: N_5  and  C_6
REMARK    4  A    between atoms: C_6  and  C_7
REMARK    5  A    between atoms: C_7  and  C_8
REMARK    6  A    between atoms: C_8  and  C_9
REMARK    7  A    between atoms: C_9  and  C_10
REMARK    8  A    between atoms: C_10  and  C_11
REMARK    9  A    between atoms: N_13  and  C_14
REMARK                            x       y       z     vdW  Elec       q    Type
REMARK                         _______ _______ _______ _____ _____    ______ ____
ROOT
ATOM      1  C   UNL     1       7.225   6.013  18.854  0.00  0.00    +0.000 C 
ATOM      2  O   UNL     1       7.477   5.156  19.698  0.00  0.00    +0.000 OA
ATOM      3  N   UNL     1       6.085   6.067  18.070  0.00  0.00    +0.000 N 
ATOM      4  H   UNL     1       6.082   6.712  17.289  0.00  0.00    +0.000 HD
ENDROOT
BRANCH   3   5
ATOM      5  C   UNL     1       4.990   5.182  18.186  0.00  0.00    +0.000 A 
ATOM      6  C   UNL     1       4.655   4.233  17.226  0.00  0.00    +0.000 A 
ATOM      7  N   UNL     1       3.579   3.412  17.293  0.00  0.00    +0.000 NA
ATOM      8  C   UNL     1       2.770   3.530  18.351  0.00  0.00    +0.000 A 
ATOM      9  C   UNL     1       1.631   2.742  18.403  0.00  0.00    +0.000 A 
ATOM     10  C   UNL     1       0.733   2.826  19.469  0.00  0.00    +0.000 A 
ATOM     11  C   UNL     1       0.983   3.708  20.512  0.00  0.00    +0.000 A 
ATOM     12  C   UNL     1       2.128   4.505  20.488  0.00  0.00    +0.000 A 
ATOM     13  C   UNL     1       3.027   4.434  19.406  0.00  0.00    +0.000 A 
ATOM     14  C   UNL     1       4.173   5.248  19.316  0.00  0.00    +0.000 A 
ENDBRANCH   3   5
BRANCH   1  15
ATOM     15  C   UNL     1       8.237   7.093  18.556  0.00  0.00    +0.000 C 
BRANCH  15  16
ATOM     16  C   UNL     1       7.665   8.112  17.575  0.00  0.00    +0.000 C 
BRANCH  16  17
ATOM     17  C   UNL     1       8.230   9.520  17.766  0.00  0.00    +0.000 C 
BRANCH  17  18
ATOM     18  C   UNL     1       8.960   9.715  19.100  0.00  0.00    +0.000 C 
BRANCH  18  19
ATOM     19  C   UNL     1       9.959  10.868  19.017  0.00  0.00    +0.000 C 
BRANCH  19  22
ATOM     20  O   UNL     1      10.500  12.983  17.210  0.00  0.00    +0.000 OA
ATOM     21  C   UNL     1       9.604  13.119  18.040  0.00  0.00    +0.000 C 
ATOM     22  N   UNL     1       9.298  12.153  18.974  0.00  0.00    +0.000 N 
ATOM     23  H   UNL     1       8.474  12.304  19.549  0.00  0.00    +0.000 HD
BRANCH  21  24
ATOM     24  C   UNL     1       8.820  14.419  18.160  0.00  0.00    +0.000 C 
BRANCH  24  25
ATOM     25  S   UNL     1       9.766  15.732  18.994  0.00  0.00    +0.000 S 
ATOM     26  H   UNL     1       9.968  15.061  20.137  0.00  0.00    +0.000 HD
ENDBRANCH  24  25
ENDBRANCH  21  24
ENDBRANCH  19  22
ENDBRANCH  18  19
ENDBRANCH  17  18
ENDBRANCH  16  17
ENDBRANCH  15  16
ENDBRANCH   1  15
TORSDOF 9
ENDMDL
MODEL 2
REMARK VINA RESULT:      -7.0      1.077      1.126
REMARK  Name = 
REMARK  9 active torsions:
REMARK  status: ('A' for Active; 'I' for Inactive)
REMARK    1  A    between atoms: C_2  and  C_3
REMARK    2  A    between atoms: C_3  and  S_4
REMARK    3  A    between atoms: N_5  and  C_6
REMARK    4  A    between atoms: C_6  and  C_7
REMARK    5  A    between atoms: C_7  and  C_8
REMARK    6  A    between atoms: C_8  and  C_9
REMARK    7  A    between atoms: C_9  and  C_10
REMARK    8  A    between atoms: C_10  and  C_11
REMARK    9  A    between atoms: N_13  and  C_14
REMARK                            x       y       z     vdW  Elec       q    Type
REMARK                         _______ _______ _______ _____ _____    ______ ____
ROOT
ATOM      1  C   UNL     1       6.926   6.588  17.610  0.00  0.00    +0.000 C 
ATOM      2  O   UNL     1       7.516   5.580  17.989  0.00  0.00    +0.000 OA
ATOM      3  N   UNL     1       5.560   6.702  17.415  0.00  0.00    +0.000 N 
ATOM      4  H   UNL     1       5.221   7.522  16.927  0.00  0.00    +0.000 HD
ENDROOT
BRANCH   3   5
ATOM      5  C   UNL     1       4.621   5.689  17.711  0.00  0.00    +0.000 A 
ATOM      6  C   UNL     1       4.379   4.593  16.889  0.00  0.00    +0.000 A 
ATOM      7  N   UNL     1       3.446   3.639  17.129  0.00  0.00    +0.000 NA
ATOM      8  C   UNL     1       2.692   3.766  18.225  0.00  0.00    +0.000 A 
ATOM      9  C   UNL     1       1.692   2.833  18.451  0.00  0.00    +0.000 A 
ATOM     10  C   UNL     1       0.855   2.915  19.565  0.00  0.00    +0.000 A 
ATOM     11  C   UNL     1       1.029   3.942  20.483  0.00  0.00    +0.000 A 
ATOM     12  C   UNL     1       2.035   4.888  20.284  0.00  0.00    +0.000 A 
ATOM     13  C   UNL     1       2.870   4.817  19.152  0.00  0.00    +0.000 A 
ATOM     14  C   UNL     1       3.871   5.772  18.885  0.00  0.00    +0.000 A 
ENDBRANCH   3   5
BRANCH   1  15
ATOM     15  C   UNL     1       7.711   7.825  17.246  0.00  0.00    +0.000 C 
BRANCH  15  16
ATOM     16  C   UNL     1       8.380   8.422  18.481  0.00  0.00    +0.000 C 
BRANCH  16  17
ATOM     17  C   UNL     1       8.753   9.895  18.316  0.00  0.00    +0.000 C 
BRANCH  17  18
ATOM     18  C   UNL     1       9.395  10.512  19.564  0.00  0.00    +0.000 C 
BRANCH  18  19
ATOM     19  C   UNL     1      10.188  11.769  19.211  0.00  0.00    +0.000 C 
BRANCH  19  22
ATOM     20  O   UNL     1      10.845  14.129  17.786  0.00  0.00    +0.000 OA
ATOM     21  C   UNL     1       9.715  14.007  18.255  0.00  0.00    +0.000 C 
ATOM     22  N   UNL     1       9.325  12.907  18.988  0.00  0.00    +0.000 N 
ATOM     23  H   UNL     1       8.344  12.841  19.244  0.00  0.00    +0.000 HD
BRANCH  21  24
ATOM     24  C   UNL     1       8.681  15.120  18.142  0.00  0.00    +0.000 C 
BRANCH  24  25
ATOM     25  S   UNL     1       6.999  14.487  17.861  0.00  0.00    +0.000 S 
ATOM     26  H   UNL     1       7.026  14.593  16.524  0.00  0.00    +0.000 HD
ENDBRANCH  24  25
ENDBRANCH  21  24
ENDBRANCH  19  22
ENDBRANCH  18  19
ENDBRANCH  17  18
ENDBRANCH  16  17
ENDBRANCH  15  16
ENDBRANCH   1  15
TORSDOF 9
ENDMDL
MODEL 3
REMARK VINA RESULT:      -6.9      1.365      1.369
REMARK  Name = 
REMARK  9 active torsions:
REMARK  status: ('A' for Active; 'I' for Inactive)
REMARK    1  A    between atoms: C_2  and  C_3
REMARK    2  A    between atoms: C_3  and  S_4
REMARK    3  A    between atoms: N_5  and  C_6
REMARK    4  A    between atoms: C_6  and  C_7
REMARK    5  A    between atoms: C_7  and  C_8
REMARK    6  A    between atoms: C_8  and  C_9
REMARK    7  A    between atoms: C_9  and  C_10
REMARK    8  A    between atoms: C_10  and  C_11
REMARK    9  A    between atoms: N_13  and  C_14
REMARK                            x       y       z     vdW  Elec       q    Type
REMARK                         _______ _______ _______ _____ _____    ______ ____
ROOT
ATOM      1  C   UNL     1       7.221   5.829  18.515  0.00  0.00    +0.000 C 
ATOM      2  O   UNL     1       7.670   4.691  18.623  0.00  0.00    +0.000 OA
ATOM      3  N   UNL     1       5.890   6.160  18.330  0.00  0.00    +0.000 N 
ATOM      4  H   UNL     1       5.674   7.116  18.072  0.00  0.00    +0.000 HD
ENDROOT
BRANCH   3   5
ATOM      5  C   UNL     1       4.826   5.230  18.324  0.00  0.00    +0.000 A 
ATOM      6  C   UNL     1       4.502   4.430  17.233  0.00  0.00    +0.000 A 
ATOM      7  N   UNL     1       3.455   3.572  17.189  0.00  0.00    +0.000 NA
ATOM      8  C   UNL     1       2.664   3.497  18.265  0.00  0.00    +0.000 A 
ATOM      9  C   UNL     1       1.552   2.671  18.212  0.00  0.00    +0.000 A 
ATOM     10  C   UNL     1       0.674   2.558  19.291  0.00  0.00    +0.000 A 
ATOM     11  C   UNL     1       0.917   3.275  20.455  0.00  0.00    +0.000 A 
ATOM     12  C   UNL     1       2.035   4.106  20.537  0.00  0.00    +0.000 A 
ATOM     13  C   UNL     1       2.913   4.234  19.443  0.00  0.00    +0.000 A 
ATOM     14  C   UNL     1       4.031   5.093  19.463  0.00  0.00    +0.000 A 
ENDBRANCH   3   5
BRANCH   1  15
ATOM     15  C   UNL     1       8.162   7.010  18.513  0.00  0.00    +0.000 C 
BRANCH  15  16
ATOM     16  C   UNL     1       7.769   8.010  17.429  0.00  0.00    +0.000 C 
BRANCH  16  17
ATOM     17  C   UNL     1       8.038   9.464  17.820  0.00  0.00    +0.000 C 
BRANCH  17  18
ATOM     18  C   UNL     1       9.104   9.621  18.910  0.00  0.00    +0.000 C 
BRANCH  18  19
ATOM     19  C   UNL     1       9.702  11.027  18.897  0.00  0.00    +0.000 C 
BRANCH  19  22
ATOM     20  O   UNL     1      10.457  13.689  19.506  0.00  0.00    +0.000 OA
ATOM     21  C   UNL     1       9.867  13.025  20.355  0.00  0.00    +0.000 C 
ATOM     22  N   UNL     1       9.493  11.715  20.152  0.00  0.00    +0.000 N 
ATOM     23  H   UNL     1       8.915  11.278  20.864  0.00  0.00    +0.000 HD
BRANCH  21  24
ATOM     24  C   UNL     1       9.587  13.578  21.747  0.00  0.00    +0.000 C 
BRANCH  24  25
ATOM     25  S   UNL     1       7.960  14.385  21.866  0.00  0.00    +0.000 S 
ATOM     26  H   UNL     1       7.566  14.099  20.616  0.00  0.00    +0.000 HD
ENDBRANCH  24  25
ENDBRANCH  21  24
ENDBRANCH  19  22
ENDBRANCH  18  19
ENDBRANCH  17  18
ENDBRANCH  16  17
ENDBRANCH  15  16
ENDBRANCH   1  15
TORSDOF 9
ENDMDL
MODEL 4
REMARK VINA RESULT:      -6.7      5.367      8.748
REMARK  Name = 
REMARK  9 active torsions:
REMARK  status: ('A' for Active; 'I' for Inactive)
REMARK    1  A    between atoms: C_2  and  C_3
REMARK    2  A    between atoms: C_3  and  S_4
REMARK    3  A    between atoms: N_5  and  C_6
REMARK    4  A    between atoms: C_6  and  C_7
REMARK    5  A    between atoms: C_7  and  C_8
REMARK    6  A    between atoms: C_8  and  C_9
REMARK    7  A    between atoms: C_9  and  C_10
REMARK    8  A    between atoms: C_10  and  C_11
REMARK    9  A    between atoms: N_13  and  C_14
REMARK                            x       y       z     vdW  Elec       q    Type
REMARK                         _______ _______ _______ _____ _____    ______ ____
ROOT
ATOM      1  C   UNL     1       3.715   6.543  18.115  0.00  0.00    +0.000 C 
ATOM      2  O   UNL     1       3.505   7.442  17.305  0.00  0.00    +0.000 OA
ATOM      3  N   UNL     1       4.555   5.460  17.923  0.00  0.00    +0.000 N 
ATOM      4  H   UNL     1       4.500   4.697  18.587  0.00  0.00    +0.000 HD
ENDROOT
BRANCH   3   5
ATOM      5  C   UNL     1       5.372   5.272  16.785  0.00  0.00    +0.000 A 
ATOM      6  C   UNL     1       6.632   5.843  16.633  0.00  0.00    +0.000 A 
ATOM      7  N   UNL     1       7.407   5.718  15.529  0.00  0.00    +0.000 NA
ATOM      8  C   UNL     1       6.924   5.008  14.503  0.00  0.00    +0.000 A 
ATOM      9  C   UNL     1       7.678   4.924  13.344  0.00  0.00    +0.000 A 
ATOM     10  C   UNL     1       7.227   4.215  12.229  0.00  0.00    +0.000 A 
ATOM     11  C   UNL     1       6.002   3.564  12.277  0.00  0.00    +0.000 A 
ATOM     12  C   UNL     1       5.228   3.625  13.436  0.00  0.00    +0.000 A 
ATOM     13  C   UNL     1       5.673   4.353  14.556  0.00  0.00    +0.000 A 
ATOM     14  C   UNL     1       4.909   4.480  15.734  0.00  0.00    +0.000 A 
ENDBRANCH   3   5
BRANCH   1  15
ATOM     15  C   UNL     1       2.973   6.528  19.430  0.00  0.00    +0.000 C 
BRANCH  15  16
ATOM     16  C   UNL     1       3.270   5.247  20.203  0.00  0.00    +0.000 C 
BRANCH  16  17
ATOM     17  C   UNL     1       2.080   4.741  21.019  0.00  0.00    +0.000 C 
BRANCH  17  18
ATOM     18  C   UNL     1       0.817   4.503  20.183  0.00  0.00    +0.000 C 
BRANCH  18  19
ATOM     19  C   UNL     1       0.636   3.019  19.869  0.00  0.00    +0.000 C 
BRANCH  19  22
ATOM     20  O   UNL     1       1.816   2.935  17.293  0.00  0.00    +0.000 OA
ATOM     21  C   UNL     1       2.405   2.417  18.239  0.00  0.00    +0.000 C 
ATOM     22  N   UNL     1       1.887   2.385  19.516  0.00  0.00    +0.000 N 
ATOM     23  H   UNL     1       2.489   2.034  20.255  0.00  0.00    +0.000 HD
BRANCH  21  24
ATOM     24  C   UNL     1       3.723   1.677  18.048  0.00  0.00    +0.000 C 
BRANCH  24  25
ATOM     25  S   UNL     1       4.642   1.471  19.605  0.00  0.00    +0.000 S 
ATOM     26  H   UNL     1       3.831   2.233  20.354  0.00  0.00    +0.000 HD
ENDBRANCH  24  25
ENDBRANCH  21  24
ENDBRANCH  19  22
ENDBRANCH  18  19
ENDBRANCH  17  18
ENDBRANCH  16  17
ENDBRANCH  15  16
ENDBRANCH   1  15
TORSDOF 9
ENDMDL
MODEL 5
REMARK VINA RESULT:      -6.7      1.380      1.699
REMARK  Name = 
REMARK  9 active torsions:
REMARK  status: ('A' for Active; 'I' for Inactive)
REMARK    1  A    between atoms: C_2  and  C_3
REMARK    2  A    between atoms: C_3  and  S_4
REMARK    3  A    between atoms: N_5  and  C_6
REMARK    4  A    between atoms: C_6  and  C_7
REMARK    5  A    between atoms: C_7  and  C_8
REMARK    6  A    between atoms: C_8  and  C_9
REMARK    7  A    between atoms: C_9  and  C_10
REMARK    8  A    between atoms: C_10  and  C_11
REMARK    9  A    between atoms: N_13  and  C_14
REMARK                            x       y       z     vdW  Elec       q    Type
REMARK                         _______ _______ _______ _____ _____    ______ ____
ROOT
ATOM      1  C   UNL     1       6.969   6.109  18.838  0.00  0.00    +0.000 C 
ATOM      2  O   UNL     1       6.986   5.313  19.774  0.00  0.00    +0.000 OA
ATOM      3  N   UNL     1       5.935   6.272  17.932  0.00  0.00    +0.000 N 
ATOM      4  H   UNL     1       6.118   6.825  17.103  0.00  0.00    +0.000 HD
ENDROOT
BRANCH   3   5
ATOM      5  C   UNL     1       4.695   5.599  18.002  0.00  0.00    +0.000 A 
ATOM      6  C   UNL     1       3.461   6.241  17.955  0.00  0.00    +0.000 A 
ATOM      7  N   UNL     1       2.263   5.620  18.074  0.00  0.00    +0.000 NA
ATOM      8  C   UNL     1       2.262   4.296  18.266  0.00  0.00    +0.000 A 
ATOM      9  C   UNL     1       1.047   3.657  18.452  0.00  0.00    +0.000 A 
ATOM     10  C   UNL     1       0.973   2.281  18.676  0.00  0.00    +0.000 A 
ATOM     11  C   UNL     1       2.137   1.523  18.701  0.00  0.00    +0.000 A 
ATOM     12  C   UNL     1       3.372   2.143  18.506  0.00  0.00    +0.000 A 
ATOM     13  C   UNL     1       3.450   3.533  18.296  0.00  0.00    +0.000 A 
ATOM     14  C   UNL     1       4.676   4.210  18.137  0.00  0.00    +0.000 A 
ENDBRANCH   3   5
BRANCH   1  15
ATOM     15  C   UNL     1       8.179   6.968  18.562  0.00  0.00    +0.000 C 
BRANCH  15  16
ATOM     16  C   UNL     1       7.869   8.009  17.490  0.00  0.00    +0.000 C 
BRANCH  16  17
ATOM     17  C   UNL     1       8.126   9.445  17.947  0.00  0.00    +0.000 C 
BRANCH  17  18
ATOM     18  C   UNL     1       9.192   9.561  19.043  0.00  0.00    +0.000 C 
BRANCH  18  19
ATOM     19  C   UNL     1       9.241  10.976  19.615  0.00  0.00    +0.000 C 
BRANCH  19  22
ATOM     20  O   UNL     1       9.507  12.743  17.415  0.00  0.00    +0.000 OA
ATOM     21  C   UNL     1      10.476  12.546  18.146  0.00  0.00    +0.000 C 
ATOM     22  N   UNL     1      10.441  11.679  19.216  0.00  0.00    +0.000 N 
ATOM     23  H   UNL     1      11.251  11.659  19.829  0.00  0.00    +0.000 HD
BRANCH  21  24
ATOM     24  C   UNL     1      11.831  13.180  17.860  0.00  0.00    +0.000 C 
BRANCH  24  25
ATOM     25  S   UNL     1      12.332  14.369  19.144  0.00  0.00    +0.000 S 
ATOM     26  H   UNL     1      11.975  15.471  18.467  0.00  0.00    +0.000 HD
ENDBRANCH  24  25
ENDBRANCH  21  24
ENDBRANCH  19  22
ENDBRANCH  18  19
ENDBRANCH  17  18
ENDBRANCH  16  17
ENDBRANCH  15  16
ENDBRANCH   1  15
TORSDOF 9
ENDMDL
MODEL 6
REMARK VINA RESULT:      -6.6      5.351      7.775
REMARK  Name = 
REMARK  9 active torsions:
REMARK  status: ('A' for Active; 'I' for Inactive)
REMARK    1  A    between atoms: C_2  and  C_3
REMARK    2  A    between atoms: C_3  and  S_4
REMARK    3  A    between atoms: N_5  and  C_6
REMARK    4  A    between atoms: C_6  and  C_7
REMARK    5  A    between atoms: C_7  and  C_8
REMARK    6  A    between atoms: C_8  and  C_9
REMARK    7  A    between atoms: C_9  and  C_10
REMARK    8  A    between atoms: C_10  and  C_11
REMARK    9  A    between atoms: N_13  and  C_14
REMARK                            x       y       z     vdW  Elec       q    Type
REMARK                         _______ _______ _______ _____ _____    ______ ____
ROOT
ATOM      1  C   UNL     1       3.792   3.247  17.968  0.00  0.00    +0.000 C 
ATOM      2  O   UNL     1       3.102   3.081  16.965  0.00  0.00    +0.000 OA
ATOM      3  N   UNL     1       5.106   3.684  17.984  0.00  0.00    +0.000 N 
ATOM      4  H   UNL     1       5.618   3.603  18.854  0.00  0.00    +0.000 HD
ENDROOT
BRANCH   3   5
ATOM      5  C   UNL     1       5.829   4.092  16.841  0.00  0.00    +0.000 A 
ATOM      6  C   UNL     1       6.781   5.106  16.847  0.00  0.00    +0.000 A 
ATOM      7  N   UNL     1       7.447   5.547  15.753  0.00  0.00    +0.000 NA
ATOM      8  C   UNL     1       7.159   4.980  14.577  0.00  0.00    +0.000 A 
ATOM      9  C   UNL     1       7.784   5.463  13.439  0.00  0.00    +0.000 A 
ATOM     10  C   UNL     1       7.517   4.930  12.176  0.00  0.00    +0.000 A 
ATOM     11  C   UNL     1       6.615   3.882  12.048  0.00  0.00    +0.000 A 
ATOM     12  C   UNL     1       5.980   3.371  13.180  0.00  0.00    +0.000 A 
ATOM     13  C   UNL     1       6.235   3.918  14.452  0.00  0.00    +0.000 A 
ATOM     14  C   UNL     1       5.586   3.465  15.618  0.00  0.00    +0.000 A 
ENDBRANCH   3   5
BRANCH   1  15
ATOM     15  C   UNL     1       3.235   2.901  19.328  0.00  0.00    +0.000 C 
BRANCH  15  16
ATOM     16  C   UNL     1       1.709   2.901  19.301  0.00  0.00    +0.000 C 
BRANCH  16  17
ATOM     17  C   UNL     1       1.090   4.076  20.060  0.00  0.00    +0.000 C 
BRANCH  17  18
ATOM     18  C   UNL     1       2.117   4.939  20.802  0.00  0.00    +0.000 C 
BRANCH  18  19
ATOM     19  C   UNL     1       2.408   6.229  20.036  0.00  0.00    +0.000 C 
BRANCH  19  22
ATOM     20  O   UNL     1       1.674   8.665  18.789  0.00  0.00    +0.000 OA
ATOM     21  C   UNL     1       1.467   8.522  19.992  0.00  0.00    +0.000 C 
ATOM     22  N   UNL     1       1.823   7.383  20.681  0.00  0.00    +0.000 N 
ATOM     23  H   UNL     1       1.518   7.308  21.647  0.00  0.00    +0.000 HD
BRANCH  21  24
ATOM     24  C   UNL     1       0.885   9.646  20.839  0.00  0.00    +0.000 C 
BRANCH  24  25
ATOM     25  S   UNL     1      -0.181   9.032  22.180  0.00  0.00    +0.000 S 
ATOM     26  H   UNL     1      -0.564  10.238  22.624  0.00  0.00    +0.000 HD
ENDBRANCH  24  25
ENDBRANCH  21  24
ENDBRANCH  19  22
ENDBRANCH  18  19
ENDBRANCH  17  18
ENDBRANCH  16  17
ENDBRANCH  15  16
ENDBRANCH   1  15
TORSDOF 9
ENDMDL
MODEL 7
REMARK VINA RESULT:      -6.6      2.142      2.416
REMARK  Name = 
REMARK  9 active torsions:
REMARK  status: ('A' for Active; 'I' for Inactive)
REMARK    1  A    between atoms: C_2  and  C_3
REMARK    2  A    between atoms: C_3  and  S_4
REMARK    3  A    between atoms: N_5  and  C_6
REMARK    4  A    between atoms: C_6  and  C_7
REMARK    5  A    between atoms: C_7  and  C_8
REMARK    6  A    between atoms: C_8  and  C_9
REMARK    7  A    between atoms: C_9  and  C_10
REMARK    8  A    between atoms: C_10  and  C_11
REMARK    9  A    between atoms: N_13  and  C_14
REMARK                            x       y       z     vdW  Elec       q    Type
REMARK                         _______ _______ _______ _____ _____    ______ ____
ROOT
ATOM      1  C   UNL     1       7.468   7.481  17.770  0.00  0.00    +0.000 C 
ATOM      2  O   UNL     1       7.961   6.732  18.611  0.00  0.00    +0.000 OA
ATOM      3  N   UNL     1       6.340   7.217  17.012  0.00  0.00    +0.000 N 
ATOM      4  H   UNL     1       6.146   7.830  16.230  0.00  0.00    +0.000 HD
ENDROOT
BRANCH   3   5
ATOM      5  C   UNL     1       5.528   6.071  17.157  0.00  0.00    +0.000 A 
ATOM      6  C   UNL     1       5.799   4.848  16.550  0.00  0.00    +0.000 A 
ATOM      7  N   UNL     1       5.006   3.752  16.633  0.00  0.00    +0.000 NA
ATOM      8  C   UNL     1       3.872   3.855  17.334  0.00  0.00    +0.000 A 
ATOM      9  C   UNL     1       3.019   2.763  17.375  0.00  0.00    +0.000 A 
ATOM     10  C   UNL     1       1.811   2.806  18.073  0.00  0.00    +0.000 A 
ATOM     11  C   UNL     1       1.451   3.960  18.757  0.00  0.00    +0.000 A 
ATOM     12  C   UNL     1       2.297   5.069  18.739  0.00  0.00    +0.000 A 
ATOM     13  C   UNL     1       3.508   5.034  18.022  0.00  0.00    +0.000 A 
ATOM     14  C   UNL     1       4.375   6.142  17.939  0.00  0.00    +0.000 A 
ENDBRANCH   3   5
BRANCH   1  15
ATOM     15  C   UNL     1       8.144   8.792  17.445  0.00  0.00    +0.000 C 
BRANCH  15  16
ATOM     16  C   UNL     1       8.730   9.423  18.704  0.00  0.00    +0.000 C 
BRANCH  16  17
ATOM     17  C   UNL     1       9.440  10.752  18.441  0.00  0.00    +0.000 C 
BRANCH  17  18
ATOM     18  C   UNL     1      10.204  11.293  19.655  0.00  0.00    +0.000 C 
BRANCH  18  19
ATOM     19  C   UNL     1       9.363  11.192  20.925  0.00  0.00    +0.000 C 
BRANCH  19  22
ATOM     20  O   UNL     1       7.951  13.648  21.021  0.00  0.00    +0.000 OA
ATOM     21  C   UNL     1       8.857  13.446  21.827  0.00  0.00    +0.000 C 
ATOM     22  N   UNL     1       9.613  12.294  21.828  0.00  0.00    +0.000 N 
ATOM     23  H   UNL     1      10.267  12.165  22.595  0.00  0.00    +0.000 HD
BRANCH  21  24
ATOM     24  C   UNL     1       9.279  14.508  22.833  0.00  0.00    +0.000 C 
BRANCH  24  25
ATOM     25  S   UNL     1      10.414  15.738  22.119  0.00  0.00    +0.000 S 
ATOM     26  H   UNL     1      10.875  14.953  21.133  0.00  0.00    +0.000 HD
ENDBRANCH  24  25
ENDBRANCH  21  24
ENDBRANCH  19  22
ENDBRANCH  18  19
ENDBRANCH  17  18
ENDBRANCH  16  17
ENDBRANCH  15  16
ENDBRANCH   1  15
TORSDOF 9
ENDMDL
MODEL 8
REMARK VINA RESULT:      -6.6      1.217      1.270
REMARK  Name = 
REMARK  9 active torsions:
REMARK  status: ('A' for Active; 'I' for Inactive)
REMARK    1  A    between atoms: C_2  and  C_3
REMARK    2  A    between atoms: C_3  and  S_4
REMARK    3  A    between atoms: N_5  and  C_6
REMARK    4  A    between atoms: C_6  and  C_7
REMARK    5  A    between atoms: C_7  and  C_8
REMARK    6  A    between atoms: C_8  and  C_9
REMARK    7  A    between atoms: C_9  and  C_10
REMARK    8  A    between atoms: C_10  and  C_11
REMARK    9  A    between atoms: N_13  and  C_14
REMARK                            x       y       z     vdW  Elec       q    Type
REMARK                         _______ _______ _______ _____ _____    ______ ____
ROOT
ATOM      1  C   UNL     1       7.156   5.960  18.965  0.00  0.00    +0.000 C 
ATOM      2  O   UNL     1       7.315   5.266  19.965  0.00  0.00    +0.000 OA
ATOM      3  N   UNL     1       6.105   5.863  18.069  0.00  0.00    +0.000 N 
ATOM      4  H   UNL     1       6.186   6.363  17.192  0.00  0.00    +0.000 HD
ENDROOT
BRANCH   3   5
ATOM      5  C   UNL     1       4.999   4.997  18.223  0.00  0.00    +0.000 A 
ATOM      6  C   UNL     1       4.720   3.936  17.367  0.00  0.00    +0.000 A 
ATOM      7  N   UNL     1       3.637   3.128  17.466  0.00  0.00    +0.000 NA
ATOM      8  C   UNL     1       2.762   3.375  18.447  0.00  0.00    +0.000 A 
ATOM      9  C   UNL     1       1.618   2.598  18.523  0.00  0.00    +0.000 A 
ATOM     10  C   UNL     1       0.654   2.812  19.509  0.00  0.00    +0.000 A 
ATOM     11  C   UNL     1       0.842   3.816  20.450  0.00  0.00    +0.000 A 
ATOM     12  C   UNL     1       1.991   4.606  20.401  0.00  0.00    +0.000 A 
ATOM     13  C   UNL     1       2.957   4.403  19.397  0.00  0.00    +0.000 A 
ATOM     14  C   UNL     1       4.112   5.202  19.280  0.00  0.00    +0.000 A 
ENDBRANCH   3   5
BRANCH   1  15
ATOM     15  C   UNL     1       8.200   6.985  18.590  0.00  0.00    +0.000 C 
BRANCH  15  16
ATOM     16  C   UNL     1       7.559   8.171  17.874  0.00  0.00    +0.000 C 
BRANCH  16  17
ATOM     17  C   UNL     1       8.559   9.265  17.499  0.00  0.00    +0.000 C 
BRANCH  17  18
ATOM     18  C   UNL     1       8.474  10.509  18.390  0.00  0.00    +0.000 C 
BRANCH  18  19
ATOM     19  C   UNL     1       9.444  10.411  19.566  0.00  0.00    +0.000 C 
BRANCH  19  22
ATOM     20  O   UNL     1       9.426  13.144  20.316  0.00  0.00    +0.000 OA
ATOM     21  C   UNL     1      10.456  12.655  19.859  0.00  0.00    +0.000 C 
ATOM     22  N   UNL     1      10.541  11.345  19.441  0.00  0.00    +0.000 N 
ATOM     23  H   UNL     1      11.458  10.996  19.179  0.00  0.00    +0.000 HD
BRANCH  21  24
ATOM     24  C   UNL     1      11.704  13.498  19.629  0.00  0.00    +0.000 C 
BRANCH  24  25
ATOM     25  S   UNL     1      11.558  14.582  18.174  0.00  0.00    +0.000 S 
ATOM     26  H   UNL     1      12.177  13.756  17.317  0.00  0.00    +0.000 HD
ENDBRANCH  24  25
ENDBRANCH  21  24
ENDBRANCH  19  22
ENDBRANCH  18  19
ENDBRANCH  17  18
ENDBRANCH  16  17
ENDBRANCH  15  16
ENDBRANCH   1  15
TORSDOF 9
ENDMDL
MODEL 9
REMARK VINA RESULT:      -6.5      1.652      1.909
REMARK  Name = 
REMARK  9 active torsions:
REMARK  status: ('A' for Active; 'I' for Inactive)
REMARK    1  A    between atoms: C_2  and  C_3
REMARK    2  A    between atoms: C_3  and  S_4
REMARK    3  A    between atoms: N_5  and  C_6
REMARK    4  A    between atoms: C_6  and  C_7
REMARK    5  A    between atoms: C_7  and  C_8
REMARK    6  A    between atoms: C_8  and  C_9
REMARK    7  A    between atoms: C_9  and  C_10
REMARK    8  A    between atoms: C_10  and  C_11
REMARK    9  A    between atoms: N_13  and  C_14
REMARK                            x       y       z     vdW  Elec       q    Type
REMARK                         _______ _______ _______ _____ _____    ______ ____
ROOT
ATOM      1  C   UNL     1       6.727   6.889  17.521  0.00  0.00    +0.000 C 
ATOM      2  O   UNL     1       6.302   7.015  16.375  0.00  0.00    +0.000 OA
ATOM      3  N   UNL     1       6.066   6.267  18.566  0.00  0.00    +0.000 N 
ATOM      4  H   UNL     1       6.438   6.392  19.500  0.00  0.00    +0.000 HD
ENDROOT
BRANCH   3   5
ATOM      5  C   UNL     1       4.826   5.599  18.446  0.00  0.00    +0.000 A 
ATOM      6  C   UNL     1       3.642   6.225  18.071  0.00  0.00    +0.000 A 
ATOM      7  N   UNL     1       2.434   5.615  18.001  0.00  0.00    +0.000 NA
ATOM      8  C   UNL     1       2.369   4.320  18.331  0.00  0.00    +0.000 A 
ATOM      9  C   UNL     1       1.131   3.698  18.325  0.00  0.00    +0.000 A 
ATOM     10  C   UNL     1       0.988   2.355  18.676  0.00  0.00    +0.000 A 
ATOM     11  C   UNL     1       2.107   1.611  19.026  0.00  0.00    +0.000 A 
ATOM     12  C   UNL     1       3.366   2.212  19.030  0.00  0.00    +0.000 A 
ATOM     13  C   UNL     1       3.511   3.572  18.693  0.00  0.00    +0.000 A 
ATOM     14  C   UNL     1       4.755   4.234  18.723  0.00  0.00    +0.000 A 
ENDBRANCH   3   5
BRANCH   1  15
ATOM     15  C   UNL     1       8.053   7.503  17.902  0.00  0.00    +0.000 C 
BRANCH  15  16
ATOM     16  C   UNL     1       8.002   9.022  17.769  0.00  0.00    +0.000 C 
BRANCH  16  17
ATOM     17  C   UNL     1       8.915   9.748  18.758  0.00  0.00    +0.000 C 
BRANCH  17  18
ATOM     18  C   UNL     1       9.709  10.900  18.133  0.00  0.00    +0.000 C 
BRANCH  18  19
ATOM     19  C   UNL     1      10.155  11.903  19.196  0.00  0.00    +0.000 C 
BRANCH  19  22
ATOM     20  O   UNL     1       9.146  14.380  18.260  0.00  0.00    +0.000 OA
ATOM     21  C   UNL     1      10.356  14.174  18.223  0.00  0.00    +0.000 C 
ATOM     22  N   UNL     1      10.925  12.986  18.628  0.00  0.00    +0.000 N 
ATOM     23  H   UNL     1      11.940  12.942  18.664  0.00  0.00    +0.000 HD
BRANCH  21  24
ATOM     24  C   UNL     1      11.320  15.193  17.629  0.00  0.00    +0.000 C 
BRANCH  24  25
ATOM     25  S   UNL     1      10.489  16.731  17.124  0.00  0.00    +0.000 S 
ATOM     26  H   UNL     1      11.610  17.430  16.888  0.00  0.00    +0.000 HD
ENDBRANCH  24  25
ENDBRANCH  21  24
ENDBRANCH  19  22
ENDBRANCH  18  19
ENDBRANCH  17  18
ENDBRANCH  16  17
ENDBRANCH  15  16
ENDBRANCH   1  15
TORSDOF 9
ENDMDL
