MODEL 1
REMARK VINA RESULT:      -8.6      0.000      0.000
REMARK  Name = 
REMARK  9 active torsions:
REMARK  status: ('A' for Active; 'I' for Inactive)
REMARK    1  A    between atoms: C_2  and  O_3
REMARK    2  A    between atoms: C_2  and  C_4
REMARK    3  A    between atoms: C_4  and  C_5
REMARK    4  A    between atoms: C_5  and  N_6
REMARK    5  A    between atoms: C_5  and  C_26
REMARK    6  A    between atoms: C_10  and  O_11
REMARK    7  A    between atoms: O_11  and  C_12
REMARK    8  A    between atoms: C_12  and  C_13
REMARK    9  A    between atoms: C_13  and  C_14
REMARK                            x       y       z     vdW  Elec       q    Type
REMARK                         _______ _______ _______ _____ _____    ______ ____
ROOT
ATOM      1  N   UNL     1       0.885  10.769  18.123  0.00  0.00    +0.000 N 
ATOM      2  C   UNL     1       1.263   9.559  18.702  0.00  0.00    +0.000 A 
ATOM      3  C   UNL     1       1.934   8.607  17.941  0.00  0.00    +0.000 A 
ATOM      4  C   UNL     1       2.368   7.421  18.541  0.00  0.00    +0.000 A 
ATOM      5  C   UNL     1       2.083   7.188  19.881  0.00  0.00    +0.000 A 
ATOM      6  C   UNL     1       1.334   8.141  20.539  0.00  0.00    +0.000 A 
ATOM      7  N   UNL     1       0.970   9.324  19.993  0.00  0.00    +0.000 NA
ATOM      8  H   UNL     1       1.580  11.077  17.447  0.00  0.00    +0.000 HD
ENDROOT
BRANCH   1   9
ATOM      9  C   UNL     1       0.429  11.896  18.972  0.00  0.00    +0.000 C 
BRANCH   9  10
ATOM     10  C   UNL     1       1.405  13.081  18.991  0.00  0.00    +0.000 A 
ATOM     11  C   UNL     1       1.137  14.187  19.821  0.00  0.00    +0.000 A 
ATOM     12  C   UNL     1       1.956  15.318  19.811  0.00  0.00    +0.000 A 
ATOM     13  C   UNL     1       3.075  15.354  18.985  0.00  0.00    +0.000 A 
ATOM     14 CL   UNL     1       4.070  16.756  18.947  0.00  0.00    +0.000 Cl
ATOM     15  C   UNL     1       3.392  14.258  18.191  0.00  0.00    +0.000 A 
ATOM     16  C   UNL     1       2.566  13.130  18.198  0.00  0.00    +0.000 A 
ENDBRANCH   9  10
BRANCH   9  17
ATOM     17  C   UNL     1      -1.012  12.365  18.709  0.00  0.00    +0.000 C 
BRANCH  17  19
ATOM     18  O   UNL     1      -2.188  10.338  18.204  0.00  0.00    +0.000 OA
ATOM     19  C   UNL     1      -1.767  11.418  17.824  0.00  0.00    +0.000 C 
BRANCH  19  20
ATOM     20  O   UNL     1      -1.931  11.861  16.558  0.00  0.00    +0.000 OA
ATOM     21  H   UNL     1      -2.527  12.641  16.513  0.00  0.00    +0.000 HD
ENDBRANCH  19  20
ENDBRANCH  17  19
ENDBRANCH   9  17
ENDBRANCH   1   9
BRANCH   5  22
ATOM     22  O   UNL     1       2.474   6.113  20.620  0.00  0.00    +0.000 OA
BRANCH  22  23
ATOM     23  C   UNL     1       1.537   5.033  20.666  0.00  0.00    +0.000 C 
BRANCH  23  24
ATOM     24  C   UNL     1       2.290   3.730  20.416  0.00  0.00    +0.000 C 
BRANCH  24  25
ATOM     25  C   UNL     1       3.126   3.840  19.175  0.00  0.00    +0.000 A 
ATOM     26  C   UNL     1       2.560   3.707  17.915  0.00  0.00    +0.000 A 
ATOM     27  C   UNL     1       3.391   3.799  16.803  0.00  0.00    +0.000 A 
ATOM     28  C   UNL     1       4.761   4.011  16.980  0.00  0.00    +0.000 A 
ATOM     29  C   UNL     1       5.250   4.113  18.277  0.00  0.00    +0.000 A 
ATOM     30  N   UNL     1       4.455   4.046  19.359  0.00  0.00    +0.000 NA
ATOM     31  N   UNL     1       6.609   4.199  18.527  0.00  0.00    +0.000 N 
ATOM     32  C   UNL     1       7.399   4.911  17.548  0.00  0.00    +0.000 C 
ATOM     33  C   UNL     1       7.140   4.405  16.133  0.00  0.00    +0.000 C 
ATOM     34  C   UNL     1       5.669   4.148  15.796  0.00  0.00    +0.000 C 
ATOM     35  H   UNL     1       6.731   4.469  19.499  0.00  0.00    +0.000 HD
ENDBRANCH  24  25
ENDBRANCH  23  24
ENDBRANCH  22  23
ENDBRANCH   5  22
TORSDOF 9
ENDMDL
MODEL 2
REMARK VINA RESULT:      -7.9      1.042      1.825
REMARK  Name = 
REMARK  9 active torsions:
REMARK  status: ('A' for Active; 'I' for Inactive)
REMARK    1  A    between atoms: C_2  and  O_3
REMARK    2  A    between atoms: C_2  and  C_4
REMARK    3  A    between atoms: C_4  and  C_5
REMARK    4  A    between atoms: C_5  and  N_6
REMARK    5  A    between atoms: C_5  and  C_26
REMARK    6  A    between atoms: C_10  and  O_11
REMARK    7  A    between atoms: O_11  and  C_12
REMARK    8  A    between atoms: C_12  and  C_13
REMARK    9  A    between atoms: C_13  and  C_14
REMARK                            x       y       z     vdW  Elec       q    Type
REMARK                         _______ _______ _______ _____ _____    ______ ____
ROOT
ATOM      1  N   UNL     1       1.144  10.646  18.240  0.00  0.00    +0.000 N 
ATOM      2  C   UNL     1       1.500   9.389  18.722  0.00  0.00    +0.000 A 
ATOM      3  C   UNL     1       2.087   8.461  17.869  0.00  0.00    +0.000 A 
ATOM      4  C   UNL     1       2.501   7.222  18.372  0.00  0.00    +0.000 A 
ATOM      5  C   UNL     1       2.278   6.917  19.708  0.00  0.00    +0.000 A 
ATOM      6  C   UNL     1       1.607   7.857  20.464  0.00  0.00    +0.000 A 
ATOM      7  N   UNL     1       1.266   9.085  20.011  0.00  0.00    +0.000 NA
ATOM      8  H   UNL     1       1.815  10.969  17.546  0.00  0.00    +0.000 HD
ENDROOT
BRANCH   1   9
ATOM      9  C   UNL     1       0.783  11.735  19.179  0.00  0.00    +0.000 C 
BRANCH   9  10
ATOM     10  C   UNL     1       1.592  13.022  18.963  0.00  0.00    +0.000 A 
ATOM     11  C   UNL     1       2.778  12.976  18.204  0.00  0.00    +0.000 A 
ATOM     12  C   UNL     1       3.584  14.106  18.048  0.00  0.00    +0.000 A 
ATOM     13  C   UNL     1       3.206  15.311  18.631  0.00  0.00    +0.000 A 
ATOM     14 CL   UNL     1       4.211  16.697  18.466  0.00  0.00    +0.000 Cl
ATOM     15  C   UNL     1       2.017  15.398  19.345  0.00  0.00    +0.000 A 
ATOM     16  C   UNL     1       1.215  14.264  19.505  0.00  0.00    +0.000 A 
ENDBRANCH   9  10
BRANCH   9  17
ATOM     17  C   UNL     1      -0.722  12.034  19.279  0.00  0.00    +0.000 C 
BRANCH  17  19
ATOM     18  O   UNL     1      -2.025  10.406  18.097  0.00  0.00    +0.000 OA
ATOM     19  C   UNL     1      -1.488  11.501  18.105  0.00  0.00    +0.000 C 
BRANCH  19  20
ATOM     20  O   UNL     1      -1.520  12.338  17.044  0.00  0.00    +0.000 OA
ATOM     21  H   UNL     1      -2.403  12.353  16.612  0.00  0.00    +0.000 HD
ENDBRANCH  19  20
ENDBRANCH  17  19
ENDBRANCH   9  17
ENDBRANCH   1   9
BRANCH   5  22
ATOM     22  O   UNL     1       2.661   5.784  20.358  0.00  0.00    +0.000 OA
BRANCH  22  23
ATOM     23  C   UNL     1       2.371   4.562  19.673  0.00  0.00    +0.000 C 
BRANCH  23  24
ATOM     24  C   UNL     1       3.603   3.664  19.744  0.00  0.00    +0.000 C 
BRANCH  24  25
ATOM     25  C   UNL     1       4.642   4.126  18.765  0.00  0.00    +0.000 A 
ATOM     26  C   UNL     1       5.753   4.846  19.184  0.00  0.00    +0.000 A 
ATOM     27  C   UNL     1       6.670   5.264  18.225  0.00  0.00    +0.000 A 
ATOM     28  C   UNL     1       6.450   4.961  16.879  0.00  0.00    +0.000 A 
ATOM     29  C   UNL     1       5.302   4.253  16.543  0.00  0.00    +0.000 A 
ATOM     30  N   UNL     1       4.417   3.826  17.461  0.00  0.00    +0.000 NA
ATOM     31  N   UNL     1       4.960   4.027  15.220  0.00  0.00    +0.000 N 
ATOM     32  C   UNL     1       6.056   3.836  14.296  0.00  0.00    +0.000 C 
ATOM     33  C   UNL     1       7.090   4.951  14.405  0.00  0.00    +0.000 C 
ATOM     34  C   UNL     1       7.443   5.371  15.834  0.00  0.00    +0.000 C 
ATOM     35  H   UNL     1       4.220   3.332  15.204  0.00  0.00    +0.000 HD
ENDBRANCH  24  25
ENDBRANCH  23  24
ENDBRANCH  22  23
ENDBRANCH   5  22
TORSDOF 9
ENDMDL
MODEL 3
REMARK VINA RESULT:      -7.8      1.139      1.307
REMARK  Name = 
REMARK  9 active torsions:
REMARK  status: ('A' for Active; 'I' for Inactive)
REMARK    1  A    between atoms: C_2  and  O_3
REMARK    2  A    between atoms: C_2  and  C_4
REMARK    3  A    between atoms: C_4  and  C_5
REMARK    4  A    between atoms: C_5  and  N_6
REMARK    5  A    between atoms: C_5  and  C_26
REMARK    6  A    between atoms: C_10  and  O_11
REMARK    7  A    between atoms: O_11  and  C_12
REMARK    8  A    between atoms: C_12  and  C_13
REMARK    9  A    between atoms: C_13  and  C_14
REMARK                            x       y       z     vdW  Elec       q    Type
REMARK                         _______ _______ _______ _____ _____    ______ ____
ROOT
ATOM      1  N   UNL     1       1.281  10.697  18.229  0.00  0.00    +0.000 N 
ATOM      2  C   UNL     1       1.491   9.464  18.843  0.00  0.00    +0.000 A 
ATOM      3  C   UNL     1       2.115   8.438  18.141  0.00  0.00    +0.000 A 
ATOM      4  C   UNL     1       2.381   7.223  18.780  0.00  0.00    +0.000 A 
ATOM      5  C   UNL     1       1.977   7.039  20.096  0.00  0.00    +0.000 A 
ATOM      6  C   UNL     1       1.283   8.074  20.691  0.00  0.00    +0.000 A 
ATOM      7  N   UNL     1       1.082   9.279  20.111  0.00  0.00    +0.000 NA
ATOM      8  H   UNL     1       2.051  10.924  17.604  0.00  0.00    +0.000 HD
ENDROOT
BRANCH   1   9
ATOM      9  C   UNL     1       0.883  11.877  19.034  0.00  0.00    +0.000 C 
BRANCH   9  10
ATOM     10  C   UNL     1       1.987  12.936  19.155  0.00  0.00    +0.000 A 
ATOM     11  C   UNL     1       2.445  13.319  20.431  0.00  0.00    +0.000 A 
ATOM     12  C   UNL     1       3.392  14.333  20.589  0.00  0.00    +0.000 A 
ATOM     13  C   UNL     1       3.917  14.969  19.469  0.00  0.00    +0.000 A 
ATOM     14 CL   UNL     1       5.061  16.239  19.661  0.00  0.00    +0.000 Cl
ATOM     15  C   UNL     1       3.520  14.581  18.196  0.00  0.00    +0.000 A 
ATOM     16  C   UNL     1       2.567  13.569  18.040  0.00  0.00    +0.000 A 
ENDBRANCH   9  10
BRANCH   9  17
ATOM     17  C   UNL     1      -0.458  12.514  18.632  0.00  0.00    +0.000 C 
BRANCH  17  19
ATOM     18  O   UNL     1      -1.390  14.251  19.996  0.00  0.00    +0.000 OA
ATOM     19  C   UNL     1      -1.207  13.059  19.812  0.00  0.00    +0.000 C 
BRANCH  19  20
ATOM     20  O   UNL     1      -1.651  12.112  20.668  0.00  0.00    +0.000 OA
ATOM     21  H   UNL     1      -1.290  12.234  21.574  0.00  0.00    +0.000 HD
ENDBRANCH  19  20
ENDBRANCH  17  19
ENDBRANCH   9  17
ENDBRANCH   1   9
BRANCH   5  22
ATOM     22  O   UNL     1       2.202   5.942  20.870  0.00  0.00    +0.000 OA
BRANCH  22  23
ATOM     23  C   UNL     1       1.371   4.813  20.581  0.00  0.00    +0.000 C 
BRANCH  23  24
ATOM     24  C   UNL     1       2.265   3.590  20.398  0.00  0.00    +0.000 C 
BRANCH  24  25
ATOM     25  C   UNL     1       3.116   3.745  19.172  0.00  0.00    +0.000 A 
ATOM     26  C   UNL     1       2.566   3.654  17.901  0.00  0.00    +0.000 A 
ATOM     27  C   UNL     1       3.412   3.785  16.804  0.00  0.00    +0.000 A 
ATOM     28  C   UNL     1       4.778   3.995  17.005  0.00  0.00    +0.000 A 
ATOM     29  C   UNL     1       5.250   4.054  18.311  0.00  0.00    +0.000 A 
ATOM     30  N   UNL     1       4.442   3.948  19.381  0.00  0.00    +0.000 NA
ATOM     31  N   UNL     1       6.606   4.136  18.582  0.00  0.00    +0.000 N 
ATOM     32  C   UNL     1       7.406   4.882  17.637  0.00  0.00    +0.000 C 
ATOM     33  C   UNL     1       7.167   4.424  16.203  0.00  0.00    +0.000 C 
ATOM     34  C   UNL     1       5.702   4.175  15.839  0.00  0.00    +0.000 C 
ATOM     35  H   UNL     1       6.714   4.372  19.564  0.00  0.00    +0.000 HD
ENDBRANCH  24  25
ENDBRANCH  23  24
ENDBRANCH  22  23
ENDBRANCH   5  22
TORSDOF 9
ENDMDL
MODEL 4
REMARK VINA RESULT:      -7.7      1.702      2.465
REMARK  Name = 
REMARK  9 active torsions:
REMARK  status: ('A' for Active; 'I' for Inactive)
REMARK    1  A    between atoms: C_2  and  O_3
REMARK    2  A    between atoms: C_2  and  C_4
REMARK    3  A    between atoms: C_4  and  C_5
REMARK    4  A    between atoms: C_5  and  N_6
REMARK    5  A    between atoms: C_5  and  C_26
REMARK    6  A    between atoms: C_10  and  O_11
REMARK    7  A    between atoms: O_11  and  C_12
REMARK    8  A    between atoms: C_12  and  C_13
REMARK    9  A    between atoms: C_13  and  C_14
REMARK                            x       y       z     vdW  Elec       q    Type
REMARK                         _______ _______ _______ _____ _____    ______ ____
ROOT
ATOM      1  N   UNL     1       0.901  10.449  18.003  0.00  0.00    +0.000 N 
ATOM      2  C   UNL     1       1.480   9.248  18.408  0.00  0.00    +0.000 A 
ATOM      3  C   UNL     1       2.219   8.495  17.502  0.00  0.00    +0.000 A 
ATOM      4  C   UNL     1       2.852   7.323  17.928  0.00  0.00    +0.000 A 
ATOM      5  C   UNL     1       2.697   6.900  19.241  0.00  0.00    +0.000 A 
ATOM      6  C   UNL     1       1.874   7.655  20.051  0.00  0.00    +0.000 A 
ATOM      7  N   UNL     1       1.314   8.827  19.675  0.00  0.00    +0.000 NA
ATOM      8  H   UNL     1       1.498  10.929  17.334  0.00  0.00    +0.000 HD
ENDROOT
BRANCH   1   9
ATOM      9  C   UNL     1       0.357  11.394  19.008  0.00  0.00    +0.000 C 
BRANCH   9  10
ATOM     10  C   UNL     1       1.001  12.787  18.947  0.00  0.00    +0.000 A 
ATOM     11  C   UNL     1       0.187  13.932  19.059  0.00  0.00    +0.000 A 
ATOM     12  C   UNL     1       0.720  15.217  18.932  0.00  0.00    +0.000 A 
ATOM     13  C   UNL     1       2.084  15.381  18.712  0.00  0.00    +0.000 A 
ATOM     14 CL   UNL     1       2.739  16.960  18.525  0.00  0.00    +0.000 Cl
ATOM     15  C   UNL     1       2.918  14.272  18.644  0.00  0.00    +0.000 A 
ATOM     16  C   UNL     1       2.381  12.987  18.766  0.00  0.00    +0.000 A 
ENDBRANCH   9  10
BRANCH   9  17
ATOM     17  C   UNL     1      -1.177  11.491  19.044  0.00  0.00    +0.000 C 
BRANCH  17  19
ATOM     18  O   UNL     1      -2.241   9.790  17.732  0.00  0.00    +0.000 OA
ATOM     19  C   UNL     1      -1.813  10.929  17.807  0.00  0.00    +0.000 C 
BRANCH  19  20
ATOM     20  O   UNL     1      -1.859  11.796  16.770  0.00  0.00    +0.000 OA
ATOM     21  H   UNL     1      -1.047  12.347  16.713  0.00  0.00    +0.000 HD
ENDBRANCH  19  20
ENDBRANCH  17  19
ENDBRANCH   9  17
ENDBRANCH   1   9
BRANCH   5  22
ATOM     22  O   UNL     1       3.282   5.816  19.821  0.00  0.00    +0.000 OA
BRANCH  22  23
ATOM     23  C   UNL     1       4.555   5.449  19.281  0.00  0.00    +0.000 C 
BRANCH  23  24
ATOM     24  C   UNL     1       4.339   4.364  18.231  0.00  0.00    +0.000 C 
BRANCH  24  25
ATOM     25  C   UNL     1       5.266   4.570  17.069  0.00  0.00    +0.000 A 
ATOM     26  C   UNL     1       6.454   5.271  17.215  0.00  0.00    +0.000 A 
ATOM     27  C   UNL     1       7.260   5.447  16.094  0.00  0.00    +0.000 A 
ATOM     28  C   UNL     1       6.855   4.928  14.862  0.00  0.00    +0.000 A 
ATOM     29  C   UNL     1       5.640   4.256  14.799  0.00  0.00    +0.000 A 
ATOM     30  N   UNL     1       4.860   4.062  15.877  0.00  0.00    +0.000 NA
ATOM     31  N   UNL     1       5.120   3.825  13.589  0.00  0.00    +0.000 N 
ATOM     32  C   UNL     1       6.077   3.397  12.594  0.00  0.00    +0.000 C 
ATOM     33  C   UNL     1       7.171   4.436  12.374  0.00  0.00    +0.000 C 
ATOM     34  C   UNL     1       7.723   5.075  13.650  0.00  0.00    +0.000 C 
ATOM     35  H   UNL     1       4.350   3.192  13.789  0.00  0.00    +0.000 HD
ENDBRANCH  24  25
ENDBRANCH  23  24
ENDBRANCH  22  23
ENDBRANCH   5  22
TORSDOF 9
ENDMDL
MODEL 5
REMARK VINA RESULT:      -7.5      2.640      3.776
REMARK  Name = 
REMARK  9 active torsions:
REMARK  status: ('A' for Active; 'I' for Inactive)
REMARK    1  A    between atoms: C_2  and  O_3
REMARK    2  A    between atoms: C_2  and  C_4
REMARK    3  A    between atoms: C_4  and  C_5
REMARK    4  A    between atoms: C_5  and  N_6
REMARK    5  A    between atoms: C_5  and  C_26
REMARK    6  A    between atoms: C_10  and  O_11
REMARK    7  A    between atoms: O_11  and  C_12
REMARK    8  A    between atoms: C_12  and  C_13
REMARK    9  A    between atoms: C_13  and  C_14
REMARK                            x       y       z     vdW  Elec       q    Type
REMARK                         _______ _______ _______ _____ _____    ______ ____
ROOT
ATOM      1  N   UNL     1       0.578  11.076  18.053  0.00  0.00    +0.000 N 
ATOM      2  C   UNL     1       1.052   9.890  18.610  0.00  0.00    +0.000 A 
ATOM      3  C   UNL     1       1.783   9.002  17.829  0.00  0.00    +0.000 A 
ATOM      4  C   UNL     1       2.312   7.843  18.407  0.00  0.00    +0.000 A 
ATOM      5  C   UNL     1       2.060   7.570  19.746  0.00  0.00    +0.000 A 
ATOM      6  C   UNL     1       1.249   8.456  20.426  0.00  0.00    +0.000 A 
ATOM      7  N   UNL     1       0.791   9.615  19.901  0.00  0.00    +0.000 NA
ATOM      8  H   UNL     1       1.240  11.445  17.375  0.00  0.00    +0.000 HD
ENDROOT
BRANCH   1   9
ATOM      9  C   UNL     1       0.049  12.154  18.924  0.00  0.00    +0.000 C 
BRANCH   9  10
ATOM     10  C   UNL     1      -1.478  12.116  19.084  0.00  0.00    +0.000 A 
ATOM     11  C   UNL     1      -2.264  11.499  18.091  0.00  0.00    +0.000 A 
ATOM     12  C   UNL     1      -3.659  11.510  18.158  0.00  0.00    +0.000 A 
ATOM     13  C   UNL     1      -4.294  12.121  19.234  0.00  0.00    +0.000 A 
ATOM     14 CL   UNL     1      -6.012  12.163  19.305  0.00  0.00    +0.000 Cl
ATOM     15  C   UNL     1      -3.544  12.696  20.252  0.00  0.00    +0.000 A 
ATOM     16  C   UNL     1      -2.148  12.689  20.180  0.00  0.00    +0.000 A 
ENDBRANCH   9  10
BRANCH   9  17
ATOM     17  C   UNL     1       0.748  12.290  20.287  0.00  0.00    +0.000 C 
BRANCH  17  19
ATOM     18  O   UNL     1       1.390  14.500  19.617  0.00  0.00    +0.000 OA
ATOM     19  C   UNL     1       1.486  13.589  20.422  0.00  0.00    +0.000 C 
BRANCH  19  20
ATOM     20  O   UNL     1       2.282  13.659  21.512  0.00  0.00    +0.000 OA
ATOM     21  H   UNL     1       3.234  13.588  21.279  0.00  0.00    +0.000 HD
ENDBRANCH  19  20
ENDBRANCH  17  19
ENDBRANCH   9  17
ENDBRANCH   1   9
BRANCH   5  22
ATOM     22  O   UNL     1       2.539   6.518  20.465  0.00  0.00    +0.000 OA
BRANCH  22  23
ATOM     23  C   UNL     1       1.611   5.447  20.668  0.00  0.00    +0.000 C 
BRANCH  23  24
ATOM     24  C   UNL     1       2.356   4.126  20.509  0.00  0.00    +0.000 C 
BRANCH  24  25
ATOM     25  C   UNL     1       3.137   4.118  19.228  0.00  0.00    +0.000 A 
ATOM     26  C   UNL     1       2.501   3.976  18.002  0.00  0.00    +0.000 A 
ATOM     27  C   UNL     1       3.282   3.955  16.851  0.00  0.00    +0.000 A 
ATOM     28  C   UNL     1       4.671   4.067  16.955  0.00  0.00    +0.000 A 
ATOM     29  C   UNL     1       5.229   4.186  18.223  0.00  0.00    +0.000 A 
ATOM     30  N   UNL     1       4.485   4.227  19.342  0.00  0.00    +0.000 NA
ATOM     31  N   UNL     1       6.602   4.178  18.407  0.00  0.00    +0.000 N 
ATOM     32  C   UNL     1       7.394   4.783  17.361  0.00  0.00    +0.000 C 
ATOM     33  C   UNL     1       7.029   4.239  15.985  0.00  0.00    +0.000 C 
ATOM     34  C   UNL     1       5.529   4.083  15.726  0.00  0.00    +0.000 C 
ATOM     35  H   UNL     1       6.790   4.478  19.359  0.00  0.00    +0.000 HD
ENDBRANCH  24  25
ENDBRANCH  23  24
ENDBRANCH  22  23
ENDBRANCH   5  22
TORSDOF 9
ENDMDL
MODEL 6
REMARK VINA RESULT:      -7.5      3.520      9.379
REMARK  Name = 
REMARK  9 active torsions:
REMARK  status: ('A' for Active; 'I' for Inactive)
REMARK    1  A    between atoms: C_2  and  O_3
REMARK    2  A    between atoms: C_2  and  C_4
REMARK    3  A    between atoms: C_4  and  C_5
REMARK    4  A    between atoms: C_5  and  N_6
REMARK    5  A    between atoms: C_5  and  C_26
REMARK    6  A    between atoms: C_10  and  O_11
REMARK    7  A    between atoms: O_11  and  C_12
REMARK    8  A    between atoms: C_12  and  C_13
REMARK    9  A    between atoms: C_13  and  C_14
REMARK                            x       y       z     vdW  Elec       q    Type
REMARK                         _______ _______ _______ _____ _____    ______ ____
ROOT
ATOM      1  N   UNL     1       2.801   4.564  18.968  0.00  0.00    +0.000 N 
ATOM      2  C   UNL     1       2.347   5.841  19.294  0.00  0.00    +0.000 A 
ATOM      3  C   UNL     1       1.702   6.057  20.506  0.00  0.00    +0.000 A 
ATOM      4  C   UNL     1       1.304   7.351  20.859  0.00  0.00    +0.000 A 
ATOM      5  C   UNL     1       1.518   8.398  19.971  0.00  0.00    +0.000 A 
ATOM      6  C   UNL     1       2.082   8.083  18.752  0.00  0.00    +0.000 A 
ATOM      7  N   UNL     1       2.536   6.851  18.426  0.00  0.00    +0.000 NA
ATOM      8  H   UNL     1       3.132   4.077  19.797  0.00  0.00    +0.000 HD
ENDROOT
BRANCH   1   9
ATOM      9  C   UNL     1       3.729   4.367  17.827  0.00  0.00    +0.000 C 
BRANCH   9  10
ATOM     10  C   UNL     1       4.992   5.237  17.909  0.00  0.00    +0.000 A 
ATOM     11  C   UNL     1       5.904   5.036  18.963  0.00  0.00    +0.000 A 
ATOM     12  C   UNL     1       7.025   5.855  19.119  0.00  0.00    +0.000 A 
ATOM     13  C   UNL     1       7.266   6.878  18.208  0.00  0.00    +0.000 A 
ATOM     14 CL   UNL     1       8.628   7.907  18.413  0.00  0.00    +0.000 Cl
ATOM     15  C   UNL     1       6.409   7.069  17.131  0.00  0.00    +0.000 A 
ATOM     16  C   UNL     1       5.284   6.252  16.980  0.00  0.00    +0.000 A 
ENDBRANCH   9  10
BRANCH   9  17
ATOM     17  C   UNL     1       4.080   2.902  17.522  0.00  0.00    +0.000 C 
BRANCH  17  19
ATOM     18  O   UNL     1       2.718   1.430  18.836  0.00  0.00    +0.000 OA
ATOM     19  C   UNL     1       3.789   1.993  18.680  0.00  0.00    +0.000 C 
BRANCH  19  20
ATOM     20  O   UNL     1       4.816   1.861  19.548  0.00  0.00    +0.000 OA
ATOM     21  H   UNL     1       4.512   1.583  20.440  0.00  0.00    +0.000 HD
ENDBRANCH  19  20
ENDBRANCH  17  19
ENDBRANCH   9  17
ENDBRANCH   1   9
BRANCH   5  22
ATOM     22  O   UNL     1       1.236   9.713  20.183  0.00  0.00    +0.000 OA
BRANCH  22  23
ATOM     23  C   UNL     1      -0.105  10.105  19.874  0.00  0.00    +0.000 C 
BRANCH  23  24
ATOM     24  C   UNL     1      -0.300  10.009  18.364  0.00  0.00    +0.000 C 
BRANCH  24  25
ATOM     25  C   UNL     1      -1.673  10.481  17.984  0.00  0.00    +0.000 A 
ATOM     26  C   UNL     1      -2.259  10.094  16.787  0.00  0.00    +0.000 A 
ATOM     27  C   UNL     1      -3.526  10.582  16.483  0.00  0.00    +0.000 A 
ATOM     28  C   UNL     1      -4.167  11.447  17.374  0.00  0.00    +0.000 A 
ATOM     29  C   UNL     1      -3.501  11.799  18.543  0.00  0.00    +0.000 A 
ATOM     30  N   UNL     1      -2.285  11.320  18.858  0.00  0.00    +0.000 NA
ATOM     31  N   UNL     1      -4.024  12.745  19.409  0.00  0.00    +0.000 N 
ATOM     32  C   UNL     1      -5.464  12.787  19.522  0.00  0.00    +0.000 C 
ATOM     33  C   UNL     1      -6.138  12.872  18.157  0.00  0.00    +0.000 C 
ATOM     34  C   UNL     1      -5.545  11.956  17.084  0.00  0.00    +0.000 C 
ATOM     35  H   UNL     1      -3.496  12.699  20.276  0.00  0.00    +0.000 HD
ENDBRANCH  24  25
ENDBRANCH  23  24
ENDBRANCH  22  23
ENDBRANCH   5  22
TORSDOF 9
ENDMDL
MODEL 7
REMARK VINA RESULT:      -7.5      4.926      8.455
REMARK  Name = 
REMARK  9 active torsions:
REMARK  status: ('A' for Active; 'I' for Inactive)
REMARK    1  A    between atoms: C_2  and  O_3
REMARK    2  A    between atoms: C_2  and  C_4
REMARK    3  A    between atoms: C_4  and  C_5
REMARK    4  A    between atoms: C_5  and  N_6
REMARK    5  A    between atoms: C_5  and  C_26
REMARK    6  A    between atoms: C_10  and  O_11
REMARK    7  A    between atoms: O_11  and  C_12
REMARK    8  A    between atoms: C_12  and  C_13
REMARK    9  A    between atoms: C_13  and  C_14
REMARK                            x       y       z     vdW  Elec       q    Type
REMARK                         _______ _______ _______ _____ _____    ______ ____
ROOT
ATOM      1  N   UNL     1       3.565   4.955  17.292  0.00  0.00    +0.000 N 
ATOM      2  C   UNL     1       4.853   5.444  17.498  0.00  0.00    +0.000 A 
ATOM      3  C   UNL     1       5.623   5.845  16.412  0.00  0.00    +0.000 A 
ATOM      4  C   UNL     1       6.891   6.395  16.626  0.00  0.00    +0.000 A 
ATOM      5  C   UNL     1       7.384   6.493  17.921  0.00  0.00    +0.000 A 
ATOM      6  C   UNL     1       6.595   5.989  18.934  0.00  0.00    +0.000 A 
ATOM      7  N   UNL     1       5.339   5.521  18.750  0.00  0.00    +0.000 NA
ATOM      8  H   UNL     1       3.114   5.439  16.520  0.00  0.00    +0.000 HD
ENDROOT
BRANCH   1   9
ATOM      9  C   UNL     1       2.634   4.791  18.435  0.00  0.00    +0.000 C 
BRANCH   9  10
ATOM     10  C   UNL     1       2.164   6.123  19.037  0.00  0.00    +0.000 A 
ATOM     11  C   UNL     1       2.123   7.274  18.226  0.00  0.00    +0.000 A 
ATOM     12  C   UNL     1       1.777   8.521  18.751  0.00  0.00    +0.000 A 
ATOM     13  C   UNL     1       1.442   8.635  20.097  0.00  0.00    +0.000 A 
ATOM     14 CL   UNL     1       1.044  10.173  20.754  0.00  0.00    +0.000 Cl
ATOM     15  C   UNL     1       1.428   7.509  20.910  0.00  0.00    +0.000 A 
ATOM     16  C   UNL     1       1.781   6.263  20.383  0.00  0.00    +0.000 A 
ENDBRANCH   9  10
BRANCH   9  17
ATOM     17  C   UNL     1       1.447   3.848  18.175  0.00  0.00    +0.000 C 
BRANCH  17  19
ATOM     18  O   UNL     1       2.018   1.785  19.254  0.00  0.00    +0.000 OA
ATOM     19  C   UNL     1       1.322   2.786  19.227  0.00  0.00    +0.000 C 
BRANCH  19  20
ATOM     20  O   UNL     1       0.355   3.028  20.141  0.00  0.00    +0.000 OA
ATOM     21  H   UNL     1       0.044   3.959  20.111  0.00  0.00    +0.000 HD
ENDBRANCH  19  20
ENDBRANCH  17  19
ENDBRANCH   9  17
ENDBRANCH   1   9
BRANCH   5  22
ATOM     22  O   UNL     1       8.570   7.045  18.300  0.00  0.00    +0.000 OA
BRANCH  22  23
ATOM     23  C   UNL     1       8.466   8.273  19.026  0.00  0.00    +0.000 C 
BRANCH  23  24
ATOM     24  C   UNL     1       8.451   9.425  18.026  0.00  0.00    +0.000 C 
BRANCH  24  25
ATOM     25  C   UNL     1       9.167  10.616  18.592  0.00  0.00    +0.000 A 
ATOM     26  C   UNL     1       9.700  10.590  19.873  0.00  0.00    +0.000 A 
ATOM     27  C   UNL     1      10.334  11.733  20.349  0.00  0.00    +0.000 A 
ATOM     28  C   UNL     1      10.411  12.869  19.539  0.00  0.00    +0.000 A 
ATOM     29  C   UNL     1       9.834  12.817  18.275  0.00  0.00    +0.000 A 
ATOM     30  N   UNL     1       9.235  11.713  17.796  0.00  0.00    +0.000 NA
ATOM     31  N   UNL     1       9.766  13.943  17.470  0.00  0.00    +0.000 N 
ATOM     32  C   UNL     1      10.867  14.873  17.572  0.00  0.00    +0.000 C 
ATOM     33  C   UNL     1      11.154  15.259  19.018  0.00  0.00    +0.000 C 
ATOM     34  C   UNL     1      11.121  14.100  20.017  0.00  0.00    +0.000 C 
ATOM     35  H   UNL     1       9.503  13.642  16.536  0.00  0.00    +0.000 HD
ENDBRANCH  24  25
ENDBRANCH  23  24
ENDBRANCH  22  23
ENDBRANCH   5  22
TORSDOF 9
ENDMDL
MODEL 8
REMARK VINA RESULT:      -7.4      4.735      8.370
REMARK  Name = 
REMARK  9 active torsions:
REMARK  status: ('A' for Active; 'I' for Inactive)
REMARK    1  A    between atoms: C_2  and  O_3
REMARK    2  A    between atoms: C_2  and  C_4
REMARK    3  A    between atoms: C_4  and  C_5
REMARK    4  A    between atoms: C_5  and  N_6
REMARK    5  A    between atoms: C_5  and  C_26
REMARK    6  A    between atoms: C_10  and  O_11
REMARK    7  A    between atoms: O_11  and  C_12
REMARK    8  A    between atoms: C_12  and  C_13
REMARK    9  A    between atoms: C_13  and  C_14
REMARK                            x       y       z     vdW  Elec       q    Type
REMARK                         _______ _______ _______ _____ _____    ______ ____
ROOT
ATOM      1  N   UNL     1       3.744   4.224  18.164  0.00  0.00    +0.000 N 
ATOM      2  C   UNL     1       4.868   4.975  17.825  0.00  0.00    +0.000 A 
ATOM      3  C   UNL     1       5.372   4.919  16.530  0.00  0.00    +0.000 A 
ATOM      4  C   UNL     1       6.462   5.722  16.176  0.00  0.00    +0.000 A 
ATOM      5  C   UNL     1       7.055   6.532  17.135  0.00  0.00    +0.000 A 
ATOM      6  C   UNL     1       6.551   6.460  18.418  0.00  0.00    +0.000 A 
ATOM      7  N   UNL     1       5.455   5.744  18.759  0.00  0.00    +0.000 NA
ATOM      8  H   UNL     1       3.095   4.174  17.383  0.00  0.00    +0.000 HD
ENDROOT
BRANCH   1   9
ATOM      9  C   UNL     1       3.029   4.479  19.438  0.00  0.00    +0.000 C 
BRANCH   9  10
ATOM     10  C   UNL     1       2.439   5.894  19.535  0.00  0.00    +0.000 A 
ATOM     11  C   UNL     1       2.459   6.732  18.403  0.00  0.00    +0.000 A 
ATOM     12  C   UNL     1       2.004   8.051  18.468  0.00  0.00    +0.000 A 
ATOM     13  C   UNL     1       1.498   8.549  19.664  0.00  0.00    +0.000 A 
ATOM     14 CL   UNL     1       0.965  10.181  19.756  0.00  0.00    +0.000 Cl
ATOM     15  C   UNL     1       1.421   7.731  20.784  0.00  0.00    +0.000 A 
ATOM     16  C   UNL     1       1.883   6.413  20.718  0.00  0.00    +0.000 A 
ENDBRANCH   9  10
BRANCH   9  17
ATOM     17  C   UNL     1       1.988   3.414  19.823  0.00  0.00    +0.000 C 
BRANCH  17  19
ATOM     18  O   UNL     1       0.863   3.396  17.706  0.00  0.00    +0.000 OA
ATOM     19  C   UNL     1       1.365   2.766  18.622  0.00  0.00    +0.000 C 
BRANCH  19  20
ATOM     20  O   UNL     1       1.396   1.415  18.649  0.00  0.00    +0.000 OA
ATOM     21  H   UNL     1       0.880   1.049  19.401  0.00  0.00    +0.000 HD
ENDBRANCH  19  20
ENDBRANCH  17  19
ENDBRANCH   9  17
ENDBRANCH   1   9
BRANCH   5  22
ATOM     22  O   UNL     1       8.084   7.402  16.941  0.00  0.00    +0.000 OA
BRANCH  22  23
ATOM     23  C   UNL     1       7.917   8.688  17.547  0.00  0.00    +0.000 C 
BRANCH  23  24
ATOM     24  C   UNL     1       8.844   8.775  18.756  0.00  0.00    +0.000 C 
BRANCH  24  25
ATOM     25  C   UNL     1       9.207  10.205  19.032  0.00  0.00    +0.000 A 
ATOM     26  C   UNL     1       9.597  11.056  18.008  0.00  0.00    +0.000 A 
ATOM     27  C   UNL     1       9.941  12.365  18.331  0.00  0.00    +0.000 A 
ATOM     28  C   UNL     1       9.896  12.783  19.663  0.00  0.00    +0.000 A 
ATOM     29  C   UNL     1       9.513  11.861  20.630  0.00  0.00    +0.000 A 
ATOM     30  N   UNL     1       9.159  10.599  20.330  0.00  0.00    +0.000 NA
ATOM     31  N   UNL     1       9.565  12.172  21.979  0.00  0.00    +0.000 N 
ATOM     32  C   UNL     1       9.279  13.543  22.334  0.00  0.00    +0.000 C 
ATOM     33  C   UNL     1      10.111  14.526  21.520  0.00  0.00    +0.000 C 
ATOM     34  C   UNL     1      10.229  14.198  20.030  0.00  0.00    +0.000 C 
ATOM     35  H   UNL     1       9.058  11.451  22.484  0.00  0.00    +0.000 HD
ENDBRANCH  24  25
ENDBRANCH  23  24
ENDBRANCH  22  23
ENDBRANCH   5  22
TORSDOF 9
ENDMDL
MODEL 9
REMARK VINA RESULT:      -7.4      2.941      4.001
REMARK  Name = 
REMARK  9 active torsions:
REMARK  status: ('A' for Active; 'I' for Inactive)
REMARK    1  A    between atoms: C_2  and  O_3
REMARK    2  A    between atoms: C_2  and  C_4
REMARK    3  A    between atoms: C_4  and  C_5
REMARK    4  A    between atoms: C_5  and  N_6
REMARK    5  A    between atoms: C_5  and  C_26
REMARK    6  A    between atoms: C_10  and  O_11
REMARK    7  A    between atoms: O_11  and  C_12
REMARK    8  A    between atoms: C_12  and  C_13
REMARK    9  A    between atoms: C_13  and  C_14
REMARK                            x       y       z     vdW  Elec       q    Type
REMARK                         _______ _______ _______ _____ _____    ______ ____
ROOT
ATOM      1  N   UNL     1      -0.553  10.736  20.623  0.00  0.00    +0.000 N 
ATOM      2  C   UNL     1       0.180   9.551  20.641  0.00  0.00    +0.000 A 
ATOM      3  C   UNL     1      -0.059   8.604  21.632  0.00  0.00    +0.000 A 
ATOM      4  C   UNL     1       0.633   7.389  21.611  0.00  0.00    +0.000 A 
ATOM      5  C   UNL     1       1.585   7.161  20.625  0.00  0.00    +0.000 A 
ATOM      6  C   UNL     1       1.826   8.187  19.735  0.00  0.00    +0.000 A 
ATOM      7  N   UNL     1       1.116   9.337  19.699  0.00  0.00    +0.000 NA
ATOM      8  H   UNL     1      -1.509  10.573  20.930  0.00  0.00    +0.000 HD
ENDROOT
BRANCH   1   9
ATOM      9  C   UNL     1      -0.517  11.620  19.433  0.00  0.00    +0.000 C 
BRANCH   9  10
ATOM     10  C   UNL     1      -1.509  11.209  18.336  0.00  0.00    +0.000 A 
ATOM     11  C   UNL     1      -1.175  10.160  17.456  0.00  0.00    +0.000 A 
ATOM     12  C   UNL     1      -2.013   9.806  16.397  0.00  0.00    +0.000 A 
ATOM     13  C   UNL     1      -3.215  10.481  16.211  0.00  0.00    +0.000 A 
ATOM     14 CL   UNL     1      -4.236  10.067  14.891  0.00  0.00    +0.000 Cl
ATOM     15  C   UNL     1      -3.594  11.487  17.091  0.00  0.00    +0.000 A 
ATOM     16  C   UNL     1      -2.750  11.845  18.147  0.00  0.00    +0.000 A 
ENDBRANCH   9  10
BRANCH   9  17
ATOM     17  C   UNL     1      -0.617  13.124  19.739  0.00  0.00    +0.000 C 
BRANCH  17  19
ATOM     18  O   UNL     1      -1.613  13.632  21.860  0.00  0.00    +0.000 OA
ATOM     19  C   UNL     1      -0.604  13.408  21.212  0.00  0.00    +0.000 C 
BRANCH  19  20
ATOM     20  O   UNL     1       0.632  13.409  21.761  0.00  0.00    +0.000 OA
ATOM     21  H   UNL     1       1.264  12.856  21.249  0.00  0.00    +0.000 HD
ENDBRANCH  19  20
ENDBRANCH  17  19
ENDBRANCH   9  17
ENDBRANCH   1   9
BRANCH   5  22
ATOM     22  O   UNL     1       2.304   6.020  20.438  0.00  0.00    +0.000 OA
BRANCH  22  23
ATOM     23  C   UNL     1       1.617   4.807  20.762  0.00  0.00    +0.000 C 
BRANCH  23  24
ATOM     24  C   UNL     1       2.585   3.641  20.584  0.00  0.00    +0.000 C 
BRANCH  24  25
ATOM     25  C   UNL     1       3.308   3.760  19.274  0.00  0.00    +0.000 A 
ATOM     26  C   UNL     1       2.644   3.576  18.069  0.00  0.00    +0.000 A 
ATOM     27  C   UNL     1       3.374   3.678  16.889  0.00  0.00    +0.000 A 
ATOM     28  C   UNL     1       4.743   3.951  16.945  0.00  0.00    +0.000 A 
ATOM     29  C   UNL     1       5.334   4.103  18.194  0.00  0.00    +0.000 A 
ATOM     30  N   UNL     1       4.637   4.026  19.341  0.00  0.00    +0.000 NA
ATOM     31  N   UNL     1       6.705   4.252  18.325  0.00  0.00    +0.000 N 
ATOM     32  C   UNL     1       7.378   4.974  17.270  0.00  0.00    +0.000 C 
ATOM     33  C   UNL     1       7.023   4.427  15.892  0.00  0.00    +0.000 C 
ATOM     34  C   UNL     1       5.542   4.101  15.686  0.00  0.00    +0.000 C 
ATOM     35  H   UNL     1       6.896   4.548  19.278  0.00  0.00    +0.000 HD
ENDBRANCH  24  25
ENDBRANCH  23  24
ENDBRANCH  22  23
ENDBRANCH   5  22
TORSDOF 9
ENDMDL
