MODEL 1
REMARK VINA RESULT:      -5.8      0.000      0.000
REMARK  Name = 
REMARK  4 active torsions:
REMARK  status: ('A' for Active; 'I' for Inactive)
REMARK    1  A    between atoms: C_2  and  O_3
REMARK    2  A    between atoms: C_2  and  C_4
REMARK    3  A    between atoms: C_4  and  S_5
REMARK    4  A    between atoms: S_5  and  C_6
REMARK                            x       y       z     vdW  Elec       q    Type
REMARK                         _______ _______ _______ _____ _____    ______ ____
ROOT
ATOM      1  C   UNL     1       5.102   4.870  18.444  0.00  0.00    +0.000 A 
ATOM      2  N   UNL     1       5.850   5.354  19.462  0.00  0.00    +0.000 NA
ATOM      3  C   UNL     1       7.164   5.567  19.234  0.00  0.00    +0.000 A 
ATOM      4  N   UNL     1       7.856   5.349  18.098  0.00  0.00    +0.000 NA
ATOM      5  C   UNL     1       7.055   4.873  17.131  0.00  0.00    +0.000 A 
ATOM      6  N   UNL     1       7.412   4.563  15.852  0.00  0.00    +0.000 N 
ATOM      7  C   UNL     1       6.287   4.131  15.205  0.00  0.00    +0.000 A 
ATOM      8  N   UNL     1       5.231   4.151  15.990  0.00  0.00    +0.000 NA
ATOM      9  C   UNL     1       5.697   4.607  17.207  0.00  0.00    +0.000 A 
ATOM     10  H   UNL     1       8.341   4.655  15.466  0.00  0.00    +0.000 HD
ENDROOT
BRANCH   1  11
ATOM     11  S   UNL     1       3.359   4.651  18.651  0.00  0.00    +0.000 S 
BRANCH  11  12
ATOM     12  C   UNL     1       3.374   3.325  19.904  0.00  0.00    +0.000 C 
BRANCH  12  14
ATOM     13  O   UNL     1       3.596   1.368  18.505  0.00  0.00    +0.000 OA
ATOM     14  C   UNL     1       4.048   2.062  19.407  0.00  0.00    +0.000 C 
BRANCH  14  15
ATOM     15  O   UNL     1       5.152   1.693  20.102  0.00  0.00    +0.000 OA
ATOM     16  H   UNL     1       5.441   2.389  20.729  0.00  0.00    +0.000 HD
ENDBRANCH  14  15
ENDBRANCH  12  14
ENDBRANCH  11  12
ENDBRANCH   1  11
TORSDOF 4
ENDMDL
MODEL 2
REMARK VINA RESULT:      -5.8      3.402      5.432
REMARK  Name = 
REMARK  4 active torsions:
REMARK  status: ('A' for Active; 'I' for Inactive)
REMARK    1  A    between atoms: C_2  and  O_3
REMARK    2  A    between atoms: C_2  and  C_4
REMARK    3  A    between atoms: C_4  and  S_5
REMARK    4  A    between atoms: S_5  and  C_6
REMARK                            x       y       z     vdW  Elec       q    Type
REMARK                         _______ _______ _______ _____ _____    ______ ____
ROOT
ATOM      1  C   UNL     1       3.720   3.915  18.384  0.00  0.00    +0.000 A 
ATOM      2  N   UNL     1       3.594   2.801  17.627  0.00  0.00    +0.000 NA
ATOM      3  C   UNL     1       2.482   2.051  17.788  0.00  0.00    +0.000 A 
ATOM      4  N   UNL     1       1.452   2.263  18.631  0.00  0.00    +0.000 NA
ATOM      5  C   UNL     1       1.640   3.383  19.347  0.00  0.00    +0.000 A 
ATOM      6  N   UNL     1       0.792   3.912  20.275  0.00  0.00    +0.000 N 
ATOM      7  C   UNL     1       1.365   5.062  20.746  0.00  0.00    +0.000 A 
ATOM      8  N   UNL     1       2.524   5.304  20.171  0.00  0.00    +0.000 NA
ATOM      9  C   UNL     1       2.717   4.254  19.295  0.00  0.00    +0.000 A 
ATOM     10  H   UNL     1      -0.098   3.519  20.544  0.00  0.00    +0.000 HD
ENDROOT
BRANCH   1  11
ATOM     11  S   UNL     1       5.110   4.986  18.160  0.00  0.00    +0.000 S 
BRANCH  11  12
ATOM     12  C   UNL     1       5.704   4.368  16.550  0.00  0.00    +0.000 C 
BRANCH  12  14
ATOM     13  O   UNL     1       7.519   5.409  15.343  0.00  0.00    +0.000 OA
ATOM     14  C   UNL     1       7.154   4.722  16.289  0.00  0.00    +0.000 C 
BRANCH  14  15
ATOM     15  O   UNL     1       8.044   4.140  17.129  0.00  0.00    +0.000 OA
ATOM     16  H   UNL     1       8.413   4.778  17.774  0.00  0.00    +0.000 HD
ENDBRANCH  14  15
ENDBRANCH  12  14
ENDBRANCH  11  12
ENDBRANCH   1  11
TORSDOF 4
ENDMDL
MODEL 3
REMARK VINA RESULT:      -5.7      1.448      1.526
REMARK  Name = 
REMARK  4 active torsions:
REMARK  status: ('A' for Active; 'I' for Inactive)
REMARK    1  A    between atoms: C_2  and  O_3
REMARK    2  A    between atoms: C_2  and  C_4
REMARK    3  A    between atoms: C_4  and  S_5
REMARK    4  A    between atoms: S_5  and  C_6
REMARK                            x       y       z     vdW  Elec       q    Type
REMARK                         _______ _______ _______ _____ _____    ______ ____
ROOT
ATOM      1  C   UNL     1       5.387   4.178  18.143  0.00  0.00    +0.000 A 
ATOM      2  N   UNL     1       5.870   4.736  19.277  0.00  0.00    +0.000 NA
ATOM      3  C   UNL     1       6.930   5.566  19.171  0.00  0.00    +0.000 A 
ATOM      4  N   UNL     1       7.599   5.920  18.055  0.00  0.00    +0.000 NA
ATOM      5  C   UNL     1       7.067   5.335  16.971  0.00  0.00    +0.000 A 
ATOM      6  N   UNL     1       7.475   5.485  15.677  0.00  0.00    +0.000 N 
ATOM      7  C   UNL     1       6.648   4.727  14.896  0.00  0.00    +0.000 A 
ATOM      8  N   UNL     1       5.732   4.105  15.608  0.00  0.00    +0.000 NA
ATOM      9  C   UNL     1       5.986   4.469  16.915  0.00  0.00    +0.000 A 
ATOM     10  H   UNL     1       8.242   6.066  15.371  0.00  0.00    +0.000 HD
ENDROOT
BRANCH   1  11
ATOM     11  S   UNL     1       3.948   3.151  18.204  0.00  0.00    +0.000 S 
BRANCH  11  12
ATOM     12  C   UNL     1       4.038   2.618  19.946  0.00  0.00    +0.000 C 
BRANCH  12  14
ATOM     13  O   UNL     1       1.839   3.572  20.250  0.00  0.00    +0.000 OA
ATOM     14  C   UNL     1       2.767   2.921  20.714  0.00  0.00    +0.000 C 
BRANCH  14  15
ATOM     15  O   UNL     1       2.765   2.501  22.003  0.00  0.00    +0.000 OA
ATOM     16  H   UNL     1       2.565   1.544  22.077  0.00  0.00    +0.000 HD
ENDBRANCH  14  15
ENDBRANCH  12  14
ENDBRANCH  11  12
ENDBRANCH   1  11
TORSDOF 4
ENDMDL
MODEL 4
REMARK VINA RESULT:      -5.7      1.184      1.213
REMARK  Name = 
REMARK  4 active torsions:
REMARK  status: ('A' for Active; 'I' for Inactive)
REMARK    1  A    between atoms: C_2  and  O_3
REMARK    2  A    between atoms: C_2  and  C_4
REMARK    3  A    between atoms: C_4  and  S_5
REMARK    4  A    between atoms: S_5  and  C_6
REMARK                            x       y       z     vdW  Elec       q    Type
REMARK                         _______ _______ _______ _____ _____    ______ ____
ROOT
ATOM      1  C   UNL     1       5.087   5.037  17.205  0.00  0.00    +0.000 A 
ATOM      2  N   UNL     1       5.616   5.881  18.121  0.00  0.00    +0.000 NA
ATOM      3  C   UNL     1       6.780   6.494  17.816  0.00  0.00    +0.000 A 
ATOM      4  N   UNL     1       7.514   6.372  16.693  0.00  0.00    +0.000 NA
ATOM      5  C   UNL     1       6.932   5.525  15.829  0.00  0.00    +0.000 A 
ATOM      6  N   UNL     1       7.384   5.184  14.587  0.00  0.00    +0.000 N 
ATOM      7  C   UNL     1       6.480   4.312  14.047  0.00  0.00    +0.000 A 
ATOM      8  N   UNL     1       5.474   4.078  14.863  0.00  0.00    +0.000 NA
ATOM      9  C   UNL     1       5.746   4.826  15.991  0.00  0.00    +0.000 A 
ATOM     10  H   UNL     1       8.229   5.533  14.158  0.00  0.00    +0.000 HD
ENDROOT
BRANCH   1  11
ATOM     11  S   UNL     1       3.522   4.269  17.507  0.00  0.00    +0.000 S 
BRANCH  11  12
ATOM     12  C   UNL     1       3.819   3.645  19.195  0.00  0.00    +0.000 C 
BRANCH  12  14
ATOM     13  O   UNL     1       3.505   1.334  18.567  0.00  0.00    +0.000 OA
ATOM     14  C   UNL     1       4.126   2.161  19.221  0.00  0.00    +0.000 C 
BRANCH  14  15
ATOM     15  O   UNL     1       5.086   1.793  20.104  0.00  0.00    +0.000 OA
ATOM     16  H   UNL     1       5.448   2.560  20.595  0.00  0.00    +0.000 HD
ENDBRANCH  14  15
ENDBRANCH  12  14
ENDBRANCH  11  12
ENDBRANCH   1  11
TORSDOF 4
ENDMDL
MODEL 5
REMARK VINA RESULT:      -5.7      0.974      1.117
REMARK  Name = 
REMARK  4 active torsions:
REMARK  status: ('A' for Active; 'I' for Inactive)
REMARK    1  A    between atoms: C_2  and  O_3
REMARK    2  A    between atoms: C_2  and  C_4
REMARK    3  A    between atoms: C_4  and  S_5
REMARK    4  A    between atoms: S_5  and  C_6
REMARK                            x       y       z     vdW  Elec       q    Type
REMARK                         _______ _______ _______ _____ _____    ______ ____
ROOT
ATOM      1  C   UNL     1       4.818   4.850  18.057  0.00  0.00    +0.000 A 
ATOM      2  N   UNL     1       5.320   5.164  19.274  0.00  0.00    +0.000 NA
ATOM      3  C   UNL     1       6.662   5.263  19.396  0.00  0.00    +0.000 A 
ATOM      4  N   UNL     1       7.598   5.080  18.444  0.00  0.00    +0.000 NA
ATOM      5  C   UNL     1       7.032   4.775  17.266  0.00  0.00    +0.000 A 
ATOM      6  N   UNL     1       7.675   4.547  16.084  0.00  0.00    +0.000 N 
ATOM      7  C   UNL     1       6.719   4.290  15.140  0.00  0.00    +0.000 A 
ATOM      8  N   UNL     1       5.504   4.345  15.644  0.00  0.00    +0.000 NA
ATOM      9  C   UNL     1       5.682   4.641  16.980  0.00  0.00    +0.000 A 
ATOM     10  H   UNL     1       8.675   4.579  15.948  0.00  0.00    +0.000 HD
ENDROOT
BRANCH   1  11
ATOM     11  S   UNL     1       3.067   4.789  17.811  0.00  0.00    +0.000 S 
BRANCH  11  12
ATOM     12  C   UNL     1       2.872   3.001  17.507  0.00  0.00    +0.000 C 
BRANCH  12  14
ATOM     13  O   UNL     1       2.985   2.430  19.852  0.00  0.00    +0.000 OA
ATOM     14  C   UNL     1       3.289   2.160  18.697  0.00  0.00    +0.000 C 
BRANCH  14  15
ATOM     15  O   UNL     1       4.116   1.127  18.403  0.00  0.00    +0.000 OA
ATOM     16  H   UNL     1       4.803   0.999  19.090  0.00  0.00    +0.000 HD
ENDBRANCH  14  15
ENDBRANCH  12  14
ENDBRANCH  11  12
ENDBRANCH   1  11
TORSDOF 4
ENDMDL
MODEL 6
REMARK VINA RESULT:      -5.7      2.275      3.202
REMARK  Name = 
REMARK  4 active torsions:
REMARK  status: ('A' for Active; 'I' for Inactive)
REMARK    1  A    between atoms: C_2  and  O_3
REMARK    2  A    between atoms: C_2  and  C_4
REMARK    3  A    between atoms: C_4  and  S_5
REMARK    4  A    between atoms: S_5  and  C_6
REMARK                            x       y       z     vdW  Elec       q    Type
REMARK                         _______ _______ _______ _____ _____    ______ ____
ROOT
ATOM      1  C   UNL     1       4.776   4.839  18.290  0.00  0.00    +0.000 A 
ATOM      2  N   UNL     1       4.188   5.274  17.152  0.00  0.00    +0.000 NA
ATOM      3  C   UNL     1       4.851   6.184  16.406  0.00  0.00    +0.000 A 
ATOM      4  N   UNL     1       6.053   6.742  16.652  0.00  0.00    +0.000 NA
ATOM      5  C   UNL     1       6.579   6.265  17.791  0.00  0.00    +0.000 A 
ATOM      6  N   UNL     1       7.789   6.590  18.332  0.00  0.00    +0.000 N 
ATOM      7  C   UNL     1       7.933   5.863  19.481  0.00  0.00    +0.000 A 
ATOM      8  N   UNL     1       6.894   5.087  19.706  0.00  0.00    +0.000 NA
ATOM      9  C   UNL     1       6.029   5.334  18.658  0.00  0.00    +0.000 A 
ATOM     10  H   UNL     1       8.450   7.243  17.935  0.00  0.00    +0.000 HD
ENDROOT
BRANCH   1  11
ATOM     11  S   UNL     1       3.999   3.585  19.266  0.00  0.00    +0.000 S 
BRANCH  11  12
ATOM     12  C   UNL     1       2.794   4.615  20.168  0.00  0.00    +0.000 C 
BRANCH  12  14
ATOM     13  O   UNL     1       2.215   3.322  22.125  0.00  0.00    +0.000 OA
ATOM     14  C   UNL     1       1.872   3.796  21.049  0.00  0.00    +0.000 C 
BRANCH  14  15
ATOM     15  O   UNL     1       0.654   3.537  20.515  0.00  0.00    +0.000 OA
ATOM     16  H   UNL     1       0.650   3.638  19.540  0.00  0.00    +0.000 HD
ENDBRANCH  14  15
ENDBRANCH  12  14
ENDBRANCH  11  12
ENDBRANCH   1  11
TORSDOF 4
ENDMDL
MODEL 7
REMARK VINA RESULT:      -5.7      2.007      2.079
REMARK  Name = 
REMARK  4 active torsions:
REMARK  status: ('A' for Active; 'I' for Inactive)
REMARK    1  A    between atoms: C_2  and  O_3
REMARK    2  A    between atoms: C_2  and  C_4
REMARK    3  A    between atoms: C_4  and  S_5
REMARK    4  A    between atoms: S_5  and  C_6
REMARK                            x       y       z     vdW  Elec       q    Type
REMARK                         _______ _______ _______ _____ _____    ______ ____
ROOT
ATOM      1  C   UNL     1       5.364   4.207  18.149  0.00  0.00    +0.000 A 
ATOM      2  N   UNL     1       5.867   4.766  19.274  0.00  0.00    +0.000 NA
ATOM      3  C   UNL     1       6.942   5.575  19.152  0.00  0.00    +0.000 A 
ATOM      4  N   UNL     1       7.608   5.906  18.028  0.00  0.00    +0.000 NA
ATOM      5  C   UNL     1       7.056   5.321  16.953  0.00  0.00    +0.000 A 
ATOM      6  N   UNL     1       7.456   5.452  15.655  0.00  0.00    +0.000 N 
ATOM      7  C   UNL     1       6.609   4.703  14.887  0.00  0.00    +0.000 A 
ATOM      8  N   UNL     1       5.688   4.105  15.612  0.00  0.00    +0.000 NA
ATOM      9  C   UNL     1       5.959   4.476  16.914  0.00  0.00    +0.000 A 
ATOM     10  H   UNL     1       8.232   6.016  15.338  0.00  0.00    +0.000 HD
ENDROOT
BRANCH   1  11
ATOM     11  S   UNL     1       3.906   3.208  18.231  0.00  0.00    +0.000 S 
BRANCH  11  12
ATOM     12  C   UNL     1       2.649   4.526  18.318  0.00  0.00    +0.000 C 
BRANCH  12  14
ATOM     13  O   UNL     1       1.202   4.477  20.252  0.00  0.00    +0.000 OA
ATOM     14  C   UNL     1       2.249   4.856  19.742  0.00  0.00    +0.000 C 
BRANCH  14  15
ATOM     15  O   UNL     1       3.094   5.692  20.393  0.00  0.00    +0.000 OA
ATOM     16  H   UNL     1       2.642   6.193  21.103  0.00  0.00    +0.000 HD
ENDBRANCH  14  15
ENDBRANCH  12  14
ENDBRANCH  11  12
ENDBRANCH   1  11
TORSDOF 4
ENDMDL
MODEL 8
REMARK VINA RESULT:      -5.6      1.916      1.999
REMARK  Name = 
REMARK  4 active torsions:
REMARK  status: ('A' for Active; 'I' for Inactive)
REMARK    1  A    between atoms: C_2  and  O_3
REMARK    2  A    between atoms: C_2  and  C_4
REMARK    3  A    between atoms: C_4  and  S_5
REMARK    4  A    between atoms: S_5  and  C_6
REMARK                            x       y       z     vdW  Elec       q    Type
REMARK                         _______ _______ _______ _____ _____    ______ ____
ROOT
ATOM      1  C   UNL     1       5.688   4.432  18.567  0.00  0.00    +0.000 A 
ATOM      2  N   UNL     1       6.395   5.091  19.513  0.00  0.00    +0.000 NA
ATOM      3  C   UNL     1       7.421   5.871  19.107  0.00  0.00    +0.000 A 
ATOM      4  N   UNL     1       7.855   6.083  17.849  0.00  0.00    +0.000 NA
ATOM      5  C   UNL     1       7.110   5.404  16.963  0.00  0.00    +0.000 A 
ATOM      6  N   UNL     1       7.251   5.403  15.606  0.00  0.00    +0.000 N 
ATOM      7  C   UNL     1       6.276   4.593  15.093  0.00  0.00    +0.000 A 
ATOM      8  N   UNL     1       5.516   4.080  16.037  0.00  0.00    +0.000 NA
ATOM      9  C   UNL     1       6.031   4.572  17.219  0.00  0.00    +0.000 A 
ATOM     10  H   UNL     1       7.946   5.923  15.091  0.00  0.00    +0.000 HD
ENDROOT
BRANCH   1  11
ATOM     11  S   UNL     1       4.280   3.464  19.025  0.00  0.00    +0.000 S 
BRANCH  11  12
ATOM     12  C   UNL     1       2.967   4.695  18.733  0.00  0.00    +0.000 C 
BRANCH  12  14
ATOM     13  O   UNL     1       1.122   4.068  17.305  0.00  0.00    +0.000 OA
ATOM     14  C   UNL     1       1.629   4.055  18.419  0.00  0.00    +0.000 C 
BRANCH  14  15
ATOM     15  O   UNL     1       0.975   3.545  19.491  0.00  0.00    +0.000 OA
ATOM     16  H   UNL     1       1.578   3.059  20.092  0.00  0.00    +0.000 HD
ENDBRANCH  14  15
ENDBRANCH  12  14
ENDBRANCH  11  12
ENDBRANCH   1  11
TORSDOF 4
ENDMDL
MODEL 9
REMARK VINA RESULT:      -5.6      1.925      3.054
REMARK  Name = 
REMARK  4 active torsions:
REMARK  status: ('A' for Active; 'I' for Inactive)
REMARK    1  A    between atoms: C_2  and  O_3
REMARK    2  A    between atoms: C_2  and  C_4
REMARK    3  A    between atoms: C_4  and  S_5
REMARK    4  A    between atoms: S_5  and  C_6
REMARK                            x       y       z     vdW  Elec       q    Type
REMARK                         _______ _______ _______ _____ _____    ______ ____
ROOT
ATOM      1  C   UNL     1       4.896   3.971  18.130  0.00  0.00    +0.000 A 
ATOM      2  N   UNL     1       4.506   3.784  16.849  0.00  0.00    +0.000 NA
ATOM      3  C   UNL     1       5.224   4.385  15.876  0.00  0.00    +0.000 A 
ATOM      4  N   UNL     1       6.306   5.177  16.011  0.00  0.00    +0.000 NA
ATOM      5  C   UNL     1       6.639   5.318  17.304  0.00  0.00    +0.000 A 
ATOM      6  N   UNL     1       7.690   6.029  17.805  0.00  0.00    +0.000 N 
ATOM      7  C   UNL     1       7.669   5.889  19.165  0.00  0.00    +0.000 A 
ATOM      8  N   UNL     1       6.672   5.127  19.565  0.00  0.00    +0.000 NA
ATOM      9  C   UNL     1       6.010   4.767  18.409  0.00  0.00    +0.000 A 
ATOM     10  H   UNL     1       8.359   6.547  17.255  0.00  0.00    +0.000 HD
ENDROOT
BRANCH   1  11
ATOM     11  S   UNL     1       4.050   3.141  19.445  0.00  0.00    +0.000 S 
BRANCH  11  12
ATOM     12  C   UNL     1       2.903   2.120  18.461  0.00  0.00    +0.000 C 
BRANCH  12  14
ATOM     13  O   UNL     1       0.543   2.360  18.918  0.00  0.00    +0.000 OA
ATOM     14  C   UNL     1       1.535   2.756  18.318  0.00  0.00    +0.000 C 
BRANCH  14  15
ATOM     15  O   UNL     1       1.459   3.745  17.394  0.00  0.00    +0.000 OA
ATOM     16  H   UNL     1       0.609   3.727  16.905  0.00  0.00    +0.000 HD
ENDBRANCH  14  15
ENDBRANCH  12  14
ENDBRANCH  11  12
ENDBRANCH   1  11
TORSDOF 4
ENDMDL
