MODEL 1
REMARK VINA RESULT:      -7.9      0.000      0.000
REMARK  Name = 
REMARK  5 active torsions:
REMARK  status: ('A' for Active; 'I' for Inactive)
REMARK    1  A    between atoms: C_1  and  N_2
REMARK    2  A    between atoms: N_12  and  C_13
REMARK    3  A    between atoms: C_13  and  C_14
REMARK    4  A    between atoms: C_14  and  C_15
REMARK    5  A    between atoms: N_23  and  C_24
REMARK                            x       y       z     vdW  Elec       q    Type
REMARK                         _______ _______ _______ _____ _____    ______ ____
ROOT
ATOM      1  C   UNL     1       6.212   5.140  14.344  0.00  0.00    +0.000 C 
ATOM      2  N   UNL     1       6.001   4.903  15.757  0.00  0.00    +0.000 N 
ATOM      3  C   UNL     1       4.879   4.166  16.131  0.00  0.00    +0.000 A 
ATOM      4  O   UNL     1       4.046   3.717  15.350  0.00  0.00    +0.000 OA
ATOM      5  C   UNL     1       4.783   3.988  17.536  0.00  0.00    +0.000 A 
ATOM      6  C   UNL     1       5.677   4.499  18.428  0.00  0.00    +0.000 A 
ATOM      7  N   UNL     1       5.324   4.217  19.717  0.00  0.00    +0.000 NA
ATOM      8  C   UNL     1       4.197   3.532  19.614  0.00  0.00    +0.000 A 
ATOM      9  N   UNL     1       3.867   3.334  18.290  0.00  0.00    +0.000 N 
ATOM     10  C   UNL     1       2.672   2.645  17.841  0.00  0.00    +0.000 C 
ATOM     11  C   UNL     1       1.987   1.921  19.007  0.00  0.00    +0.000 C 
ATOM     12  N   UNL     1       1.925   2.722  20.250  0.00  0.00    +0.000 NA
ATOM     13  C   UNL     1       3.318   2.992  20.705  0.00  0.00    +0.000 C 
ATOM     14  N   UNL     1       6.772   5.216  18.007  0.00  0.00    +0.000 N 
ATOM     15  C   UNL     1       7.749   5.745  18.936  0.00  0.00    +0.000 C 
ATOM     16  C   UNL     1       6.967   5.430  16.640  0.00  0.00    +0.000 A 
ATOM     17  O   UNL     1       7.944   6.057  16.216  0.00  0.00    +0.000 OA
ENDROOT
BRANCH  12  18
ATOM     18  C   UNL     1       1.173   3.989  20.090  0.00  0.00    +0.000 C 
BRANCH  18  19
ATOM     19  C   UNL     1       1.789   5.171  20.860  0.00  0.00    +0.000 C 
BRANCH  19  20
ATOM     20  C   UNL     1       1.873   6.406  20.003  0.00  0.00    +0.000 A 
ATOM     21  C   UNL     1       2.296   6.328  18.671  0.00  0.00    +0.000 A 
ATOM     22  C   UNL     1       2.353   7.479  17.882  0.00  0.00    +0.000 A 
ATOM     23  C   UNL     1       1.986   8.717  18.413  0.00  0.00    +0.000 A 
ATOM     24  C   UNL     1       1.556   8.803  19.738  0.00  0.00    +0.000 A 
ATOM     25  C   UNL     1       1.501   7.653  20.517  0.00  0.00    +0.000 A 
ATOM     26  F   UNL     1       1.077   7.751  21.786  0.00  0.00    +0.000 F 
ENDBRANCH  19  20
ENDBRANCH  18  19
ENDBRANCH  12  18
TORSDOF 3
ENDMDL
MODEL 2
REMARK VINA RESULT:      -7.6      4.705      7.444
REMARK  Name = 
REMARK  5 active torsions:
REMARK  status: ('A' for Active; 'I' for Inactive)
REMARK    1  A    between atoms: C_1  and  N_2
REMARK    2  A    between atoms: N_12  and  C_13
REMARK    3  A    between atoms: C_13  and  C_14
REMARK    4  A    between atoms: C_14  and  C_15
REMARK    5  A    between atoms: N_23  and  C_24
REMARK                            x       y       z     vdW  Elec       q    Type
REMARK                         _______ _______ _______ _____ _____    ______ ____
ROOT
ATOM      1  C   UNL     1      -1.670  12.611  19.875  0.00  0.00    +0.000 C 
ATOM      2  N   UNL     1      -0.883  11.463  20.279  0.00  0.00    +0.000 N 
ATOM      3  C   UNL     1      -0.107  10.835  19.307  0.00  0.00    +0.000 A 
ATOM      4  O   UNL     1      -0.053  11.174  18.129  0.00  0.00    +0.000 OA
ATOM      5  C   UNL     1       0.628   9.734  19.820  0.00  0.00    +0.000 A 
ATOM      6  C   UNL     1       0.567   9.319  21.116  0.00  0.00    +0.000 A 
ATOM      7  N   UNL     1       1.338   8.211  21.329  0.00  0.00    +0.000 NA
ATOM      8  C   UNL     1       1.871   7.941  20.150  0.00  0.00    +0.000 A 
ATOM      9  N   UNL     1       1.494   8.884  19.217  0.00  0.00    +0.000 N 
ATOM     10  C   UNL     1       1.886   8.853  17.821  0.00  0.00    +0.000 C 
ATOM     11  C   UNL     1       2.994   7.819  17.587  0.00  0.00    +0.000 C 
ATOM     12  N   UNL     1       2.772   6.538  18.294  0.00  0.00    +0.000 NA
ATOM     13  C   UNL     1       2.773   6.805  19.760  0.00  0.00    +0.000 C 
ATOM     14  N   UNL     1      -0.212   9.977  22.038  0.00  0.00    +0.000 N 
ATOM     15  C   UNL     1      -0.271   9.569  23.426  0.00  0.00    +0.000 C 
ATOM     16  C   UNL     1      -0.960  11.088  21.636  0.00  0.00    +0.000 A 
ATOM     17  O   UNL     1      -1.662  11.717  22.434  0.00  0.00    +0.000 OA
ENDROOT
BRANCH  12  18
ATOM     18  C   UNL     1       1.520   5.858  17.887  0.00  0.00    +0.000 C 
BRANCH  18  19
ATOM     19  C   UNL     1       1.666   4.332  17.749  0.00  0.00    +0.000 C 
BRANCH  19  20
ATOM     20  C   UNL     1       1.969   3.682  19.073  0.00  0.00    +0.000 A 
ATOM     21  C   UNL     1       0.984   3.576  20.062  0.00  0.00    +0.000 A 
ATOM     22  C   UNL     1       1.274   2.956  21.279  0.00  0.00    +0.000 A 
ATOM     23  C   UNL     1       2.546   2.435  21.521  0.00  0.00    +0.000 A 
ATOM     24  C   UNL     1       3.533   2.530  20.538  0.00  0.00    +0.000 A 
ATOM     25  C   UNL     1       3.236   3.148  19.328  0.00  0.00    +0.000 A 
ATOM     26  F   UNL     1       4.193   3.224  18.389  0.00  0.00    +0.000 F 
ENDBRANCH  19  20
ENDBRANCH  18  19
ENDBRANCH  12  18
TORSDOF 3
ENDMDL
MODEL 3
REMARK VINA RESULT:      -7.6      4.150      5.942
REMARK  Name = 
REMARK  5 active torsions:
REMARK  status: ('A' for Active; 'I' for Inactive)
REMARK    1  A    between atoms: C_1  and  N_2
REMARK    2  A    between atoms: N_12  and  C_13
REMARK    3  A    between atoms: C_13  and  C_14
REMARK    4  A    between atoms: C_14  and  C_15
REMARK    5  A    between atoms: N_23  and  C_24
REMARK                            x       y       z     vdW  Elec       q    Type
REMARK                         _______ _______ _______ _____ _____    ______ ____
ROOT
ATOM      1  C   UNL     1       2.786   2.804  20.409  0.00  0.00    +0.000 C 
ATOM      2  N   UNL     1       2.947   4.019  19.636  0.00  0.00    +0.000 N 
ATOM      3  C   UNL     1       2.351   5.181  20.124  0.00  0.00    +0.000 A 
ATOM      4  O   UNL     1       1.687   5.246  21.153  0.00  0.00    +0.000 OA
ATOM      5  C   UNL     1       2.585   6.307  19.292  0.00  0.00    +0.000 A 
ATOM      6  C   UNL     1       3.295   6.257  18.130  0.00  0.00    +0.000 A 
ATOM      7  N   UNL     1       3.329   7.472  17.506  0.00  0.00    +0.000 NA
ATOM      8  C   UNL     1       2.626   8.272  18.290  0.00  0.00    +0.000 A 
ATOM      9  N   UNL     1       2.199   7.600  19.416  0.00  0.00    +0.000 N 
ATOM     10  C   UNL     1       1.379   8.189  20.456  0.00  0.00    +0.000 C 
ATOM     11  C   UNL     1       1.297   9.711  20.292  0.00  0.00    +0.000 C 
ATOM     12  N   UNL     1       1.096  10.149  18.892  0.00  0.00    +0.000 NA
ATOM     13  C   UNL     1       2.278   9.720  18.093  0.00  0.00    +0.000 C 
ATOM     14  N   UNL     1       3.867   5.085  17.695  0.00  0.00    +0.000 N 
ATOM     15  C   UNL     1       4.648   5.017  16.478  0.00  0.00    +0.000 C 
ATOM     16  C   UNL     1       3.711   3.923  18.455  0.00  0.00    +0.000 A 
ATOM     17  O   UNL     1       4.219   2.851  18.109  0.00  0.00    +0.000 OA
ENDROOT
BRANCH  12  18
ATOM     18  C   UNL     1      -0.156   9.630  18.293  0.00  0.00    +0.000 C 
BRANCH  18  19
ATOM     19  C   UNL     1      -1.414  10.397  18.739  0.00  0.00    +0.000 C 
BRANCH  19  20
ATOM     20  C   UNL     1      -2.379  10.586  17.599  0.00  0.00    +0.000 A 
ATOM     21  C   UNL     1      -2.151   9.981  16.358  0.00  0.00    +0.000 A 
ATOM     22  C   UNL     1      -3.063  10.151  15.314  0.00  0.00    +0.000 A 
ATOM     23  C   UNL     1      -4.211  10.924  15.499  0.00  0.00    +0.000 A 
ATOM     24  C   UNL     1      -4.450  11.526  16.736  0.00  0.00    +0.000 A 
ATOM     25  C   UNL     1      -3.538  11.351  17.770  0.00  0.00    +0.000 A 
ATOM     26  F   UNL     1      -3.787  11.928  18.956  0.00  0.00    +0.000 F 
ENDBRANCH  19  20
ENDBRANCH  18  19
ENDBRANCH  12  18
TORSDOF 3
ENDMDL
MODEL 4
REMARK VINA RESULT:      -7.3      3.355      7.174
REMARK  Name = 
REMARK  5 active torsions:
REMARK  status: ('A' for Active; 'I' for Inactive)
REMARK    1  A    between atoms: C_1  and  N_2
REMARK    2  A    between atoms: N_12  and  C_13
REMARK    3  A    between atoms: C_13  and  C_14
REMARK    4  A    between atoms: C_14  and  C_15
REMARK    5  A    between atoms: N_23  and  C_24
REMARK                            x       y       z     vdW  Elec       q    Type
REMARK                         _______ _______ _______ _____ _____    ______ ____
ROOT
ATOM      1  C   UNL     1       0.645   4.213  19.870  0.00  0.00    +0.000 C 
ATOM      2  N   UNL     1       2.055   4.033  19.588  0.00  0.00    +0.000 N 
ATOM      3  C   UNL     1       2.635   4.858  18.625  0.00  0.00    +0.000 A 
ATOM      4  O   UNL     1       2.034   5.716  17.987  0.00  0.00    +0.000 OA
ATOM      5  C   UNL     1       4.018   4.598  18.443  0.00  0.00    +0.000 A 
ATOM      6  C   UNL     1       4.705   3.634  19.118  0.00  0.00    +0.000 A 
ATOM      7  N   UNL     1       6.010   3.569  18.718  0.00  0.00    +0.000 NA
ATOM      8  C   UNL     1       6.122   4.498  17.784  0.00  0.00    +0.000 A 
ATOM      9  N   UNL     1       4.932   5.178  17.628  0.00  0.00    +0.000 N 
ATOM     10  C   UNL     1       4.719   6.237  16.660  0.00  0.00    +0.000 C 
ATOM     11  C   UNL     1       6.048   6.695  16.047  0.00  0.00    +0.000 C 
ATOM     12  N   UNL     1       6.956   5.580  15.696  0.00  0.00    +0.000 NA
ATOM     13  C   UNL     1       7.317   4.857  16.948  0.00  0.00    +0.000 C 
ATOM     14  N   UNL     1       4.087   2.849  20.062  0.00  0.00    +0.000 N 
ATOM     15  C   UNL     1       4.804   1.837  20.809  0.00  0.00    +0.000 C 
ATOM     16  C   UNL     1       2.728   3.039  20.329  0.00  0.00    +0.000 A 
ATOM     17  O   UNL     1       2.136   2.366  21.179  0.00  0.00    +0.000 OA
ENDROOT
BRANCH  12  18
ATOM     18  C   UNL     1       6.377   4.646  14.702  0.00  0.00    +0.000 C 
BRANCH  18  19
ATOM     19  C   UNL     1       6.880   4.885  13.268  0.00  0.00    +0.000 C 
BRANCH  19  20
ATOM     20  C   UNL     1       6.654   3.680  12.394  0.00  0.00    +0.000 A 
ATOM     21  C   UNL     1       7.734   2.987  11.834  0.00  0.00    +0.000 A 
ATOM     22  C   UNL     1       7.511   1.860  11.040  0.00  0.00    +0.000 A 
ATOM     23  C   UNL     1       6.211   1.414  10.798  0.00  0.00    +0.000 A 
ATOM     24  C   UNL     1       5.128   2.095  11.357  0.00  0.00    +0.000 A 
ATOM     25  C   UNL     1       5.358   3.215  12.148  0.00  0.00    +0.000 A 
ATOM     26  F   UNL     1       4.308   3.854  12.687  0.00  0.00    +0.000 F 
ENDBRANCH  19  20
ENDBRANCH  18  19
ENDBRANCH  12  18
TORSDOF 3
ENDMDL
MODEL 5
REMARK VINA RESULT:      -7.3      4.328      6.126
REMARK  Name = 
REMARK  5 active torsions:
REMARK  status: ('A' for Active; 'I' for Inactive)
REMARK    1  A    between atoms: C_1  and  N_2
REMARK    2  A    between atoms: N_12  and  C_13
REMARK    3  A    between atoms: C_13  and  C_14
REMARK    4  A    between atoms: C_14  and  C_15
REMARK    5  A    between atoms: N_23  and  C_24
REMARK                            x       y       z     vdW  Elec       q    Type
REMARK                         _______ _______ _______ _____ _____    ______ ____
ROOT
ATOM      1  C   UNL     1       3.188   2.991  20.186  0.00  0.00    +0.000 C 
ATOM      2  N   UNL     1       3.169   4.283  19.531  0.00  0.00    +0.000 N 
ATOM      3  C   UNL     1       2.479   5.319  20.158  0.00  0.00    +0.000 A 
ATOM      4  O   UNL     1       1.873   5.212  21.219  0.00  0.00    +0.000 OA
ATOM      5  C   UNL     1       2.540   6.537  19.432  0.00  0.00    +0.000 A 
ATOM      6  C   UNL     1       3.183   6.678  18.239  0.00  0.00    +0.000 A 
ATOM      7  N   UNL     1       3.048   7.941  17.738  0.00  0.00    +0.000 NA
ATOM      8  C   UNL     1       2.307   8.579  18.629  0.00  0.00    +0.000 A 
ATOM      9  N   UNL     1       2.022   7.760  19.701  0.00  0.00    +0.000 N 
ATOM     10  C   UNL     1       1.204   8.152  20.832  0.00  0.00    +0.000 C 
ATOM     11  C   UNL     1       0.947   9.664  20.824  0.00  0.00    +0.000 C 
ATOM     12  N   UNL     1       0.619  10.204  19.485  0.00  0.00    +0.000 NA
ATOM     13  C   UNL     1       1.792   9.990  18.592  0.00  0.00    +0.000 C 
ATOM     14  N   UNL     1       3.854   5.625  17.663  0.00  0.00    +0.000 N 
ATOM     15  C   UNL     1       4.567   5.760  16.411  0.00  0.00    +0.000 C 
ATOM     16  C   UNL     1       3.870   4.386  18.311  0.00  0.00    +0.000 A 
ATOM     17  O   UNL     1       4.472   3.417  17.837  0.00  0.00    +0.000 OA
ENDROOT
BRANCH  12  18
ATOM     18  C   UNL     1      -0.601   9.603  18.897  0.00  0.00    +0.000 C 
BRANCH  18  19
ATOM     19  C   UNL     1      -0.901  10.093  17.469  0.00  0.00    +0.000 C 
BRANCH  19  20
ATOM     20  C   UNL     1      -2.302  10.630  17.350  0.00  0.00    +0.000 A 
ATOM     21  C   UNL     1      -2.960  11.169  18.462  0.00  0.00    +0.000 A 
ATOM     22  C   UNL     1      -4.254  11.680  18.334  0.00  0.00    +0.000 A 
ATOM     23  C   UNL     1      -4.902  11.660  17.098  0.00  0.00    +0.000 A 
ATOM     24  C   UNL     1      -4.250  11.130  15.982  0.00  0.00    +0.000 A 
ATOM     25  C   UNL     1      -2.962  10.625  16.117  0.00  0.00    +0.000 A 
ATOM     26  F   UNL     1      -2.346  10.128  15.033  0.00  0.00    +0.000 F 
ENDBRANCH  19  20
ENDBRANCH  18  19
ENDBRANCH  12  18
TORSDOF 3
ENDMDL
MODEL 6
REMARK VINA RESULT:      -7.2      1.125      1.482
REMARK  Name = 
REMARK  5 active torsions:
REMARK  status: ('A' for Active; 'I' for Inactive)
REMARK    1  A    between atoms: C_1  and  N_2
REMARK    2  A    between atoms: N_12  and  C_13
REMARK    3  A    between atoms: C_13  and  C_14
REMARK    4  A    between atoms: C_14  and  C_15
REMARK    5  A    between atoms: N_23  and  C_24
REMARK                            x       y       z     vdW  Elec       q    Type
REMARK                         _______ _______ _______ _____ _____    ______ ____
ROOT
ATOM      1  C   UNL     1       5.819   4.158  14.187  0.00  0.00    +0.000 C 
ATOM      2  N   UNL     1       5.685   4.126  15.629  0.00  0.00    +0.000 N 
ATOM      3  C   UNL     1       4.473   3.689  16.159  0.00  0.00    +0.000 A 
ATOM      4  O   UNL     1       3.503   3.344  15.492  0.00  0.00    +0.000 OA
ATOM      5  C   UNL     1       4.463   3.690  17.578  0.00  0.00    +0.000 A 
ATOM      6  C   UNL     1       5.515   4.094  18.344  0.00  0.00    +0.000 A 
ATOM      7  N   UNL     1       5.222   4.035  19.677  0.00  0.00    +0.000 NA
ATOM      8  C   UNL     1       3.975   3.598  19.729  0.00  0.00    +0.000 A 
ATOM      9  N   UNL     1       3.500   3.330  18.461  0.00  0.00    +0.000 N 
ATOM     10  C   UNL     1       2.157   2.866  18.176  0.00  0.00    +0.000 C 
ATOM     11  C   UNL     1       1.441   2.435  19.461  0.00  0.00    +0.000 C 
ATOM     12  N   UNL     1       1.649   3.362  20.597  0.00  0.00    +0.000 NA
ATOM     13  C   UNL     1       3.101   3.379  20.929  0.00  0.00    +0.000 C 
ATOM     14  N   UNL     1       6.693   4.513  17.771  0.00  0.00    +0.000 N 
ATOM     15  C   UNL     1       7.832   4.920  18.566  0.00  0.00    +0.000 C 
ATOM     16  C   UNL     1       6.810   4.530  16.379  0.00  0.00    +0.000 A 
ATOM     17  O   UNL     1       7.854   4.885  15.822  0.00  0.00    +0.000 OA
ENDROOT
BRANCH  12  18
ATOM     18  C   UNL     1       1.159   4.734  20.326  0.00  0.00    +0.000 C 
BRANCH  18  19
ATOM     19  C   UNL     1       2.110   5.836  20.825  0.00  0.00    +0.000 C 
BRANCH  19  20
ATOM     20  C   UNL     1       1.825   7.157  20.160  0.00  0.00    +0.000 A 
ATOM     21  C   UNL     1       1.103   8.154  20.825  0.00  0.00    +0.000 A 
ATOM     22  C   UNL     1       0.860   9.380  20.203  0.00  0.00    +0.000 A 
ATOM     23  C   UNL     1       1.336   9.624  18.914  0.00  0.00    +0.000 A 
ATOM     24  C   UNL     1       2.064   8.638  18.245  0.00  0.00    +0.000 A 
ATOM     25  C   UNL     1       2.302   7.420  18.872  0.00  0.00    +0.000 A 
ATOM     26  F   UNL     1       3.011   6.485  18.219  0.00  0.00    +0.000 F 
ENDBRANCH  19  20
ENDBRANCH  18  19
ENDBRANCH  12  18
TORSDOF 3
ENDMDL
MODEL 7
REMARK VINA RESULT:      -7.2      0.953      1.009
REMARK  Name = 
REMARK  5 active torsions:
REMARK  status: ('A' for Active; 'I' for Inactive)
REMARK    1  A    between atoms: C_1  and  N_2
REMARK    2  A    between atoms: N_12  and  C_13
REMARK    3  A    between atoms: C_13  and  C_14
REMARK    4  A    between atoms: C_14  and  C_15
REMARK    5  A    between atoms: N_23  and  C_24
REMARK                            x       y       z     vdW  Elec       q    Type
REMARK                         _______ _______ _______ _____ _____    ______ ____
ROOT
ATOM      1  C   UNL     1       5.849   3.921  14.589  0.00  0.00    +0.000 C 
ATOM      2  N   UNL     1       5.655   4.023  16.021  0.00  0.00    +0.000 N 
ATOM      3  C   UNL     1       4.407   3.672  16.533  0.00  0.00    +0.000 A 
ATOM      4  O   UNL     1       3.455   3.297  15.857  0.00  0.00    +0.000 OA
ATOM      5  C   UNL     1       4.339   3.801  17.945  0.00  0.00    +0.000 A 
ATOM      6  C   UNL     1       5.371   4.240  18.718  0.00  0.00    +0.000 A 
ATOM      7  N   UNL     1       5.022   4.310  20.037  0.00  0.00    +0.000 NA
ATOM      8  C   UNL     1       3.760   3.917  20.072  0.00  0.00    +0.000 A 
ATOM      9  N   UNL     1       3.329   3.551  18.813  0.00  0.00    +0.000 N 
ATOM     10  C   UNL     1       1.984   3.103  18.511  0.00  0.00    +0.000 C 
ATOM     11  C   UNL     1       1.201   2.811  19.796  0.00  0.00    +0.000 C 
ATOM     12  N   UNL     1       1.393   3.830  20.854  0.00  0.00    +0.000 NA
ATOM     13  C   UNL     1       2.830   3.833  21.247  0.00  0.00    +0.000 C 
ATOM     14  N   UNL     1       6.586   4.570  18.163  0.00  0.00    +0.000 N 
ATOM     15  C   UNL     1       7.704   5.013  18.969  0.00  0.00    +0.000 C 
ATOM     16  C   UNL     1       6.760   4.459  16.781  0.00  0.00    +0.000 A 
ATOM     17  O   UNL     1       7.838   4.731  16.242  0.00  0.00    +0.000 OA
ENDROOT
BRANCH  12  18
ATOM     18  C   UNL     1       0.961   5.186  20.441  0.00  0.00    +0.000 C 
BRANCH  18  19
ATOM     19  C   UNL     1       1.978   6.288  20.791  0.00  0.00    +0.000 C 
BRANCH  19  20
ATOM     20  C   UNL     1       1.956   7.402  19.778  0.00  0.00    +0.000 A 
ATOM     21  C   UNL     1       2.585   7.256  18.537  0.00  0.00    +0.000 A 
ATOM     22  C   UNL     1       2.543   8.291  17.600  0.00  0.00    +0.000 A 
ATOM     23  C   UNL     1       1.872   9.480  17.893  0.00  0.00    +0.000 A 
ATOM     24  C   UNL     1       1.237   9.632  19.127  0.00  0.00    +0.000 A 
ATOM     25  C   UNL     1       1.282   8.596  20.053  0.00  0.00    +0.000 A 
ATOM     26  F   UNL     1       0.659   8.755  21.231  0.00  0.00    +0.000 F 
ENDBRANCH  19  20
ENDBRANCH  18  19
ENDBRANCH  12  18
TORSDOF 3
ENDMDL
MODEL 8
REMARK VINA RESULT:      -7.1      4.633      7.392
REMARK  Name = 
REMARK  5 active torsions:
REMARK  status: ('A' for Active; 'I' for Inactive)
REMARK    1  A    between atoms: C_1  and  N_2
REMARK    2  A    between atoms: N_12  and  C_13
REMARK    3  A    between atoms: C_13  and  C_14
REMARK    4  A    between atoms: C_14  and  C_15
REMARK    5  A    between atoms: N_23  and  C_24
REMARK                            x       y       z     vdW  Elec       q    Type
REMARK                         _______ _______ _______ _____ _____    ______ ____
ROOT
ATOM      1  C   UNL     1      -1.893  12.515  19.579  0.00  0.00    +0.000 C 
ATOM      2  N   UNL     1      -1.071  11.428  20.073  0.00  0.00    +0.000 N 
ATOM      3  C   UNL     1      -0.253  10.767  19.158  0.00  0.00    +0.000 A 
ATOM      4  O   UNL     1      -0.190  11.028  17.961  0.00  0.00    +0.000 OA
ATOM      5  C   UNL     1       0.512   9.732  19.756  0.00  0.00    +0.000 A 
ATOM      6  C   UNL     1       0.442   9.403  21.076  0.00  0.00    +0.000 A 
ATOM      7  N   UNL     1       1.251   8.343  21.377  0.00  0.00    +0.000 NA
ATOM      8  C   UNL     1       1.816   8.015  20.227  0.00  0.00    +0.000 A 
ATOM      9  N   UNL     1       1.421   8.878  19.226  0.00  0.00    +0.000 N 
ATOM     10  C   UNL     1       1.841   8.769  17.843  0.00  0.00    +0.000 C 
ATOM     11  C   UNL     1       2.992   7.766  17.697  0.00  0.00    +0.000 C 
ATOM     12  N   UNL     1       2.805   6.527  18.485  0.00  0.00    +0.000 NA
ATOM     13  C   UNL     1       2.767   6.891  19.930  0.00  0.00    +0.000 C 
ATOM     14  N   UNL     1      -0.378  10.090  21.939  0.00  0.00    +0.000 N 
ATOM     15  C   UNL     1      -0.448   9.774  23.350  0.00  0.00    +0.000 C 
ATOM     16  C   UNL     1      -1.160  11.141  21.451  0.00  0.00    +0.000 A 
ATOM     17  O   UNL     1      -1.901  11.794  22.192  0.00  0.00    +0.000 OA
ENDROOT
BRANCH  12  18
ATOM     18  C   UNL     1       1.587   5.773  18.105  0.00  0.00    +0.000 C 
BRANCH  18  19
ATOM     19  C   UNL     1       1.848   4.281  17.833  0.00  0.00    +0.000 C 
BRANCH  19  20
ATOM     20  C   UNL     1       2.313   3.565  19.074  0.00  0.00    +0.000 A 
ATOM     21  C   UNL     1       3.602   3.024  19.149  0.00  0.00    +0.000 A 
ATOM     22  C   UNL     1       4.026   2.378  20.313  0.00  0.00    +0.000 A 
ATOM     23  C   UNL     1       3.171   2.267  21.410  0.00  0.00    +0.000 A 
ATOM     24  C   UNL     1       1.886   2.809  21.346  0.00  0.00    +0.000 A 
ATOM     25  C   UNL     1       1.471   3.452  20.185  0.00  0.00    +0.000 A 
ATOM     26  F   UNL     1       0.237   3.976  20.142  0.00  0.00    +0.000 F 
ENDBRANCH  19  20
ENDBRANCH  18  19
ENDBRANCH  12  18
TORSDOF 3
ENDMDL
MODEL 9
REMARK VINA RESULT:      -6.9      4.541      6.354
REMARK  Name = 
REMARK  5 active torsions:
REMARK  status: ('A' for Active; 'I' for Inactive)
REMARK    1  A    between atoms: C_1  and  N_2
REMARK    2  A    between atoms: N_12  and  C_13
REMARK    3  A    between atoms: C_13  and  C_14
REMARK    4  A    between atoms: C_14  and  C_15
REMARK    5  A    between atoms: N_23  and  C_24
REMARK                            x       y       z     vdW  Elec       q    Type
REMARK                         _______ _______ _______ _____ _____    ______ ____
ROOT
ATOM      1  C   UNL     1       3.395   3.563  19.673  0.00  0.00    +0.000 C 
ATOM      2  N   UNL     1       3.321   4.891  19.097  0.00  0.00    +0.000 N 
ATOM      3  C   UNL     1       2.521   5.834  19.740  0.00  0.00    +0.000 A 
ATOM      4  O   UNL     1       1.861   5.617  20.751  0.00  0.00    +0.000 OA
ATOM      5  C   UNL     1       2.536   7.097  19.093  0.00  0.00    +0.000 A 
ATOM      6  C   UNL     1       3.238   7.359  17.955  0.00  0.00    +0.000 A 
ATOM      7  N   UNL     1       3.041   8.639  17.522  0.00  0.00    +0.000 NA
ATOM      8  C   UNL     1       2.204   9.166  18.400  0.00  0.00    +0.000 A 
ATOM      9  N   UNL     1       1.915   8.262  19.401  0.00  0.00    +0.000 N 
ATOM     10  C   UNL     1       1.004   8.523  20.498  0.00  0.00    +0.000 C 
ATOM     11  C   UNL     1       0.638  10.010  20.564  0.00  0.00    +0.000 C 
ATOM     12  N   UNL     1       0.353  10.611  19.242  0.00  0.00    +0.000 NA
ATOM     13  C   UNL     1       1.590  10.537  18.415  0.00  0.00    +0.000 C 
ATOM     14  N   UNL     1       4.017   6.394  17.362  0.00  0.00    +0.000 N 
ATOM     15  C   UNL     1       4.792   6.658  16.168  0.00  0.00    +0.000 C 
ATOM     16  C   UNL     1       4.085   5.120  17.934  0.00  0.00    +0.000 A 
ATOM     17  O   UNL     1       4.783   4.227  17.442  0.00  0.00    +0.000 OA
ENDROOT
BRANCH  12  18
ATOM     18  C   UNL     1      -0.783   9.967  18.541  0.00  0.00    +0.000 C 
BRANCH  18  19
ATOM     19  C   UNL     1      -1.596  10.937  17.665  0.00  0.00    +0.000 C 
BRANCH  19  20
ATOM     20  C   UNL     1      -2.833  11.419  18.375  0.00  0.00    +0.000 A 
ATOM     21  C   UNL     1      -2.738  12.235  19.508  0.00  0.00    +0.000 A 
ATOM     22  C   UNL     1      -3.895  12.689  20.147  0.00  0.00    +0.000 A 
ATOM     23  C   UNL     1      -5.155  12.335  19.661  0.00  0.00    +0.000 A 
ATOM     24  C   UNL     1      -5.258  11.526  18.527  0.00  0.00    +0.000 A 
ATOM     25  C   UNL     1      -4.103  11.080  17.896  0.00  0.00    +0.000 A 
ATOM     26  F   UNL     1      -4.219  10.311  16.802  0.00  0.00    +0.000 F 
ENDBRANCH  19  20
ENDBRANCH  18  19
ENDBRANCH  12  18
TORSDOF 3
ENDMDL
