MODEL 1
REMARK VINA RESULT:      -7.4      0.000      0.000
REMARK  Name = 
REMARK  8 active torsions:
REMARK  status: ('A' for Active; 'I' for Inactive)
REMARK    1  A    between atoms: C_1  and  O_2
REMARK    2  A    between atoms: O_2  and  C_3
REMARK    3  A    between atoms: C_6  and  C_7
REMARK    4  A    between atoms: C_7  and  N_8
REMARK    5  A    between atoms: N_11  and  C_12
REMARK    6  A    between atoms: C_15  and  C_16
REMARK    7  A    between atoms: C_23  and  N_24
REMARK    8  A    between atoms: N_24  and  C_25
REMARK                            x       y       z     vdW  Elec       q    Type
REMARK                         _______ _______ _______ _____ _____    ______ ____
ROOT
ATOM      1  C   UNL     1       5.090   4.933  18.031  0.00  0.00    +0.000 A 
ATOM      2  N   UNL     1       4.122   5.302  18.915  0.00  0.00    +0.000 NA
ATOM      3  C   UNL     1       2.983   4.557  19.023  0.00  0.00    +0.000 A 
ATOM      4  C   UNL     1       1.906   4.857  19.860  0.00  0.00    +0.000 A 
ATOM      5  N   UNL     1       0.772   4.109  20.000  0.00  0.00    +0.000 NA
ATOM      6  C   UNL     1       0.691   2.992  19.266  0.00  0.00    +0.000 A 
ATOM      7  C   UNL     1       1.679   2.612  18.382  0.00  0.00    +0.000 A 
ATOM      8  C   UNL     1       2.820   3.390  18.255  0.00  0.00    +0.000 A 
ATOM      9  N   UNL     1       3.746   3.011  17.359  0.00  0.00    +0.000 NA
ATOM     10  C   UNL     1       4.848   3.792  17.206  0.00  0.00    +0.000 A 
ENDROOT
BRANCH   1  14
ATOM     11  N   UNL     1       8.325   7.940  18.104  0.00  0.00    +0.000 NA
ATOM     12  C   UNL     1       8.382   6.696  18.895  0.00  0.00    +0.000 C 
ATOM     13  C   UNL     1       7.075   5.888  19.154  0.00  0.00    +0.000 C 
ATOM     14  N   UNL     1       6.258   5.740  17.925  0.00  0.00    +0.000 N 
ATOM     15  C   UNL     1       6.005   7.062  17.305  0.00  0.00    +0.000 C 
ATOM     16  C   UNL     1       7.344   7.787  16.998  0.00  0.00    +0.000 C 
BRANCH  11  17
ATOM     17  C   UNL     1       8.074   9.160  18.886  0.00  0.00    +0.000 C 
BRANCH  17  21
ATOM     18  C   UNL     1      10.968  12.401  19.273  0.00  0.00    +0.000 A 
ATOM     19  C   UNL     1      10.685  11.900  17.999  0.00  0.00    +0.000 A 
ATOM     20  C   UNL     1       9.781  10.824  17.835  0.00  0.00    +0.000 A 
ATOM     21  C   UNL     1       9.168  10.219  18.945  0.00  0.00    +0.000 A 
ATOM     22  C   UNL     1       9.483  10.740  20.207  0.00  0.00    +0.000 A 
ATOM     23  F   UNL     1       8.895  10.226  21.297  0.00  0.00    +0.000 F 
ATOM     24  C   UNL     1      10.364  11.805  20.376  0.00  0.00    +0.000 A 
BRANCH  18  26
ATOM     25  C   UNL     1      11.608  14.674  18.922  0.00  0.00    +0.000 C 
ATOM     26  O   UNL     1      11.809  13.433  19.585  0.00  0.00    +0.000 OA
ENDBRANCH  18  26
ENDBRANCH  17  21
ENDBRANCH  11  17
ENDBRANCH   1  14
BRANCH   4  27
ATOM     27  C   UNL     1       1.919   6.066  20.638  0.00  0.00    +0.000 C 
ATOM     28  N   UNL     1       1.932   7.058  21.246  0.00  0.00    +0.000 NA
ENDBRANCH   4  27
BRANCH  10  29
ATOM     29  N   UNL     1       5.735   3.481  16.151  0.00  0.00    +0.000 N 
ATOM     30  H   UNL     1       6.653   3.317  16.558  0.00  0.00    +0.000 HD
BRANCH  29  31
ATOM     31  C   UNL     1       5.680   4.188  14.878  0.00  0.00    +0.000 C 
ATOM     32  C   UNL     1       6.958   4.790  14.353  0.00  0.00    +0.000 C 
ATOM     33  C   UNL     1       6.337   3.621  13.648  0.00  0.00    +0.000 C 
ENDBRANCH  29  31
ENDBRANCH  10  29
TORSDOF 7
ENDMDL
MODEL 2
REMARK VINA RESULT:      -7.4      5.140      7.364
REMARK  Name = 
REMARK  8 active torsions:
REMARK  status: ('A' for Active; 'I' for Inactive)
REMARK    1  A    between atoms: C_1  and  O_2
REMARK    2  A    between atoms: O_2  and  C_3
REMARK    3  A    between atoms: C_6  and  C_7
REMARK    4  A    between atoms: C_7  and  N_8
REMARK    5  A    between atoms: N_11  and  C_12
REMARK    6  A    between atoms: C_15  and  C_16
REMARK    7  A    between atoms: C_23  and  N_24
REMARK    8  A    between atoms: N_24  and  C_25
REMARK                            x       y       z     vdW  Elec       q    Type
REMARK                         _______ _______ _______ _____ _____    ______ ____
ROOT
ATOM      1  C   UNL     1       3.106   6.475  17.915  0.00  0.00    +0.000 A 
ATOM      2  N   UNL     1       4.376   6.925  17.720  0.00  0.00    +0.000 NA
ATOM      3  C   UNL     1       5.328   6.076  17.232  0.00  0.00    +0.000 A 
ATOM      4  C   UNL     1       6.670   6.409  17.030  0.00  0.00    +0.000 A 
ATOM      5  N   UNL     1       7.628   5.582  16.519  0.00  0.00    +0.000 NA
ATOM      6  C   UNL     1       7.242   4.343  16.185  0.00  0.00    +0.000 A 
ATOM      7  C   UNL     1       5.951   3.894  16.369  0.00  0.00    +0.000 A 
ATOM      8  C   UNL     1       4.996   4.753  16.894  0.00  0.00    +0.000 A 
ATOM      9  N   UNL     1       3.758   4.273  17.095  0.00  0.00    +0.000 NA
ATOM     10  C   UNL     1       2.830   5.101  17.643  0.00  0.00    +0.000 A 
ENDROOT
BRANCH   1  14
ATOM     11  N   UNL     1       0.699   9.656  19.815  0.00  0.00    +0.000 NA
ATOM     12  C   UNL     1       0.852   9.545  18.351  0.00  0.00    +0.000 C 
ATOM     13  C   UNL     1       2.011   8.688  17.761  0.00  0.00    +0.000 C 
ATOM     14  N   UNL     1       2.140   7.377  18.444  0.00  0.00    +0.000 N 
ATOM     15  C   UNL     1       2.247   7.562  19.910  0.00  0.00    +0.000 C 
ATOM     16  C   UNL     1       1.027   8.354  20.454  0.00  0.00    +0.000 C 
BRANCH  11  17
ATOM     17  C   UNL     1       1.442  10.765  20.432  0.00  0.00    +0.000 C 
BRANCH  17  21
ATOM     18  C   UNL     1       0.248  14.690  18.951  0.00  0.00    +0.000 A 
ATOM     19  C   UNL     1       1.546  14.242  18.696  0.00  0.00    +0.000 A 
ATOM     20  C   UNL     1       1.984  12.991  19.191  0.00  0.00    +0.000 A 
ATOM     21  C   UNL     1       1.138  12.185  19.970  0.00  0.00    +0.000 A 
ATOM     22  C   UNL     1      -0.154  12.671  20.214  0.00  0.00    +0.000 A 
ATOM     23  F   UNL     1      -1.017  11.923  20.919  0.00  0.00    +0.000 F 
ATOM     24  C   UNL     1      -0.596  13.896  19.722  0.00  0.00    +0.000 A 
BRANCH  18  26
ATOM     25  C   UNL     1       0.532  17.000  18.417  0.00  0.00    +0.000 C 
ATOM     26  O   UNL     1      -0.315  15.865  18.535  0.00  0.00    +0.000 OA
ENDBRANCH  18  26
ENDBRANCH  17  21
ENDBRANCH  11  17
ENDBRANCH   1  14
BRANCH   4  27
ATOM     27  C   UNL     1       7.151   7.709  17.411  0.00  0.00    +0.000 C 
ATOM     28  N   UNL     1       7.550   8.763  17.697  0.00  0.00    +0.000 NA
ENDBRANCH   4  27
BRANCH  10  29
ATOM     29  N   UNL     1       1.582   4.545  18.004  0.00  0.00    +0.000 N 
ATOM     30  H   UNL     1       0.866   5.242  17.810  0.00  0.00    +0.000 HD
BRANCH  29  31
ATOM     31  C   UNL     1       1.427   3.739  19.209  0.00  0.00    +0.000 C 
ATOM     32  C   UNL     1       0.602   2.483  19.113  0.00  0.00    +0.000 C 
ATOM     33  C   UNL     1       2.083   2.390  19.328  0.00  0.00    +0.000 C 
ENDBRANCH  29  31
ENDBRANCH  10  29
TORSDOF 7
ENDMDL
MODEL 3
REMARK VINA RESULT:      -7.3      5.052      8.100
REMARK  Name = 
REMARK  8 active torsions:
REMARK  status: ('A' for Active; 'I' for Inactive)
REMARK    1  A    between atoms: C_1  and  O_2
REMARK    2  A    between atoms: O_2  and  C_3
REMARK    3  A    between atoms: C_6  and  C_7
REMARK    4  A    between atoms: C_7  and  N_8
REMARK    5  A    between atoms: N_11  and  C_12
REMARK    6  A    between atoms: C_15  and  C_16
REMARK    7  A    between atoms: C_23  and  N_24
REMARK    8  A    between atoms: N_24  and  C_25
REMARK                            x       y       z     vdW  Elec       q    Type
REMARK                         _______ _______ _______ _____ _____    ______ ____
ROOT
ATOM      1  C   UNL     1       3.158   6.496  17.962  0.00  0.00    +0.000 A 
ATOM      2  N   UNL     1       4.395   7.021  17.741  0.00  0.00    +0.000 NA
ATOM      3  C   UNL     1       5.377   6.239  17.204  0.00  0.00    +0.000 A 
ATOM      4  C   UNL     1       6.691   6.651  16.971  0.00  0.00    +0.000 A 
ATOM      5  N   UNL     1       7.678   5.892  16.411  0.00  0.00    +0.000 NA
ATOM      6  C   UNL     1       7.351   4.641  16.058  0.00  0.00    +0.000 A 
ATOM      7  C   UNL     1       6.093   4.116  16.270  0.00  0.00    +0.000 A 
ATOM      8  C   UNL     1       5.109   4.907  16.843  0.00  0.00    +0.000 A 
ATOM      9  N   UNL     1       3.906   4.353  17.068  0.00  0.00    +0.000 NA
ATOM     10  C   UNL     1       2.951   5.115  17.665  0.00  0.00    +0.000 A 
ENDROOT
BRANCH   1  14
ATOM     11  N   UNL     1       0.636   9.434  20.088  0.00  0.00    +0.000 NA
ATOM     12  C   UNL     1       0.859   9.490  18.631  0.00  0.00    +0.000 C 
ATOM     13  C   UNL     1       2.053   8.708  18.005  0.00  0.00    +0.000 C 
ATOM     14  N   UNL     1       2.160   7.329  18.542  0.00  0.00    +0.000 N 
ATOM     15  C   UNL     1       2.196   7.349  20.023  0.00  0.00    +0.000 C 
ATOM     16  C   UNL     1       0.945   8.070  20.592  0.00  0.00    +0.000 C 
BRANCH  11  17
ATOM     17  C   UNL     1       1.339  10.470  20.861  0.00  0.00    +0.000 C 
BRANCH  17  21
ATOM     18  C   UNL     1      -1.321  13.511  22.507  0.00  0.00    +0.000 A 
ATOM     19  C   UNL     1      -0.370  13.892  21.557  0.00  0.00    +0.000 A 
ATOM     20  C   UNL     1       0.536  12.943  21.027  0.00  0.00    +0.000 A 
ATOM     21  C   UNL     1       0.519  11.607  21.460  0.00  0.00    +0.000 A 
ATOM     22  C   UNL     1      -0.441  11.262  22.420  0.00  0.00    +0.000 A 
ATOM     23  F   UNL     1      -0.528   9.991  22.839  0.00  0.00    +0.000 F 
ATOM     24  C   UNL     1      -1.343  12.188  22.940  0.00  0.00    +0.000 A 
BRANCH  18  26
ATOM     25  C   UNL     1      -3.423  13.683  23.626  0.00  0.00    +0.000 C 
ATOM     26  O   UNL     1      -2.260  14.308  23.100  0.00  0.00    +0.000 OA
ENDBRANCH  18  26
ENDBRANCH  17  21
ENDBRANCH  11  17
ENDBRANCH   1  14
BRANCH   4  27
ATOM     27  C   UNL     1       7.110   7.968  17.370  0.00  0.00    +0.000 C 
ATOM     28  N   UNL     1       7.435   9.031  17.713  0.00  0.00    +0.000 NA
ENDBRANCH   4  27
BRANCH  10  29
ATOM     29  N   UNL     1       1.747   4.481  18.048  0.00  0.00    +0.000 N 
ATOM     30  H   UNL     1       1.020   5.193  18.079  0.00  0.00    +0.000 HD
BRANCH  29  31
ATOM     31  C   UNL     1       1.725   3.452  19.080  0.00  0.00    +0.000 C 
ATOM     32  C   UNL     1       0.977   3.749  20.353  0.00  0.00    +0.000 C 
ATOM     33  C   UNL     1       0.457   2.710  19.406  0.00  0.00    +0.000 C 
ENDBRANCH  29  31
ENDBRANCH  10  29
TORSDOF 7
ENDMDL
MODEL 4
REMARK VINA RESULT:      -7.3      1.067      1.263
REMARK  Name = 
REMARK  8 active torsions:
REMARK  status: ('A' for Active; 'I' for Inactive)
REMARK    1  A    between atoms: C_1  and  O_2
REMARK    2  A    between atoms: O_2  and  C_3
REMARK    3  A    between atoms: C_6  and  C_7
REMARK    4  A    between atoms: C_7  and  N_8
REMARK    5  A    between atoms: N_11  and  C_12
REMARK    6  A    between atoms: C_15  and  C_16
REMARK    7  A    between atoms: C_23  and  N_24
REMARK    8  A    between atoms: N_24  and  C_25
REMARK                            x       y       z     vdW  Elec       q    Type
REMARK                         _______ _______ _______ _____ _____    ______ ____
ROOT
ATOM      1  C   UNL     1       5.096   4.883  17.884  0.00  0.00    +0.000 A 
ATOM      2  N   UNL     1       4.117   5.207  18.774  0.00  0.00    +0.000 NA
ATOM      3  C   UNL     1       3.018   4.405  18.894  0.00  0.00    +0.000 A 
ATOM      4  C   UNL     1       1.934   4.654  19.738  0.00  0.00    +0.000 A 
ATOM      5  N   UNL     1       0.841   3.851  19.891  0.00  0.00    +0.000 NA
ATOM      6  C   UNL     1       0.811   2.726  19.163  0.00  0.00    +0.000 A 
ATOM      7  C   UNL     1       1.811   2.393  18.274  0.00  0.00    +0.000 A 
ATOM      8  C   UNL     1       2.910   3.227  18.134  0.00  0.00    +0.000 A 
ATOM      9  N   UNL     1       3.847   2.891  17.233  0.00  0.00    +0.000 NA
ATOM     10  C   UNL     1       4.906   3.727  17.067  0.00  0.00    +0.000 A 
ENDROOT
BRANCH   1  14
ATOM     11  N   UNL     1       8.131   8.092  17.805  0.00  0.00    +0.000 NA
ATOM     12  C   UNL     1       8.183   6.976  18.769  0.00  0.00    +0.000 C 
ATOM     13  C   UNL     1       6.906   6.121  19.027  0.00  0.00    +0.000 C 
ATOM     14  N   UNL     1       6.220   5.748  17.765  0.00  0.00    +0.000 N 
ATOM     15  C   UNL     1       5.953   6.951  16.943  0.00  0.00    +0.000 C 
ATOM     16  C   UNL     1       7.270   7.719  16.652  0.00  0.00    +0.000 C 
BRANCH  11  17
ATOM     17  C   UNL     1       7.736   9.387  18.380  0.00  0.00    +0.000 C 
BRANCH  17  21
ATOM     18  C   UNL     1      10.815  12.477  18.460  0.00  0.00    +0.000 A 
ATOM     19  C   UNL     1      10.984  11.337  19.251  0.00  0.00    +0.000 A 
ATOM     20  C   UNL     1       9.991  10.330  19.281  0.00  0.00    +0.000 A 
ATOM     21  C   UNL     1       8.804  10.461  18.542  0.00  0.00    +0.000 A 
ATOM     22  C   UNL     1       8.663  11.622  17.769  0.00  0.00    +0.000 A 
ATOM     23  F   UNL     1       7.567  11.780  17.012  0.00  0.00    +0.000 F 
ATOM     24  C   UNL     1       9.640  12.613  17.725  0.00  0.00    +0.000 A 
BRANCH  18  26
ATOM     25  C   UNL     1      11.859  14.074  17.026  0.00  0.00    +0.000 C 
ATOM     26  O   UNL     1      11.684  13.523  18.324  0.00  0.00    +0.000 OA
ENDBRANCH  18  26
ENDBRANCH  17  21
ENDBRANCH  11  17
ENDBRANCH   1  14
BRANCH   4  27
ATOM     27  C   UNL     1       1.891   5.867  20.510  0.00  0.00    +0.000 C 
ATOM     28  N   UNL     1       1.879   6.843  21.142  0.00  0.00    +0.000 NA
ENDBRANCH   4  27
BRANCH  10  29
ATOM     29  N   UNL     1       5.800   3.455  16.007  0.00  0.00    +0.000 N 
ATOM     30  H   UNL     1       6.728   3.339  16.408  0.00  0.00    +0.000 HD
BRANCH  29  31
ATOM     31  C   UNL     1       5.701   4.153  14.731  0.00  0.00    +0.000 C 
ATOM     32  C   UNL     1       6.959   4.754  14.160  0.00  0.00    +0.000 C 
ATOM     33  C   UNL     1       6.318   3.579  13.484  0.00  0.00    +0.000 C 
ENDBRANCH  29  31
ENDBRANCH  10  29
TORSDOF 7
ENDMDL
MODEL 5
REMARK VINA RESULT:      -7.3      4.947      7.192
REMARK  Name = 
REMARK  8 active torsions:
REMARK  status: ('A' for Active; 'I' for Inactive)
REMARK    1  A    between atoms: C_1  and  O_2
REMARK    2  A    between atoms: O_2  and  C_3
REMARK    3  A    between atoms: C_6  and  C_7
REMARK    4  A    between atoms: C_7  and  N_8
REMARK    5  A    between atoms: N_11  and  C_12
REMARK    6  A    between atoms: C_15  and  C_16
REMARK    7  A    between atoms: C_23  and  N_24
REMARK    8  A    between atoms: N_24  and  C_25
REMARK                            x       y       z     vdW  Elec       q    Type
REMARK                         _______ _______ _______ _____ _____    ______ ____
ROOT
ATOM      1  C   UNL     1       3.054   6.550  17.988  0.00  0.00    +0.000 A 
ATOM      2  N   UNL     1       4.324   6.985  17.764  0.00  0.00    +0.000 NA
ATOM      3  C   UNL     1       5.269   6.112  17.304  0.00  0.00    +0.000 A 
ATOM      4  C   UNL     1       6.610   6.429  17.077  0.00  0.00    +0.000 A 
ATOM      5  N   UNL     1       7.560   5.577  16.593  0.00  0.00    +0.000 NA
ATOM      6  C   UNL     1       7.166   4.327  16.316  0.00  0.00    +0.000 A 
ATOM      7  C   UNL     1       5.874   3.893  16.529  0.00  0.00    +0.000 A 
ATOM      8  C   UNL     1       4.928   4.777  17.025  0.00  0.00    +0.000 A 
ATOM      9  N   UNL     1       3.689   4.312  17.256  0.00  0.00    +0.000 NA
ATOM     10  C   UNL     1       2.770   5.167  17.776  0.00  0.00    +0.000 A 
ENDROOT
BRANCH   1  14
ATOM     11  N   UNL     1       0.677   9.822  19.766  0.00  0.00    +0.000 NA
ATOM     12  C   UNL     1       0.810   9.642  18.307  0.00  0.00    +0.000 C 
ATOM     13  C   UNL     1       1.960   8.755  17.743  0.00  0.00    +0.000 C 
ATOM     14  N   UNL     1       2.096   7.478  18.486  0.00  0.00    +0.000 N 
ATOM     15  C   UNL     1       2.224   7.732  19.940  0.00  0.00    +0.000 C 
ATOM     16  C   UNL     1       1.012   8.552  20.461  0.00  0.00    +0.000 C 
BRANCH  11  17
ATOM     17  C   UNL     1       1.430  10.958  20.319  0.00  0.00    +0.000 C 
BRANCH  17  21
ATOM     18  C   UNL     1       0.666  15.088  19.139  0.00  0.00    +0.000 A 
ATOM     19  C   UNL     1      -0.168  14.495  20.090  0.00  0.00    +0.000 A 
ATOM     20  C   UNL     1       0.023  13.146  20.472  0.00  0.00    +0.000 A 
ATOM     21  C   UNL     1       1.035  12.366  19.889  0.00  0.00    +0.000 A 
ATOM     22  C   UNL     1       1.846  12.990  18.932  0.00  0.00    +0.000 A 
ATOM     23  F   UNL     1       2.853  12.303  18.373  0.00  0.00    +0.000 F 
ATOM     24  C   UNL     1       1.671  14.320  18.558  0.00  0.00    +0.000 A 
BRANCH  18  26
ATOM     25  C   UNL     1       1.835  17.026  18.379  0.00  0.00    +0.000 C 
ATOM     26  O   UNL     1       0.609  16.374  18.679  0.00  0.00    +0.000 OA
ENDBRANCH  18  26
ENDBRANCH  17  21
ENDBRANCH  11  17
ENDBRANCH   1  14
BRANCH   4  27
ATOM     27  C   UNL     1       7.099   7.742  17.399  0.00  0.00    +0.000 C 
ATOM     28  N   UNL     1       7.478   8.815  17.645  0.00  0.00    +0.000 NA
ENDBRANCH   4  27
BRANCH  10  29
ATOM     29  N   UNL     1       1.522   4.632  18.170  0.00  0.00    +0.000 N 
ATOM     30  H   UNL     1       0.795   5.163  17.694  0.00  0.00    +0.000 HD
BRANCH  29  31
ATOM     31  C   UNL     1       1.267   4.230  19.548  0.00  0.00    +0.000 C 
ATOM     32  C   UNL     1       1.111   2.759  19.833  0.00  0.00    +0.000 C 
ATOM     33  C   UNL     1       2.311   3.497  20.346  0.00  0.00    +0.000 C 
ENDBRANCH  29  31
ENDBRANCH  10  29
TORSDOF 7
ENDMDL
MODEL 6
REMARK VINA RESULT:      -7.2      5.010      7.659
REMARK  Name = 
REMARK  8 active torsions:
REMARK  status: ('A' for Active; 'I' for Inactive)
REMARK    1  A    between atoms: C_1  and  O_2
REMARK    2  A    between atoms: O_2  and  C_3
REMARK    3  A    between atoms: C_6  and  C_7
REMARK    4  A    between atoms: C_7  and  N_8
REMARK    5  A    between atoms: N_11  and  C_12
REMARK    6  A    between atoms: C_15  and  C_16
REMARK    7  A    between atoms: C_23  and  N_24
REMARK    8  A    between atoms: N_24  and  C_25
REMARK                            x       y       z     vdW  Elec       q    Type
REMARK                         _______ _______ _______ _____ _____    ______ ____
ROOT
ATOM      1  C   UNL     1       3.065   6.509  17.939  0.00  0.00    +0.000 A 
ATOM      2  N   UNL     1       4.335   6.957  17.741  0.00  0.00    +0.000 NA
ATOM      3  C   UNL     1       5.288   6.106  17.259  0.00  0.00    +0.000 A 
ATOM      4  C   UNL     1       6.629   6.437  17.055  0.00  0.00    +0.000 A 
ATOM      5  N   UNL     1       7.588   5.607  16.549  0.00  0.00    +0.000 NA
ATOM      6  C   UNL     1       7.202   4.366  16.224  0.00  0.00    +0.000 A 
ATOM      7  C   UNL     1       5.911   3.918  16.410  0.00  0.00    +0.000 A 
ATOM      8  C   UNL     1       4.956   4.780  16.929  0.00  0.00    +0.000 A 
ATOM      9  N   UNL     1       3.718   4.301  17.132  0.00  0.00    +0.000 NA
ATOM     10  C   UNL     1       2.790   5.132  17.676  0.00  0.00    +0.000 A 
ENDROOT
BRANCH   1  14
ATOM     11  N   UNL     1       0.657   9.690  19.834  0.00  0.00    +0.000 NA
ATOM     12  C   UNL     1       0.833   9.595  18.372  0.00  0.00    +0.000 C 
ATOM     13  C   UNL     1       1.994   8.733  17.792  0.00  0.00    +0.000 C 
ATOM     14  N   UNL     1       2.098   7.413  18.462  0.00  0.00    +0.000 N 
ATOM     15  C   UNL     1       2.184   7.581  19.931  0.00  0.00    +0.000 C 
ATOM     16  C   UNL     1       0.962   8.379  20.463  0.00  0.00    +0.000 C 
BRANCH  11  17
ATOM     17  C   UNL     1       1.399  10.786  20.475  0.00  0.00    +0.000 C 
BRANCH  17  21
ATOM     18  C   UNL     1      -0.538  14.127  22.505  0.00  0.00    +0.000 A 
ATOM     19  C   UNL     1      -1.050  12.840  22.689  0.00  0.00    +0.000 A 
ATOM     20  C   UNL     1      -0.474  11.735  22.018  0.00  0.00    +0.000 A 
ATOM     21  C   UNL     1       0.606  11.907  21.137  0.00  0.00    +0.000 A 
ATOM     22  C   UNL     1       1.087  13.212  20.969  0.00  0.00    +0.000 A 
ATOM     23  F   UNL     1       2.143  13.427  20.169  0.00  0.00    +0.000 F 
ATOM     24  C   UNL     1       0.532  14.303  21.633  0.00  0.00    +0.000 A 
BRANCH  18  26
ATOM     25  C   UNL     1      -0.010  16.242  23.477  0.00  0.00    +0.000 C 
ATOM     26  O   UNL     1      -0.982  15.281  23.086  0.00  0.00    +0.000 OA
ENDBRANCH  18  26
ENDBRANCH  17  21
ENDBRANCH  11  17
ENDBRANCH   1  14
BRANCH   4  27
ATOM     27  C   UNL     1       7.110   7.740  17.428  0.00  0.00    +0.000 C 
ATOM     28  N   UNL     1       7.522   8.787  17.724  0.00  0.00    +0.000 NA
ENDBRANCH   4  27
BRANCH  10  29
ATOM     29  N   UNL     1       1.541   4.578  18.039  0.00  0.00    +0.000 N 
ATOM     30  H   UNL     1       0.817   5.229  17.742  0.00  0.00    +0.000 HD
BRANCH  29  31
ATOM     31  C   UNL     1       1.353   3.899  19.315  0.00  0.00    +0.000 C 
ATOM     32  C   UNL     1       0.719   2.533  19.297  0.00  0.00    +0.000 C 
ATOM     33  C   UNL     1       2.163   2.682  19.671  0.00  0.00    +0.000 C 
ENDBRANCH  29  31
ENDBRANCH  10  29
TORSDOF 7
ENDMDL
MODEL 7
REMARK VINA RESULT:      -7.0      5.205      7.855
REMARK  Name = 
REMARK  8 active torsions:
REMARK  status: ('A' for Active; 'I' for Inactive)
REMARK    1  A    between atoms: C_1  and  O_2
REMARK    2  A    between atoms: O_2  and  C_3
REMARK    3  A    between atoms: C_6  and  C_7
REMARK    4  A    between atoms: C_7  and  N_8
REMARK    5  A    between atoms: N_11  and  C_12
REMARK    6  A    between atoms: C_15  and  C_16
REMARK    7  A    between atoms: C_23  and  N_24
REMARK    8  A    between atoms: N_24  and  C_25
REMARK                            x       y       z     vdW  Elec       q    Type
REMARK                         _______ _______ _______ _____ _____    ______ ____
ROOT
ATOM      1  C   UNL     1       3.065   6.517  17.980  0.00  0.00    +0.000 A 
ATOM      2  N   UNL     1       4.332   6.965  17.767  0.00  0.00    +0.000 NA
ATOM      3  C   UNL     1       5.281   6.109  17.285  0.00  0.00    +0.000 A 
ATOM      4  C   UNL     1       6.620   6.440  17.066  0.00  0.00    +0.000 A 
ATOM      5  N   UNL     1       7.576   5.605  16.560  0.00  0.00    +0.000 NA
ATOM      6  C   UNL     1       7.188   4.361  16.250  0.00  0.00    +0.000 A 
ATOM      7  C   UNL     1       5.899   3.914  16.453  0.00  0.00    +0.000 A 
ATOM      8  C   UNL     1       4.948   4.780  16.972  0.00  0.00    +0.000 A 
ATOM      9  N   UNL     1       3.712   4.301  17.191  0.00  0.00    +0.000 NA
ATOM     10  C   UNL     1       2.788   5.137  17.734  0.00  0.00    +0.000 A 
ENDROOT
BRANCH   1  14
ATOM     11  N   UNL     1       0.669   9.712  19.868  0.00  0.00    +0.000 NA
ATOM     12  C   UNL     1       0.839   9.609  18.406  0.00  0.00    +0.000 C 
ATOM     13  C   UNL     1       1.996   8.742  17.826  0.00  0.00    +0.000 C 
ATOM     14  N   UNL     1       2.101   7.426  18.503  0.00  0.00    +0.000 N 
ATOM     15  C   UNL     1       2.193   7.601  19.971  0.00  0.00    +0.000 C 
ATOM     16  C   UNL     1       0.975   8.404  20.504  0.00  0.00    +0.000 C 
BRANCH  11  17
ATOM     17  C   UNL     1       1.416  10.810  20.501  0.00  0.00    +0.000 C 
BRANCH  17  21
ATOM     18  C   UNL     1      -1.033  14.300  21.428  0.00  0.00    +0.000 A 
ATOM     19  C   UNL     1      -0.166  14.357  20.333  0.00  0.00    +0.000 A 
ATOM     20  C   UNL     1       0.672  13.261  20.022  0.00  0.00    +0.000 A 
ATOM     21  C   UNL     1       0.673  12.103  20.817  0.00  0.00    +0.000 A 
ATOM     22  C   UNL     1      -0.201  12.084  21.912  0.00  0.00    +0.000 A 
ATOM     23  F   UNL     1      -0.270  10.986  22.681  0.00  0.00    +0.000 F 
ATOM     24  C   UNL     1      -1.036  13.155  22.219  0.00  0.00    +0.000 A 
BRANCH  18  26
ATOM     25  C   UNL     1      -2.681  15.929  20.856  0.00  0.00    +0.000 C 
ATOM     26  O   UNL     1      -1.900  15.270  21.844  0.00  0.00    +0.000 OA
ENDBRANCH  18  26
ENDBRANCH  17  21
ENDBRANCH  11  17
ENDBRANCH   1  14
BRANCH   4  27
ATOM     27  C   UNL     1       7.103   7.747  17.421  0.00  0.00    +0.000 C 
ATOM     28  N   UNL     1       7.515   8.799  17.698  0.00  0.00    +0.000 NA
ENDBRANCH   4  27
BRANCH  10  29
ATOM     29  N   UNL     1       1.544   4.586  18.114  0.00  0.00    +0.000 N 
ATOM     30  H   UNL     1       0.813   5.140  17.672  0.00  0.00    +0.000 HD
BRANCH  29  31
ATOM     31  C   UNL     1       1.303   4.117  19.473  0.00  0.00    +0.000 C 
ATOM     32  C   UNL     1       1.192   2.631  19.694  0.00  0.00    +0.000 C 
ATOM     33  C   UNL     1       2.370   3.382  20.239  0.00  0.00    +0.000 C 
ENDBRANCH  29  31
ENDBRANCH  10  29
TORSDOF 7
ENDMDL
MODEL 8
REMARK VINA RESULT:      -6.8      6.206      9.337
REMARK  Name = 
REMARK  8 active torsions:
REMARK  status: ('A' for Active; 'I' for Inactive)
REMARK    1  A    between atoms: C_1  and  O_2
REMARK    2  A    between atoms: O_2  and  C_3
REMARK    3  A    between atoms: C_6  and  C_7
REMARK    4  A    between atoms: C_7  and  N_8
REMARK    5  A    between atoms: N_11  and  C_12
REMARK    6  A    between atoms: C_15  and  C_16
REMARK    7  A    between atoms: C_23  and  N_24
REMARK    8  A    between atoms: N_24  and  C_25
REMARK                            x       y       z     vdW  Elec       q    Type
REMARK                         _______ _______ _______ _____ _____    ______ ____
ROOT
ATOM      1  C   UNL     1       0.398  11.053  19.186  0.00  0.00    +0.000 A 
ATOM      2  N   UNL     1       1.198  11.918  19.868  0.00  0.00    +0.000 NA
ATOM      3  C   UNL     1       0.893  13.249  19.889  0.00  0.00    +0.000 A 
ATOM      4  C   UNL     1       1.657  14.235  20.517  0.00  0.00    +0.000 A 
ATOM      5  N   UNL     1       1.355  15.566  20.570  0.00  0.00    +0.000 NA
ATOM      6  C   UNL     1       0.225  15.953  19.963  0.00  0.00    +0.000 A 
ATOM      7  C   UNL     1      -0.591  15.072  19.285  0.00  0.00    +0.000 A 
ATOM      8  C   UNL     1      -0.260  13.726  19.243  0.00  0.00    +0.000 A 
ATOM      9  N   UNL     1      -1.057  12.902  18.543  0.00  0.00    +0.000 NA
ATOM     10  C   UNL     1      -0.715  11.589  18.469  0.00  0.00    +0.000 A 
ENDROOT
BRANCH   1  14
ATOM     11  N   UNL     1       2.194   7.021  19.012  0.00  0.00    +0.000 NA
ATOM     12  C   UNL     1       1.709   7.618  20.271  0.00  0.00    +0.000 C 
ATOM     13  C   UNL     1       1.473   9.156  20.353  0.00  0.00    +0.000 C 
ATOM     14  N   UNL     1       0.751   9.674  19.165  0.00  0.00    +0.000 N 
ATOM     15  C   UNL     1       1.436   9.261  17.918  0.00  0.00    +0.000 C 
ATOM     16  C   UNL     1       1.572   7.715  17.854  0.00  0.00    +0.000 C 
BRANCH  11  17
ATOM     17  C   UNL     1       3.658   6.956  18.883  0.00  0.00    +0.000 C 
BRANCH  17  21
ATOM     18  C   UNL     1       5.551   4.485  15.826  0.00  0.00    +0.000 A 
ATOM     19  C   UNL     1       5.530   5.871  15.653  0.00  0.00    +0.000 A 
ATOM     20  C   UNL     1       4.894   6.704  16.603  0.00  0.00    +0.000 A 
ATOM     21  C   UNL     1       4.246   6.160  17.724  0.00  0.00    +0.000 A 
ATOM     22  C   UNL     1       4.278   4.765  17.860  0.00  0.00    +0.000 A 
ATOM     23  F   UNL     1       3.710   4.196  18.934  0.00  0.00    +0.000 F 
ATOM     24  C   UNL     1       4.911   3.939  16.935  0.00  0.00    +0.000 A 
BRANCH  18  26
ATOM     25  C   UNL     1       6.266   3.891  13.627  0.00  0.00    +0.000 C 
ATOM     26  O   UNL     1       6.129   3.559  15.003  0.00  0.00    +0.000 OA
ENDBRANCH  18  26
ENDBRANCH  17  21
ENDBRANCH  11  17
ENDBRANCH   1  14
BRANCH   4  27
ATOM     27  C   UNL     1       2.902  13.885  21.146  0.00  0.00    +0.000 C 
ATOM     28  N   UNL     1       3.901  13.615  21.676  0.00  0.00    +0.000 NA
ENDBRANCH   4  27
BRANCH  10  29
ATOM     29  N   UNL     1      -1.461  10.761  17.599  0.00  0.00    +0.000 N 
ATOM     30  H   UNL     1      -0.831  10.048  17.236  0.00  0.00    +0.000 HD
BRANCH  29  31
ATOM     31  C   UNL     1      -2.449  11.316  16.683  0.00  0.00    +0.000 C 
ATOM     32  C   UNL     1      -2.846  10.485  15.490  0.00  0.00    +0.000 C 
ATOM     33  C   UNL     1      -3.833  10.733  16.591  0.00  0.00    +0.000 C 
ENDBRANCH  29  31
ENDBRANCH  10  29
TORSDOF 7
ENDMDL
MODEL 9
REMARK VINA RESULT:      -6.8      6.064      9.216
REMARK  Name = 
REMARK  8 active torsions:
REMARK  status: ('A' for Active; 'I' for Inactive)
REMARK    1  A    between atoms: C_1  and  O_2
REMARK    2  A    between atoms: O_2  and  C_3
REMARK    3  A    between atoms: C_6  and  C_7
REMARK    4  A    between atoms: C_7  and  N_8
REMARK    5  A    between atoms: N_11  and  C_12
REMARK    6  A    between atoms: C_15  and  C_16
REMARK    7  A    between atoms: C_23  and  N_24
REMARK    8  A    between atoms: N_24  and  C_25
REMARK                            x       y       z     vdW  Elec       q    Type
REMARK                         _______ _______ _______ _____ _____    ______ ____
ROOT
ATOM      1  C   UNL     1       0.505  10.993  19.095  0.00  0.00    +0.000 A 
ATOM      2  N   UNL     1       1.282  11.858  19.802  0.00  0.00    +0.000 NA
ATOM      3  C   UNL     1       0.998  13.194  19.783  0.00  0.00    +0.000 A 
ATOM      4  C   UNL     1       1.745  14.180  20.432  0.00  0.00    +0.000 A 
ATOM      5  N   UNL     1       1.461  15.516  20.447  0.00  0.00    +0.000 NA
ATOM      6  C   UNL     1       0.370  15.909  19.776  0.00  0.00    +0.000 A 
ATOM      7  C   UNL     1      -0.425  15.028  19.073  0.00  0.00    +0.000 A 
ATOM      8  C   UNL     1      -0.113  13.676  19.071  0.00  0.00    +0.000 A 
ATOM      9  N   UNL     1      -0.887  12.851  18.346  0.00  0.00    +0.000 NA
ATOM     10  C   UNL     1      -0.562  11.532  18.312  0.00  0.00    +0.000 A 
ENDROOT
BRANCH   1  14
ATOM     11  N   UNL     1       2.244   6.932  19.102  0.00  0.00    +0.000 NA
ATOM     12  C   UNL     1       1.676   7.552  20.314  0.00  0.00    +0.000 C 
ATOM     13  C   UNL     1       1.459   9.095  20.360  0.00  0.00    +0.000 C 
ATOM     14  N   UNL     1       0.836   9.609  19.116  0.00  0.00    +0.000 N 
ATOM     15  C   UNL     1       1.606   9.170  17.929  0.00  0.00    +0.000 C 
ATOM     16  C   UNL     1       1.722   7.621  17.893  0.00  0.00    +0.000 C 
BRANCH  11  17
ATOM     17  C   UNL     1       3.713   6.844  19.084  0.00  0.00    +0.000 C 
BRANCH  17  21
ATOM     18  C   UNL     1       5.505   4.258  16.062  0.00  0.00    +0.000 A 
ATOM     19  C   UNL     1       4.572   3.712  16.947  0.00  0.00    +0.000 A 
ATOM     20  C   UNL     1       3.996   4.508  17.965  0.00  0.00    +0.000 A 
ATOM     21  C   UNL     1       4.365   5.854  18.127  0.00  0.00    +0.000 A 
ATOM     22  C   UNL     1       5.311   6.365  17.228  0.00  0.00    +0.000 A 
ATOM     23  F   UNL     1       5.669   7.655  17.312  0.00  0.00    +0.000 F 
ATOM     24  C   UNL     1       5.875   5.590  16.217  0.00  0.00    +0.000 A 
BRANCH  18  26
ATOM     25  C   UNL     1       6.682   4.418  13.991  0.00  0.00    +0.000 C 
ATOM     26  O   UNL     1       6.136   3.619  15.032  0.00  0.00    +0.000 OA
ENDBRANCH  18  26
ENDBRANCH  17  21
ENDBRANCH  11  17
ENDBRANCH   1  14
BRANCH   4  27
ATOM     27  C   UNL     1       2.950  13.823  21.130  0.00  0.00    +0.000 C 
ATOM     28  N   UNL     1       3.915  13.543  21.716  0.00  0.00    +0.000 NA
ENDBRANCH   4  27
BRANCH  10  29
ATOM     29  N   UNL     1      -1.276  10.700  17.421  0.00  0.00    +0.000 N 
ATOM     30  H   UNL     1      -0.603  10.090  16.961  0.00  0.00    +0.000 HD
BRANCH  29  31
ATOM     31  C   UNL     1      -2.376  11.215  16.615  0.00  0.00    +0.000 C 
ATOM     32  C   UNL     1      -2.879  10.359  15.483  0.00  0.00    +0.000 C 
ATOM     33  C   UNL     1      -3.744  10.594  16.684  0.00  0.00    +0.000 C 
ENDBRANCH  29  31
ENDBRANCH  10  29
TORSDOF 7
ENDMDL
