MODEL 1
REMARK VINA RESULT:      -8.0      0.000      0.000
REMARK  Name = 
REMARK  4 active torsions:
REMARK  status: ('A' for Active; 'I' for Inactive)
REMARK    1  A    between atoms: N_2  and  C_4
REMARK    2  A    between atoms: C_7  and  S_8
REMARK    3  A    between atoms: S_8  and  N_11
REMARK    4  A    between atoms: C_25  and  C_26
REMARK                            x       y       z     vdW  Elec       q    Type
REMARK                         _______ _______ _______ _____ _____    ______ ____
ROOT
ATOM      1  N   UNL     1       0.184  10.632  19.452  0.00  0.00    +0.000 N 
ATOM      2  C   UNL     1      -1.199  10.557  18.839  0.00  0.00    +0.000 A 
ATOM      3  C   UNL     1      -1.295  10.030  17.554  0.00  0.00    +0.000 A 
ATOM      4  C   UNL     1      -2.376  10.395  16.737  0.00  0.00    +0.000 A 
ATOM      5  F   UNL     1      -2.346  10.056  15.440  0.00  0.00    +0.000 F 
ATOM      6  C   UNL     1      -3.414  11.206  17.199  0.00  0.00    +0.000 A 
ATOM      7  F   UNL     1      -4.381  11.612  16.363  0.00  0.00    +0.000 F 
ATOM      8  C   UNL     1      -3.384  11.714  18.485  0.00  0.00    +0.000 A 
ATOM      9  C   UNL     1      -2.252  11.450  19.267  0.00  0.00    +0.000 A 
ATOM     10  C   UNL     1      -1.923  12.358  20.350  0.00  0.00    +0.000 A 
ATOM     11  N   UNL     1      -2.756  13.063  21.115  0.00  0.00    +0.000 NA
ATOM     12  N   UNL     1      -1.936  13.528  22.078  0.00  0.00    +0.000 N 
ATOM     13  C   UNL     1      -0.644  13.079  21.942  0.00  0.00    +0.000 A 
ATOM     14  C   UNL     1      -0.560  12.612  20.653  0.00  0.00    +0.000 A 
ATOM     15  C   UNL     1       0.451  12.081  19.683  0.00  0.00    +0.000 C 
ATOM     16  H   UNL     1      -2.338  14.086  22.824  0.00  0.00    +0.000 HD
ENDROOT
BRANCH   1  17
ATOM     17  S   UNL     1       0.579   9.576  20.751  0.00  0.00    +0.000 S 
ATOM     18  O   UNL     1      -0.635   8.942  21.198  0.00  0.00    +0.000 OA
ATOM     19  O   UNL     1       1.471  10.229  21.696  0.00  0.00    +0.000 OA
BRANCH  17  23
ATOM     20  C   UNL     1       2.791   5.908  18.814  0.00  0.00    +0.000 A 
ATOM     21  C   UNL     1       2.216   5.771  20.084  0.00  0.00    +0.000 A 
ATOM     22  C   UNL     1       1.623   6.894  20.717  0.00  0.00    +0.000 A 
ATOM     23  C   UNL     1       1.604   8.161  20.088  0.00  0.00    +0.000 A 
ATOM     24  C   UNL     1       2.127   8.257  18.793  0.00  0.00    +0.000 A 
ATOM     25  C   UNL     1       2.734   7.146  18.163  0.00  0.00    +0.000 A 
BRANCH  20  27
ATOM     26  O   UNL     1       3.421   3.658  18.747  0.00  0.00    +0.000 OA
ATOM     27  N   UNL     1       3.459   4.760  18.178  0.00  0.00    +0.000 N 
ATOM     28  O   UNL     1       4.023   4.954  17.080  0.00  0.00    +0.000 OA
ENDBRANCH  20  27
ENDBRANCH  17  23
ENDBRANCH   1  17
BRANCH  15  29
ATOM     29  C   UNL     1       1.859  12.515  19.472  0.00  0.00    +0.000 C 
ATOM     30  C   UNL     1       2.113  13.251  18.158  0.00  0.00    +0.000 C 
ATOM     31  C   UNL     1       2.351  13.933  19.468  0.00  0.00    +0.000 C 
ENDBRANCH  15  29
TORSDOF 4
ENDMDL
MODEL 2
REMARK VINA RESULT:      -7.7      0.381      1.072
REMARK  Name = 
REMARK  4 active torsions:
REMARK  status: ('A' for Active; 'I' for Inactive)
REMARK    1  A    between atoms: N_2  and  C_4
REMARK    2  A    between atoms: C_7  and  S_8
REMARK    3  A    between atoms: S_8  and  N_11
REMARK    4  A    between atoms: C_25  and  C_26
REMARK                            x       y       z     vdW  Elec       q    Type
REMARK                         _______ _______ _______ _____ _____    ______ ____
ROOT
ATOM      1  N   UNL     1       0.209  10.665  19.365  0.00  0.00    +0.000 N 
ATOM      2  C   UNL     1      -1.187  10.619  18.780  0.00  0.00    +0.000 A 
ATOM      3  C   UNL     1      -1.310  10.162  17.470  0.00  0.00    +0.000 A 
ATOM      4  C   UNL     1      -2.409  10.566  16.699  0.00  0.00    +0.000 A 
ATOM      5  F   UNL     1      -2.407  10.298  15.385  0.00  0.00    +0.000 F 
ATOM      6  C   UNL     1      -3.440  11.346  17.227  0.00  0.00    +0.000 A 
ATOM      7  F   UNL     1      -4.425  11.793  16.435  0.00  0.00    +0.000 F 
ATOM      8  C   UNL     1      -3.382  11.784  18.537  0.00  0.00    +0.000 A 
ATOM      9  C   UNL     1      -2.232  11.483  19.278  0.00  0.00    +0.000 A 
ATOM     10  C   UNL     1      -1.882  12.332  20.402  0.00  0.00    +0.000 A 
ATOM     11  N   UNL     1      -2.701  12.991  21.222  0.00  0.00    +0.000 NA
ATOM     12  N   UNL     1      -1.860  13.406  22.190  0.00  0.00    +0.000 N 
ATOM     13  C   UNL     1      -0.570  12.970  22.002  0.00  0.00    +0.000 A 
ATOM     14  C   UNL     1      -0.513  12.575  20.688  0.00  0.00    +0.000 A 
ATOM     15  C   UNL     1       0.478  12.101  19.668  0.00  0.00    +0.000 C 
ATOM     16  H   UNL     1      -2.248  13.922  22.975  0.00  0.00    +0.000 HD
ENDROOT
BRANCH   1  17
ATOM     17  S   UNL     1       0.635   9.542  20.596  0.00  0.00    +0.000 S 
ATOM     18  O   UNL     1      -0.578   8.958  21.110  0.00  0.00    +0.000 OA
ATOM     19  O   UNL     1       1.628  10.110  21.494  0.00  0.00    +0.000 OA
BRANCH  17  23
ATOM     20  C   UNL     1       3.256   6.037  18.879  0.00  0.00    +0.000 A 
ATOM     21  C   UNL     1       3.070   7.195  18.112  0.00  0.00    +0.000 A 
ATOM     22  C   UNL     1       2.210   8.222  18.580  0.00  0.00    +0.000 A 
ATOM     23  C   UNL     1       1.528   8.099  19.813  0.00  0.00    +0.000 A 
ATOM     24  C   UNL     1       1.781   6.962  20.590  0.00  0.00    +0.000 A 
ATOM     25  C   UNL     1       2.623   5.927  20.123  0.00  0.00    +0.000 A 
BRANCH  20  27
ATOM     26  O   UNL     1       4.078   4.687  17.157  0.00  0.00    +0.000 OA
ATOM     27  N   UNL     1       4.101   4.943  18.371  0.00  0.00    +0.000 N 
ATOM     28  O   UNL     1       4.814   4.332  19.195  0.00  0.00    +0.000 OA
ENDBRANCH  20  27
ENDBRANCH  17  23
ENDBRANCH   1  17
BRANCH  15  29
ATOM     29  C   UNL     1       1.879  12.551  19.451  0.00  0.00    +0.000 C 
ATOM     30  C   UNL     1       2.086  13.429  18.218  0.00  0.00    +0.000 C 
ATOM     31  C   UNL     1       2.381  13.960  19.585  0.00  0.00    +0.000 C 
ENDBRANCH  15  29
TORSDOF 4
ENDMDL
MODEL 3
REMARK VINA RESULT:      -7.6      1.373      1.823
REMARK  Name = 
REMARK  4 active torsions:
REMARK  status: ('A' for Active; 'I' for Inactive)
REMARK    1  A    between atoms: N_2  and  C_4
REMARK    2  A    between atoms: C_7  and  S_8
REMARK    3  A    between atoms: S_8  and  N_11
REMARK    4  A    between atoms: C_25  and  C_26
REMARK                            x       y       z     vdW  Elec       q    Type
REMARK                         _______ _______ _______ _____ _____    ______ ____
ROOT
ATOM      1  N   UNL     1      -0.533  11.906  19.388  0.00  0.00    +0.000 N 
ATOM      2  C   UNL     1      -1.853  11.447  18.804  0.00  0.00    +0.000 A 
ATOM      3  C   UNL     1      -1.849  11.037  17.473  0.00  0.00    +0.000 A 
ATOM      4  C   UNL     1      -3.034  11.108  16.725  0.00  0.00    +0.000 A 
ATOM      5  F   UNL     1      -2.971  10.916  15.400  0.00  0.00    +0.000 F 
ATOM      6  C   UNL     1      -4.248  11.496  17.294  0.00  0.00    +0.000 A 
ATOM      7  F   UNL     1      -5.338  11.644  16.528  0.00  0.00    +0.000 F 
ATOM      8  C   UNL     1      -4.308  11.868  18.624  0.00  0.00    +0.000 A 
ATOM      9  C   UNL     1      -3.109  11.911  19.347  0.00  0.00    +0.000 A 
ATOM     10  C   UNL     1      -3.025  12.774  20.511  0.00  0.00    +0.000 A 
ATOM     11  N   UNL     1      -3.995  13.101  21.366  0.00  0.00    +0.000 NA
ATOM     12  N   UNL     1      -3.311  13.715  22.351  0.00  0.00    +0.000 N 
ATOM     13  C   UNL     1      -1.953  13.719  22.139  0.00  0.00    +0.000 A 
ATOM     14  C   UNL     1      -1.798  13.424  20.807  0.00  0.00    +0.000 A 
ATOM     15  C   UNL     1      -0.727  13.337  19.762  0.00  0.00    +0.000 C 
ATOM     16  H   UNL     1      -3.828  14.044  23.161  0.00  0.00    +0.000 HD
ENDROOT
BRANCH   1  17
ATOM     17  S   UNL     1       0.248  10.919  20.560  0.00  0.00    +0.000 S 
ATOM     18  O   UNL     1      -0.764  10.342  21.407  0.00  0.00    +0.000 OA
ATOM     19  O   UNL     1       1.397  11.605  21.131  0.00  0.00    +0.000 OA
BRANCH  17  23
ATOM     20  C   UNL     1       2.562   7.349  18.559  0.00  0.00    +0.000 A 
ATOM     21  C   UNL     1       2.204   8.458  17.781  0.00  0.00    +0.000 A 
ATOM     22  C   UNL     1       1.430   9.501  18.351  0.00  0.00    +0.000 A 
ATOM     23  C   UNL     1       1.004   9.443  19.698  0.00  0.00    +0.000 A 
ATOM     24  C   UNL     1       1.428   8.356  20.473  0.00  0.00    +0.000 A 
ATOM     25  C   UNL     1       2.186   7.304  19.907  0.00  0.00    +0.000 A 
BRANCH  20  27
ATOM     26  O   UNL     1       4.503   6.421  17.646  0.00  0.00    +0.000 OA
ATOM     27  N   UNL     1       3.316   6.236  17.957  0.00  0.00    +0.000 N 
ATOM     28  O   UNL     1       2.719   5.149  17.803  0.00  0.00    +0.000 OA
ENDBRANCH  20  27
ENDBRANCH  17  23
ENDBRANCH   1  17
BRANCH  15  29
ATOM     29  C   UNL     1       0.456  14.218  19.564  0.00  0.00    +0.000 C 
ATOM     30  C   UNL     1       0.158  15.545  18.870  0.00  0.00    +0.000 C 
ATOM     31  C   UNL     1       0.707  15.523  20.261  0.00  0.00    +0.000 C 
ENDBRANCH  15  29
TORSDOF 4
ENDMDL
MODEL 4
REMARK VINA RESULT:      -7.4      1.410      1.573
REMARK  Name = 
REMARK  4 active torsions:
REMARK  status: ('A' for Active; 'I' for Inactive)
REMARK    1  A    between atoms: N_2  and  C_4
REMARK    2  A    between atoms: C_7  and  S_8
REMARK    3  A    between atoms: S_8  and  N_11
REMARK    4  A    between atoms: C_25  and  C_26
REMARK                            x       y       z     vdW  Elec       q    Type
REMARK                         _______ _______ _______ _____ _____    ______ ____
ROOT
ATOM      1  N   UNL     1      -0.541  11.806  19.423  0.00  0.00    +0.000 N 
ATOM      2  C   UNL     1      -1.754  11.226  18.726  0.00  0.00    +0.000 A 
ATOM      3  C   UNL     1      -1.557  10.676  17.462  0.00  0.00    +0.000 A 
ATOM      4  C   UNL     1      -2.631  10.611  16.562  0.00  0.00    +0.000 A 
ATOM      5  F   UNL     1      -2.382  10.283  15.286  0.00  0.00    +0.000 F 
ATOM      6  C   UNL     1      -3.923  11.001  16.919  0.00  0.00    +0.000 A 
ATOM      7  F   UNL     1      -4.904  11.015  16.005  0.00  0.00    +0.000 F 
ATOM      8  C   UNL     1      -4.175  11.510  18.180  0.00  0.00    +0.000 A 
ATOM      9  C   UNL     1      -3.087  11.686  19.044  0.00  0.00    +0.000 A 
ATOM     10  C   UNL     1      -3.189  12.671  20.105  0.00  0.00    +0.000 A 
ATOM     11  N   UNL     1      -4.276  13.041  20.783  0.00  0.00    +0.000 NA
ATOM     12  N   UNL     1      -3.752  13.789  21.775  0.00  0.00    +0.000 N 
ATOM     13  C   UNL     1      -2.379  13.834  21.743  0.00  0.00    +0.000 A 
ATOM     14  C   UNL     1      -2.035  13.406  20.484  0.00  0.00    +0.000 A 
ATOM     15  C   UNL     1      -0.830  13.258  19.606  0.00  0.00    +0.000 C 
ATOM     16  H   UNL     1      -4.384  14.178  22.468  0.00  0.00    +0.000 HD
ENDROOT
BRANCH   1  17
ATOM     17  S   UNL     1       0.105  10.987  20.790  0.00  0.00    +0.000 S 
ATOM     18  O   UNL     1      -0.985  10.365  21.498  0.00  0.00    +0.000 OA
ATOM     19  O   UNL     1       1.065  11.827  21.490  0.00  0.00    +0.000 OA
BRANCH  17  23
ATOM     20  C   UNL     1       2.309   7.196  19.097  0.00  0.00    +0.000 A 
ATOM     21  C   UNL     1       1.897   7.210  20.435  0.00  0.00    +0.000 A 
ATOM     22  C   UNL     1       1.310   8.380  20.982  0.00  0.00    +0.000 A 
ATOM     23  C   UNL     1       1.136   9.545  20.199  0.00  0.00    +0.000 A 
ATOM     24  C   UNL     1       1.497   9.485  18.848  0.00  0.00    +0.000 A 
ATOM     25  C   UNL     1       2.097   8.327  18.300  0.00  0.00    +0.000 A 
BRANCH  20  27
ATOM     26  O   UNL     1       2.345   5.296  17.736  0.00  0.00    +0.000 OA
ATOM     27  N   UNL     1       2.972   6.004  18.540  0.00  0.00    +0.000 N 
ATOM     28  O   UNL     1       4.146   5.774  18.898  0.00  0.00    +0.000 OA
ENDBRANCH  20  27
ENDBRANCH  17  23
ENDBRANCH   1  17
BRANCH  15  29
ATOM     29  C   UNL     1       0.340  14.167  19.467  0.00  0.00    +0.000 C 
ATOM     30  C   UNL     1       0.089  15.409  18.615  0.00  0.00    +0.000 C 
ATOM     31  C   UNL     1       0.460  15.542  20.058  0.00  0.00    +0.000 C 
ENDBRANCH  15  29
TORSDOF 4
ENDMDL
MODEL 5
REMARK VINA RESULT:      -7.2      2.732      4.140
REMARK  Name = 
REMARK  4 active torsions:
REMARK  status: ('A' for Active; 'I' for Inactive)
REMARK    1  A    between atoms: N_2  and  C_4
REMARK    2  A    between atoms: C_7  and  S_8
REMARK    3  A    between atoms: S_8  and  N_11
REMARK    4  A    between atoms: C_25  and  C_26
REMARK                            x       y       z     vdW  Elec       q    Type
REMARK                         _______ _______ _______ _____ _____    ______ ____
ROOT
ATOM      1  N   UNL     1      -0.798  11.067  20.940  0.00  0.00    +0.000 N 
ATOM      2  C   UNL     1      -1.386  12.063  21.918  0.00  0.00    +0.000 A 
ATOM      3  C   UNL     1      -2.150  11.549  22.964  0.00  0.00    +0.000 A 
ATOM      4  C   UNL     1      -3.126  12.356  23.567  0.00  0.00    +0.000 A 
ATOM      5  F   UNL     1      -3.994  11.789  24.418  0.00  0.00    +0.000 F 
ATOM      6  C   UNL     1      -3.303  13.695  23.214  0.00  0.00    +0.000 A 
ATOM      7  F   UNL     1      -4.308  14.408  23.743  0.00  0.00    +0.000 F 
ATOM      8  C   UNL     1      -2.535  14.260  22.213  0.00  0.00    +0.000 A 
ATOM      9  C   UNL     1      -1.640  13.430  21.527  0.00  0.00    +0.000 A 
ATOM     10  C   UNL     1      -1.236  13.798  20.182  0.00  0.00    +0.000 A 
ATOM     11  N   UNL     1      -1.086  15.021  19.673  0.00  0.00    +0.000 NA
ATOM     12  N   UNL     1      -0.484  14.767  18.494  0.00  0.00    +0.000 N 
ATOM     13  C   UNL     1      -0.220  13.432  18.305  0.00  0.00    +0.000 A 
ATOM     14  C   UNL     1      -1.004  12.778  19.223  0.00  0.00    +0.000 A 
ATOM     15  C   UNL     1      -1.404  11.388  19.616  0.00  0.00    +0.000 C 
ATOM     16  H   UNL     1      -0.226  15.555  17.907  0.00  0.00    +0.000 HD
ENDROOT
BRANCH   1  17
ATOM     17  S   UNL     1       0.901  10.797  20.947  0.00  0.00    +0.000 S 
ATOM     18  O   UNL     1       1.293  10.438  22.286  0.00  0.00    +0.000 OA
ATOM     19  O   UNL     1       1.596  11.852  20.225  0.00  0.00    +0.000 OA
BRANCH  17  23
ATOM     20  C   UNL     1       2.279   6.981  18.573  0.00  0.00    +0.000 A 
ATOM     21  C   UNL     1       2.118   8.193  17.890  0.00  0.00    +0.000 A 
ATOM     22  C   UNL     1       1.618   9.330  18.577  0.00  0.00    +0.000 A 
ATOM     23  C   UNL     1       1.272   9.263  19.947  0.00  0.00    +0.000 A 
ATOM     24  C   UNL     1       1.502   8.058  20.622  0.00  0.00    +0.000 A 
ATOM     25  C   UNL     1       1.984   6.916  19.940  0.00  0.00    +0.000 A 
BRANCH  20  27
ATOM     26  O   UNL     1       3.867   5.800  17.330  0.00  0.00    +0.000 OA
ATOM     27  N   UNL     1       2.741   5.783  17.852  0.00  0.00    +0.000 N 
ATOM     28  O   UNL     1       1.974   4.797  17.815  0.00  0.00    +0.000 OA
ENDBRANCH  20  27
ENDBRANCH  17  23
ENDBRANCH   1  17
BRANCH  15  29
ATOM     29  C   UNL     1      -1.691  10.219  18.742  0.00  0.00    +0.000 C 
ATOM     30  C   UNL     1      -2.997  10.311  17.955  0.00  0.00    +0.000 C 
ATOM     31  C   UNL     1      -1.686  10.220  17.241  0.00  0.00    +0.000 C 
ENDBRANCH  15  29
TORSDOF 4
ENDMDL
MODEL 6
REMARK VINA RESULT:      -7.0      4.147      7.253
REMARK  Name = 
REMARK  4 active torsions:
REMARK  status: ('A' for Active; 'I' for Inactive)
REMARK    1  A    between atoms: N_2  and  C_4
REMARK    2  A    between atoms: C_7  and  S_8
REMARK    3  A    between atoms: S_8  and  N_11
REMARK    4  A    between atoms: C_25  and  C_26
REMARK                            x       y       z     vdW  Elec       q    Type
REMARK                         _______ _______ _______ _____ _____    ______ ____
ROOT
ATOM      1  N   UNL     1      -1.255  11.885  21.173  0.00  0.00    +0.000 N 
ATOM      2  C   UNL     1      -1.740  12.029  19.746  0.00  0.00    +0.000 A 
ATOM      3  C   UNL     1      -2.847  11.271  19.373  0.00  0.00    +0.000 A 
ATOM      4  C   UNL     1      -3.032  10.936  18.023  0.00  0.00    +0.000 A 
ATOM      5  F   UNL     1      -3.971  10.034  17.706  0.00  0.00    +0.000 F 
ATOM      6  C   UNL     1      -2.187  11.412  17.019  0.00  0.00    +0.000 A 
ATOM      7  F   UNL     1      -2.336  10.995  15.753  0.00  0.00    +0.000 F 
ATOM      8  C   UNL     1      -1.102  12.207  17.338  0.00  0.00    +0.000 A 
ATOM      9  C   UNL     1      -0.844  12.450  18.693  0.00  0.00    +0.000 A 
ATOM     10  C   UNL     1       0.509  12.786  19.098  0.00  0.00    +0.000 A 
ATOM     11  N   UNL     1       1.431  13.459  18.411  0.00  0.00    +0.000 NA
ATOM     12  N   UNL     1       2.382  13.672  19.342  0.00  0.00    +0.000 N 
ATOM     13  C   UNL     1       2.033  13.193  20.582  0.00  0.00    +0.000 A 
ATOM     14  C   UNL     1       0.992  12.328  20.352  0.00  0.00    +0.000 A 
ATOM     15  C   UNL     1       0.131  11.341  21.081  0.00  0.00    +0.000 C 
ATOM     16  H   UNL     1       3.204  14.205  19.075  0.00  0.00    +0.000 HD
ENDROOT
BRANCH   1  17
ATOM     17  S   UNL     1      -1.480  13.194  22.267  0.00  0.00    +0.000 S 
ATOM     18  O   UNL     1      -1.365  14.423  21.525  0.00  0.00    +0.000 OA
ATOM     19  O   UNL     1      -0.717  12.985  23.488  0.00  0.00    +0.000 OA
BRANCH  17  23
ATOM     20  C   UNL     1      -5.953  12.731  23.637  0.00  0.00    +0.000 A 
ATOM     21  C   UNL     1      -5.674  13.279  22.379  0.00  0.00    +0.000 A 
ATOM     22  C   UNL     1      -4.328  13.506  21.989  0.00  0.00    +0.000 A 
ATOM     23  C   UNL     1      -3.254  13.191  22.854  0.00  0.00    +0.000 A 
ATOM     24  C   UNL     1      -3.556  12.585  24.079  0.00  0.00    +0.000 A 
ATOM     25  C   UNL     1      -4.896  12.372  24.482  0.00  0.00    +0.000 A 
BRANCH  20  27
ATOM     26  O   UNL     1      -7.916  11.475  23.813  0.00  0.00    +0.000 OA
ATOM     27  N   UNL     1      -7.349  12.548  24.070  0.00  0.00    +0.000 N 
ATOM     28  O   UNL     1      -7.890  13.487  24.692  0.00  0.00    +0.000 OA
ENDBRANCH  20  27
ENDBRANCH  17  23
ENDBRANCH   1  17
BRANCH  15  29
ATOM     29  C   UNL     1       0.515  10.379  22.149  0.00  0.00    +0.000 C 
ATOM     30  C   UNL     1      -0.251   9.058  22.128  0.00  0.00    +0.000 C 
ATOM     31  C   UNL     1       1.233   9.077  21.944  0.00  0.00    +0.000 C 
ENDBRANCH  15  29
TORSDOF 4
ENDMDL
MODEL 7
REMARK VINA RESULT:      -6.8      4.689      7.763
REMARK  Name = 
REMARK  4 active torsions:
REMARK  status: ('A' for Active; 'I' for Inactive)
REMARK    1  A    between atoms: N_2  and  C_4
REMARK    2  A    between atoms: C_7  and  S_8
REMARK    3  A    between atoms: S_8  and  N_11
REMARK    4  A    between atoms: C_25  and  C_26
REMARK                            x       y       z     vdW  Elec       q    Type
REMARK                         _______ _______ _______ _____ _____    ______ ____
ROOT
ATOM      1  N   UNL     1      -0.532  13.085  21.377  0.00  0.00    +0.000 N 
ATOM      2  C   UNL     1      -0.341  11.583  21.339  0.00  0.00    +0.000 A 
ATOM      3  C   UNL     1      -0.615  10.880  22.509  0.00  0.00    +0.000 A 
ATOM      4  C   UNL     1       0.008   9.643  22.733  0.00  0.00    +0.000 A 
ATOM      5  F   UNL     1      -0.094   9.081  23.947  0.00  0.00    +0.000 F 
ATOM      6  C   UNL     1       0.833   9.045  21.780  0.00  0.00    +0.000 A 
ATOM      7  F   UNL     1       1.488   7.910  22.066  0.00  0.00    +0.000 F 
ATOM      8  C   UNL     1       1.097   9.686  20.584  0.00  0.00    +0.000 A 
ATOM      9  C   UNL     1       0.572  10.972  20.401  0.00  0.00    +0.000 A 
ATOM     10  C   UNL     1       1.229  11.868  19.468  0.00  0.00    +0.000 A 
ATOM     11  N   UNL     1       1.874  11.559  18.343  0.00  0.00    +0.000 NA
ATOM     12  N   UNL     1       2.064  12.769  17.781  0.00  0.00    +0.000 N 
ATOM     13  C   UNL     1       1.506  13.791  18.509  0.00  0.00    +0.000 A 
ATOM     14  C   UNL     1       1.271  13.259  19.753  0.00  0.00    +0.000 A 
ATOM     15  C   UNL     1       0.813  13.675  21.118  0.00  0.00    +0.000 C 
ATOM     16  H   UNL     1       2.522  12.811  16.875  0.00  0.00    +0.000 HD
ENDROOT
BRANCH   1  17
ATOM     17  S   UNL     1      -1.841  13.781  20.505  0.00  0.00    +0.000 S 
ATOM     18  O   UNL     1      -2.107  12.952  19.357  0.00  0.00    +0.000 OA
ATOM     19  O   UNL     1      -1.661  15.218  20.361  0.00  0.00    +0.000 OA
BRANCH  17  23
ATOM     20  C   UNL     1      -5.687  12.951  23.077  0.00  0.00    +0.000 A 
ATOM     21  C   UNL     1      -5.821  13.219  21.708  0.00  0.00    +0.000 A 
ATOM     22  C   UNL     1      -4.678  13.558  20.940  0.00  0.00    +0.000 A 
ATOM     23  C   UNL     1      -3.395  13.636  21.532  0.00  0.00    +0.000 A 
ATOM     24  C   UNL     1      -3.278  13.302  22.886  0.00  0.00    +0.000 A 
ATOM     25  C   UNL     1      -4.416  12.979  23.663  0.00  0.00    +0.000 A 
BRANCH  20  27
ATOM     26  O   UNL     1      -7.246  11.477  24.004  0.00  0.00    +0.000 OA
ATOM     27  N   UNL     1      -6.878  12.657  23.892  0.00  0.00    +0.000 N 
ATOM     28  O   UNL     1      -7.453  13.618  24.445  0.00  0.00    +0.000 OA
ENDBRANCH  20  27
ENDBRANCH  17  23
ENDBRANCH   1  17
BRANCH  15  29
ATOM     29  C   UNL     1       1.119  14.926  21.862  0.00  0.00    +0.000 C 
ATOM     30  C   UNL     1       2.607  15.239  22.007  0.00  0.00    +0.000 C 
ATOM     31  C   UNL     1       1.703  16.179  21.275  0.00  0.00    +0.000 C 
ENDBRANCH  15  29
TORSDOF 4
ENDMDL
MODEL 8
REMARK VINA RESULT:      -6.8      3.505      4.815
REMARK  Name = 
REMARK  4 active torsions:
REMARK  status: ('A' for Active; 'I' for Inactive)
REMARK    1  A    between atoms: N_2  and  C_4
REMARK    2  A    between atoms: C_7  and  S_8
REMARK    3  A    between atoms: S_8  and  N_11
REMARK    4  A    between atoms: C_25  and  C_26
REMARK                            x       y       z     vdW  Elec       q    Type
REMARK                         _______ _______ _______ _____ _____    ______ ____
ROOT
ATOM      1  N   UNL     1      -3.010  13.446  21.673  0.00  0.00    +0.000 N 
ATOM      2  C   UNL     1      -4.187  12.757  21.015  0.00  0.00    +0.000 A 
ATOM      3  C   UNL     1      -3.992  12.257  19.730  0.00  0.00    +0.000 A 
ATOM      4  C   UNL     1      -5.093  12.098  18.876  0.00  0.00    +0.000 A 
ATOM      5  F   UNL     1      -4.871  11.823  17.583  0.00  0.00    +0.000 F 
ATOM      6  C   UNL     1      -6.401  12.343  19.299  0.00  0.00    +0.000 A 
ATOM      7  F   UNL     1      -7.419  12.273  18.429  0.00  0.00    +0.000 F 
ATOM      8  C   UNL     1      -6.646  12.797  20.582  0.00  0.00    +0.000 A 
ATOM      9  C   UNL     1      -5.544  13.068  21.402  0.00  0.00    +0.000 A 
ATOM     10  C   UNL     1      -5.699  14.016  22.491  0.00  0.00    +0.000 A 
ATOM     11  N   UNL     1      -6.786  14.256  23.224  0.00  0.00    +0.000 NA
ATOM     12  N   UNL     1      -6.298  15.034  24.211  0.00  0.00    +0.000 N 
ATOM     13  C   UNL     1      -4.940  15.223  24.120  0.00  0.00    +0.000 A 
ATOM     14  C   UNL     1      -4.612  14.859  22.838  0.00  0.00    +0.000 A 
ATOM     15  C   UNL     1      -3.439  14.856  21.904  0.00  0.00    +0.000 C 
ATOM     16  H   UNL     1      -6.935  15.341  24.940  0.00  0.00    +0.000 HD
ENDROOT
BRANCH   1  17
ATOM     17  S   UNL     1      -2.220  12.672  22.990  0.00  0.00    +0.000 S 
ATOM     18  O   UNL     1      -3.192  11.869  23.687  0.00  0.00    +0.000 OA
ATOM     19  O   UNL     1      -1.375  13.612  23.711  0.00  0.00    +0.000 OA
BRANCH  17  23
ATOM     20  C   UNL     1       0.480   9.362  21.029  0.00  0.00    +0.000 A 
ATOM     21  C   UNL     1      -0.050   9.146  22.308  0.00  0.00    +0.000 A 
ATOM     22  C   UNL     1      -0.793  10.173  22.946  0.00  0.00    +0.000 A 
ATOM     23  C   UNL     1      -1.007  11.421  22.316  0.00  0.00    +0.000 A 
ATOM     24  C   UNL     1      -0.522  11.588  21.014  0.00  0.00    +0.000 A 
ATOM     25  C   UNL     1       0.233  10.576  20.377  0.00  0.00    +0.000 A 
BRANCH  20  27
ATOM     26  O   UNL     1       1.811   8.565  19.281  0.00  0.00    +0.000 OA
ATOM     27  N   UNL     1       1.301   8.322  20.385  0.00  0.00    +0.000 N 
ATOM     28  O   UNL     1       1.455   7.244  20.998  0.00  0.00    +0.000 OA
ENDBRANCH  20  27
ENDBRANCH  17  23
ENDBRANCH   1  17
BRANCH  15  29
ATOM     29  C   UNL     1      -2.378  15.885  21.738  0.00  0.00    +0.000 C 
ATOM     30  C   UNL     1      -2.570  16.818  20.544  0.00  0.00    +0.000 C 
ATOM     31  C   UNL     1      -2.546  17.363  21.936  0.00  0.00    +0.000 C 
ENDBRANCH  15  29
TORSDOF 4
ENDMDL
MODEL 9
REMARK VINA RESULT:      -6.7      3.977      6.405
REMARK  Name = 
REMARK  4 active torsions:
REMARK  status: ('A' for Active; 'I' for Inactive)
REMARK    1  A    between atoms: N_2  and  C_4
REMARK    2  A    between atoms: C_7  and  S_8
REMARK    3  A    between atoms: S_8  and  N_11
REMARK    4  A    between atoms: C_25  and  C_26
REMARK                            x       y       z     vdW  Elec       q    Type
REMARK                         _______ _______ _______ _____ _____    ______ ____
ROOT
ATOM      1  N   UNL     1       0.195  12.158  19.620  0.00  0.00    +0.000 N 
ATOM      2  C   UNL     1       1.051  10.910  19.688  0.00  0.00    +0.000 A 
ATOM      3  C   UNL     1       1.644  10.483  18.502  0.00  0.00    +0.000 A 
ATOM      4  C   UNL     1       1.985   9.131  18.348  0.00  0.00    +0.000 A 
ATOM      5  F   UNL     1       2.353   8.694  17.136  0.00  0.00    +0.000 F 
ATOM      6  C   UNL     1       1.829   8.205  19.381  0.00  0.00    +0.000 A 
ATOM      7  F   UNL     1       2.075   6.904  19.167  0.00  0.00    +0.000 F 
ATOM      8  C   UNL     1       1.287   8.594  20.592  0.00  0.00    +0.000 A 
ATOM      9  C   UNL     1       0.837   9.915  20.714  0.00  0.00    +0.000 A 
ATOM     10  C   UNL     1      -0.185  10.217  21.698  0.00  0.00    +0.000 A 
ATOM     11  N   UNL     1      -0.386   9.638  22.882  0.00  0.00    +0.000 NA
ATOM     12  N   UNL     1      -1.293  10.457  23.450  0.00  0.00    +0.000 N 
ATOM     13  C   UNL     1      -1.603  11.540  22.663  0.00  0.00    +0.000 A 
ATOM     14  C   UNL     1      -1.158  11.210  21.407  0.00  0.00    +0.000 A 
ATOM     15  C   UNL     1      -1.182  11.730  20.001  0.00  0.00    +0.000 C 
ATOM     16  H   UNL     1      -1.602  10.249  24.395  0.00  0.00    +0.000 HD
ENDROOT
BRANCH   1  17
ATOM     17  S   UNL     1       0.767  13.602  20.358  0.00  0.00    +0.000 S 
ATOM     18  O   UNL     1       1.035  13.322  21.745  0.00  0.00    +0.000 OA
ATOM     19  O   UNL     1      -0.054  14.740  19.972  0.00  0.00    +0.000 OA
BRANCH  17  23
ATOM     20  C   UNL     1       4.917  15.084  18.721  0.00  0.00    +0.000 A 
ATOM     21  C   UNL     1       3.850  14.909  17.830  0.00  0.00    +0.000 A 
ATOM     22  C   UNL     1       2.619  14.379  18.296  0.00  0.00    +0.000 A 
ATOM     23  C   UNL     1       2.447  14.016  19.652  0.00  0.00    +0.000 A 
ATOM     24  C   UNL     1       3.506  14.259  20.535  0.00  0.00    +0.000 A 
ATOM     25  C   UNL     1       4.741  14.772  20.074  0.00  0.00    +0.000 A 
BRANCH  20  27
ATOM     26  O   UNL     1       6.565  16.730  18.532  0.00  0.00    +0.000 OA
ATOM     27  N   UNL     1       6.215  15.578  18.231  0.00  0.00    +0.000 N 
ATOM     28  O   UNL     1       6.909  14.799  17.544  0.00  0.00    +0.000 OA
ENDBRANCH  20  27
ENDBRANCH  17  23
ENDBRANCH   1  17
BRANCH  15  29
ATOM     29  C   UNL     1      -2.289  12.413  19.280  0.00  0.00    +0.000 C 
ATOM     30  C   UNL     1      -3.162  11.496  18.425  0.00  0.00    +0.000 C 
ATOM     31  C   UNL     1      -3.755  12.259  19.567  0.00  0.00    +0.000 C 
ENDBRANCH  15  29
TORSDOF 4
ENDMDL
