MODEL 1
REMARK VINA RESULT:      -6.9      0.000      0.000
REMARK  Name = 
REMARK  5 active torsions:
REMARK  status: ('A' for Active; 'I' for Inactive)
REMARK    1  A    between atoms: O_1  and  C_2
REMARK    2  A    between atoms: C_2  and  C_3
REMARK    3  A    between atoms: C_7  and  C_8
REMARK    4  A    between atoms: C_14  and  O_15
REMARK    5  A    between atoms: C_16  and  O_17
REMARK                            x       y       z     vdW  Elec       q    Type
REMARK                         _______ _______ _______ _____ _____    ______ ____
ROOT
ATOM      1  C   UNL     1       5.875   4.689  17.118  0.00  0.00    +0.000 C 
ATOM      2  O   UNL     1       6.101   4.292  18.478  0.00  0.00    +0.000 OA
ATOM      3  C   UNL     1       4.954   4.288  19.316  0.00  0.00    +0.000 C 
ATOM      4  S   UNL     1       3.770   2.970  19.003  0.00  0.00    +0.000 S 
ATOM      5  C   UNL     1       2.476   3.982  19.630  0.00  0.00    +0.000 C 
ATOM      6  N   UNL     1       2.742   5.249  19.786  0.00  0.00    +0.000 NA
ATOM      7  C   UNL     1       4.098   5.558  19.257  0.00  0.00    +0.000 C 
ATOM      8  C   UNL     1       3.965   6.130  17.831  0.00  0.00    +0.000 C 
ATOM      9  C   UNL     1       5.303   6.109  17.079  0.00  0.00    +0.000 C 
ENDROOT
BRANCH   5  10
ATOM     10  C   UNL     1       1.135   3.339  19.960  0.00  0.00    +0.000 C 
ATOM     11  F   UNL     1       0.561   2.696  18.905  0.00  0.00    +0.000 F 
ATOM     12  F   UNL     1       1.242   2.409  20.952  0.00  0.00    +0.000 F 
ATOM     13  F   UNL     1       0.220   4.251  20.386  0.00  0.00    +0.000 F 
ENDBRANCH   5  10
BRANCH   8  14
ATOM     14  O   UNL     1       3.440   7.463  17.850  0.00  0.00    +0.000 OA
ATOM     15  H   UNL     1       4.060   8.051  17.382  0.00  0.00    +0.000 HD
ENDBRANCH   8  14
BRANCH   9  16
ATOM     16  O   UNL     1       5.136   6.548  15.727  0.00  0.00    +0.000 OA
ATOM     17  H   UNL     1       4.430   6.017  15.315  0.00  0.00    +0.000 HD
ENDBRANCH   9  16
BRANCH   1  18
ATOM     18  C   UNL     1       7.202   4.610  16.351  0.00  0.00    +0.000 C 
BRANCH  18  19
ATOM     19  O   UNL     1       8.227   4.099  17.205  0.00  0.00    +0.000 OA
ATOM     20  H   UNL     1       7.782   3.617  17.922  0.00  0.00    +0.000 HD
ENDBRANCH  18  19
ENDBRANCH   1  18
TORSDOF 5
ENDMDL
MODEL 2
REMARK VINA RESULT:      -6.9      0.737      1.201
REMARK  Name = 
REMARK  5 active torsions:
REMARK  status: ('A' for Active; 'I' for Inactive)
REMARK    1  A    between atoms: O_1  and  C_2
REMARK    2  A    between atoms: C_2  and  C_3
REMARK    3  A    between atoms: C_7  and  C_8
REMARK    4  A    between atoms: C_14  and  O_15
REMARK    5  A    between atoms: C_16  and  O_17
REMARK                            x       y       z     vdW  Elec       q    Type
REMARK                         _______ _______ _______ _____ _____    ______ ____
ROOT
ATOM      1  C   UNL     1       5.772   4.781  16.550  0.00  0.00    +0.000 C 
ATOM      2  O   UNL     1       6.112   4.246  17.838  0.00  0.00    +0.000 OA
ATOM      3  C   UNL     1       5.052   4.200  18.782  0.00  0.00    +0.000 C 
ATOM      4  S   UNL     1       3.786   2.960  18.468  0.00  0.00    +0.000 S 
ATOM      5  C   UNL     1       2.605   3.949  19.314  0.00  0.00    +0.000 C 
ATOM      6  N   UNL     1       2.940   5.185  19.559  0.00  0.00    +0.000 NA
ATOM      7  C   UNL     1       4.251   5.497  18.929  0.00  0.00    +0.000 C 
ATOM      8  C   UNL     1       4.006   6.210  17.583  0.00  0.00    +0.000 C 
ATOM      9  C   UNL     1       5.262   6.217  16.702  0.00  0.00    +0.000 C 
ENDROOT
BRANCH   5  10
ATOM     10  C   UNL     1       1.275   3.323  19.714  0.00  0.00    +0.000 C 
ATOM     11  F   UNL     1       0.422   4.192  20.326  0.00  0.00    +0.000 F 
ATOM     12  F   UNL     1       0.597   2.827  18.640  0.00  0.00    +0.000 F 
ATOM     13  F   UNL     1       1.437   2.285  20.579  0.00  0.00    +0.000 F 
ENDBRANCH   5  10
BRANCH   8  14
ATOM     14  O   UNL     1       3.544   7.553  17.780  0.00  0.00    +0.000 OA
ATOM     15  H   UNL     1       4.314   8.130  17.931  0.00  0.00    +0.000 HD
ENDBRANCH   8  14
BRANCH   9  16
ATOM     16  O   UNL     1       4.985   6.791  15.421  0.00  0.00    +0.000 OA
ATOM     17  H   UNL     1       5.488   6.298  14.746  0.00  0.00    +0.000 HD
ENDBRANCH   9  16
BRANCH   1  18
ATOM     18  C   UNL     1       7.015   4.732  15.649  0.00  0.00    +0.000 C 
BRANCH  18  19
ATOM     19  O   UNL     1       7.691   5.990  15.685  0.00  0.00    +0.000 OA
ATOM     20  H   UNL     1       8.602   5.812  15.974  0.00  0.00    +0.000 HD
ENDBRANCH  18  19
ENDBRANCH   1  18
TORSDOF 5
ENDMDL
MODEL 3
REMARK VINA RESULT:      -6.8      1.832      2.291
REMARK  Name = 
REMARK  5 active torsions:
REMARK  status: ('A' for Active; 'I' for Inactive)
REMARK    1  A    between atoms: O_1  and  C_2
REMARK    2  A    between atoms: C_2  and  C_3
REMARK    3  A    between atoms: C_7  and  C_8
REMARK    4  A    between atoms: C_14  and  O_15
REMARK    5  A    between atoms: C_16  and  O_17
REMARK                            x       y       z     vdW  Elec       q    Type
REMARK                         _______ _______ _______ _____ _____    ______ ____
ROOT
ATOM      1  C   UNL     1       5.284   5.167  16.319  0.00  0.00    +0.000 C 
ATOM      2  O   UNL     1       4.736   3.841  16.352  0.00  0.00    +0.000 OA
ATOM      3  C   UNL     1       4.094   3.471  17.563  0.00  0.00    +0.000 C 
ATOM      4  S   UNL     1       2.507   4.262  17.873  0.00  0.00    +0.000 S 
ATOM      5  C   UNL     1       2.754   4.082  19.604  0.00  0.00    +0.000 C 
ATOM      6  N   UNL     1       3.958   3.770  19.998  0.00  0.00    +0.000 NA
ATOM      7  C   UNL     1       4.891   3.759  18.840  0.00  0.00    +0.000 C 
ATOM      8  C   UNL     1       5.646   5.104  18.788  0.00  0.00    +0.000 C 
ATOM      9  C   UNL     1       6.325   5.327  17.431  0.00  0.00    +0.000 C 
ENDROOT
BRANCH   5  10
ATOM     10  C   UNL     1       1.571   4.292  20.541  0.00  0.00    +0.000 C 
ATOM     11  F   UNL     1       1.272   5.602  20.762  0.00  0.00    +0.000 F 
ATOM     12  F   UNL     1       0.429   3.724  20.059  0.00  0.00    +0.000 F 
ATOM     13  F   UNL     1       1.784   3.743  21.767  0.00  0.00    +0.000 F 
ENDBRANCH   5  10
BRANCH   8  14
ATOM     14  O   UNL     1       6.617   5.197  19.838  0.00  0.00    +0.000 OA
ATOM     15  H   UNL     1       6.925   6.119  19.900  0.00  0.00    +0.000 HD
ENDBRANCH   8  14
BRANCH   9  16
ATOM     16  O   UNL     1       6.932   6.621  17.370  0.00  0.00    +0.000 OA
ATOM     17  H   UNL     1       6.232   7.295  17.450  0.00  0.00    +0.000 HD
ENDBRANCH   9  16
BRANCH   1  18
ATOM     18  C   UNL     1       5.910   5.411  14.939  0.00  0.00    +0.000 C 
BRANCH  18  19
ATOM     19  O   UNL     1       7.332   5.298  15.025  0.00  0.00    +0.000 OA
ATOM     20  H   UNL     1       7.662   5.201  14.115  0.00  0.00    +0.000 HD
ENDBRANCH  18  19
ENDBRANCH   1  18
TORSDOF 5
ENDMDL
MODEL 4
REMARK VINA RESULT:      -6.8      4.144      5.788
REMARK  Name = 
REMARK  5 active torsions:
REMARK  status: ('A' for Active; 'I' for Inactive)
REMARK    1  A    between atoms: O_1  and  C_2
REMARK    2  A    between atoms: C_2  and  C_3
REMARK    3  A    between atoms: C_7  and  C_8
REMARK    4  A    between atoms: C_14  and  O_15
REMARK    5  A    between atoms: C_16  and  O_17
REMARK                            x       y       z     vdW  Elec       q    Type
REMARK                         _______ _______ _______ _____ _____    ______ ____
ROOT
ATOM      1  C   UNL     1       1.930   3.953  19.460  0.00  0.00    +0.000 C 
ATOM      2  O   UNL     1       2.982   4.815  19.919  0.00  0.00    +0.000 OA
ATOM      3  C   UNL     1       4.092   4.948  19.044  0.00  0.00    +0.000 C 
ATOM      4  S   UNL     1       3.795   5.908  17.552  0.00  0.00    +0.000 S 
ATOM      5  C   UNL     1       5.051   5.004  16.718  0.00  0.00    +0.000 C 
ATOM      6  N   UNL     1       5.473   3.913  17.295  0.00  0.00    +0.000 NA
ATOM      7  C   UNL     1       4.666   3.631  18.512  0.00  0.00    +0.000 C 
ATOM      8  C   UNL     1       3.576   2.596  18.165  0.00  0.00    +0.000 C 
ATOM      9  C   UNL     1       2.477   2.541  19.235  0.00  0.00    +0.000 C 
ENDROOT
BRANCH   5  10
ATOM     10  C   UNL     1       5.578   5.532  15.389  0.00  0.00    +0.000 C 
ATOM     11  F   UNL     1       5.270   4.742  14.324  0.00  0.00    +0.000 F 
ATOM     12  F   UNL     1       5.080   6.767  15.096  0.00  0.00    +0.000 F 
ATOM     13  F   UNL     1       6.933   5.654  15.388  0.00  0.00    +0.000 F 
ENDBRANCH   5  10
BRANCH   8  14
ATOM     14  O   UNL     1       4.136   1.290  17.979  0.00  0.00    +0.000 OA
ATOM     15  H   UNL     1       3.432   0.627  18.091  0.00  0.00    +0.000 HD
ENDBRANCH   8  14
BRANCH   9  16
ATOM     16  O   UNL     1       1.427   1.651  18.844  0.00  0.00    +0.000 OA
ATOM     17  H   UNL     1       0.622   2.176  18.678  0.00  0.00    +0.000 HD
ENDBRANCH   9  16
BRANCH   1  18
ATOM     18  C   UNL     1       0.804   3.947  20.503  0.00  0.00    +0.000 C 
BRANCH  18  19
ATOM     19  O   UNL     1       0.931   2.802  21.348  0.00  0.00    +0.000 OA
ATOM     20  H   UNL     1       0.827   3.113  22.263  0.00  0.00    +0.000 HD
ENDBRANCH  18  19
ENDBRANCH   1  18
TORSDOF 5
ENDMDL
MODEL 5
REMARK VINA RESULT:      -6.7      4.142      5.836
REMARK  Name = 
REMARK  5 active torsions:
REMARK  status: ('A' for Active; 'I' for Inactive)
REMARK    1  A    between atoms: O_1  and  C_2
REMARK    2  A    between atoms: C_2  and  C_3
REMARK    3  A    between atoms: C_7  and  C_8
REMARK    4  A    between atoms: C_14  and  O_15
REMARK    5  A    between atoms: C_16  and  O_17
REMARK                            x       y       z     vdW  Elec       q    Type
REMARK                         _______ _______ _______ _____ _____    ______ ____
ROOT
ATOM      1  C   UNL     1       2.093   3.982  19.411  0.00  0.00    +0.000 C 
ATOM      2  O   UNL     1       2.740   5.164  19.904  0.00  0.00    +0.000 OA
ATOM      3  C   UNL     1       4.068   5.373  19.447  0.00  0.00    +0.000 C 
ATOM      4  S   UNL     1       4.228   5.862  17.723  0.00  0.00    +0.000 S 
ATOM      5  C   UNL     1       5.831   5.143  17.666  0.00  0.00    +0.000 C 
ATOM      6  N   UNL     1       6.159   4.356  18.653  0.00  0.00    +0.000 NA
ATOM      7  C   UNL     1       4.997   4.160  19.561  0.00  0.00    +0.000 C 
ATOM      8  C   UNL     1       4.299   2.831  19.207  0.00  0.00    +0.000 C 
ATOM      9  C   UNL     1       2.894   2.742  19.818  0.00  0.00    +0.000 C 
ENDROOT
BRANCH   5  10
ATOM     10  C   UNL     1       6.743   5.474  16.491  0.00  0.00    +0.000 C 
ATOM     11  F   UNL     1       7.525   4.432  16.094  0.00  0.00    +0.000 F 
ATOM     12  F   UNL     1       6.038   5.854  15.387  0.00  0.00    +0.000 F 
ATOM     13  F   UNL     1       7.594   6.496  16.774  0.00  0.00    +0.000 F 
ENDBRANCH   5  10
BRANCH   8  14
ATOM     14  O   UNL     1       5.081   1.704  19.622  0.00  0.00    +0.000 OA
ATOM     15  H   UNL     1       4.967   1.580  20.581  0.00  0.00    +0.000 HD
ENDBRANCH   8  14
BRANCH   9  16
ATOM     16  O   UNL     1       2.227   1.549  19.395  0.00  0.00    +0.000 OA
ATOM     17  H   UNL     1       1.437   1.803  18.881  0.00  0.00    +0.000 HD
ENDBRANCH   9  16
BRANCH   1  18
ATOM     18  C   UNL     1       0.666   3.925  19.975  0.00  0.00    +0.000 C 
BRANCH  18  19
ATOM     19  O   UNL     1       0.606   2.983  21.047  0.00  0.00    +0.000 OA
ATOM     20  H   UNL     1       1.514   2.871  21.376  0.00  0.00    +0.000 HD
ENDBRANCH  18  19
ENDBRANCH   1  18
TORSDOF 5
ENDMDL
MODEL 6
REMARK VINA RESULT:      -6.7      1.836      2.675
REMARK  Name = 
REMARK  5 active torsions:
REMARK  status: ('A' for Active; 'I' for Inactive)
REMARK    1  A    between atoms: O_1  and  C_2
REMARK    2  A    between atoms: C_2  and  C_3
REMARK    3  A    between atoms: C_7  and  C_8
REMARK    4  A    between atoms: C_14  and  O_15
REMARK    5  A    between atoms: C_16  and  O_17
REMARK                            x       y       z     vdW  Elec       q    Type
REMARK                         _______ _______ _______ _____ _____    ______ ____
ROOT
ATOM      1  C   UNL     1       6.462   5.917  17.976  0.00  0.00    +0.000 C 
ATOM      2  O   UNL     1       5.235   6.603  17.684  0.00  0.00    +0.000 OA
ATOM      3  C   UNL     1       4.073   5.789  17.634  0.00  0.00    +0.000 C 
ATOM      4  S   UNL     1       3.489   5.173  19.221  0.00  0.00    +0.000 S 
ATOM      5  C   UNL     1       2.772   3.783  18.419  0.00  0.00    +0.000 C 
ATOM      6  N   UNL     1       3.132   3.564  17.185  0.00  0.00    +0.000 NA
ATOM      7  C   UNL     1       4.199   4.521  16.784  0.00  0.00    +0.000 C 
ATOM      8  C   UNL     1       5.572   3.833  16.928  0.00  0.00    +0.000 C 
ATOM      9  C   UNL     1       6.724   4.847  16.912  0.00  0.00    +0.000 C 
ENDROOT
BRANCH   5  10
ATOM     10  C   UNL     1       1.779   2.921  19.190  0.00  0.00    +0.000 C 
ATOM     11  F   UNL     1       1.101   2.035  18.409  0.00  0.00    +0.000 F 
ATOM     12  F   UNL     1       2.389   2.178  20.157  0.00  0.00    +0.000 F 
ATOM     13  F   UNL     1       0.833   3.669  19.820  0.00  0.00    +0.000 F 
ENDBRANCH   5  10
BRANCH   8  14
ATOM     14  O   UNL     1       5.775   2.853  15.902  0.00  0.00    +0.000 OA
ATOM     15  H   UNL     1       5.131   3.008  15.188  0.00  0.00    +0.000 HD
ENDBRANCH   8  14
BRANCH   9  16
ATOM     16  O   UNL     1       7.978   4.200  17.148  0.00  0.00    +0.000 OA
ATOM     17  H   UNL     1       8.414   4.049  16.289  0.00  0.00    +0.000 HD
ENDBRANCH   9  16
BRANCH   1  18
ATOM     18  C   UNL     1       7.604   6.941  18.020  0.00  0.00    +0.000 C 
BRANCH  18  19
ATOM     19  O   UNL     1       7.941   7.350  16.693  0.00  0.00    +0.000 OA
ATOM     20  H   UNL     1       8.693   6.802  16.412  0.00  0.00    +0.000 HD
ENDBRANCH  18  19
ENDBRANCH   1  18
TORSDOF 5
ENDMDL
MODEL 7
REMARK VINA RESULT:      -6.7      4.251      5.765
REMARK  Name = 
REMARK  5 active torsions:
REMARK  status: ('A' for Active; 'I' for Inactive)
REMARK    1  A    between atoms: O_1  and  C_2
REMARK    2  A    between atoms: C_2  and  C_3
REMARK    3  A    between atoms: C_7  and  C_8
REMARK    4  A    between atoms: C_14  and  O_15
REMARK    5  A    between atoms: C_16  and  O_17
REMARK                            x       y       z     vdW  Elec       q    Type
REMARK                         _______ _______ _______ _____ _____    ______ ____
ROOT
ATOM      1  C   UNL     1       2.135   3.707  18.558  0.00  0.00    +0.000 C 
ATOM      2  O   UNL     1       2.283   4.939  19.280  0.00  0.00    +0.000 OA
ATOM      3  C   UNL     1       3.604   5.456  19.346  0.00  0.00    +0.000 C 
ATOM      4  S   UNL     1       4.247   6.140  17.811  0.00  0.00    +0.000 S 
ATOM      5  C   UNL     1       5.885   5.768  18.330  0.00  0.00    +0.000 C 
ATOM      6  N   UNL     1       6.012   4.967  19.351  0.00  0.00    +0.000 NA
ATOM      7  C   UNL     1       4.680   4.450  19.766  0.00  0.00    +0.000 C 
ATOM      8  C   UNL     1       4.468   3.051  19.152  0.00  0.00    +0.000 C 
ATOM      9  C   UNL     1       2.997   2.619  19.205  0.00  0.00    +0.000 C 
ENDROOT
BRANCH   5  10
ATOM     10  C   UNL     1       7.054   6.393  17.578  0.00  0.00    +0.000 C 
ATOM     11  F   UNL     1       6.795   7.642  17.103  0.00  0.00    +0.000 F 
ATOM     12  F   UNL     1       8.163   6.512  18.362  0.00  0.00    +0.000 F 
ATOM     13  F   UNL     1       7.424   5.650  16.499  0.00  0.00    +0.000 F 
ENDBRANCH   5  10
BRANCH   8  14
ATOM     14  O   UNL     1       5.285   2.067  19.801  0.00  0.00    +0.000 OA
ATOM     15  H   UNL     1       4.928   1.901  20.692  0.00  0.00    +0.000 HD
ENDBRANCH   8  14
BRANCH   9  16
ATOM     16  O   UNL     1       2.808   1.366  18.541  0.00  0.00    +0.000 OA
ATOM     17  H   UNL     1       3.097   0.652  19.140  0.00  0.00    +0.000 HD
ENDBRANCH   9  16
BRANCH   1  18
ATOM     18  C   UNL     1       0.653   3.307  18.559  0.00  0.00    +0.000 C 
BRANCH  18  19
ATOM     19  O   UNL     1       0.294   2.775  19.835  0.00  0.00    +0.000 OA
ATOM     20  H   UNL     1      -0.278   3.434  20.264  0.00  0.00    +0.000 HD
ENDBRANCH  18  19
ENDBRANCH   1  18
TORSDOF 5
ENDMDL
MODEL 8
REMARK VINA RESULT:      -6.6      1.710      2.324
REMARK  Name = 
REMARK  5 active torsions:
REMARK  status: ('A' for Active; 'I' for Inactive)
REMARK    1  A    between atoms: O_1  and  C_2
REMARK    2  A    between atoms: C_2  and  C_3
REMARK    3  A    between atoms: C_7  and  C_8
REMARK    4  A    between atoms: C_14  and  O_15
REMARK    5  A    between atoms: C_16  and  O_17
REMARK                            x       y       z     vdW  Elec       q    Type
REMARK                         _______ _______ _______ _____ _____    ______ ____
ROOT
ATOM      1  C   UNL     1       4.929   5.162  16.470  0.00  0.00    +0.000 C 
ATOM      2  O   UNL     1       4.504   3.791  16.436  0.00  0.00    +0.000 OA
ATOM      3  C   UNL     1       3.955   3.289  17.646  0.00  0.00    +0.000 C 
ATOM      4  S   UNL     1       2.321   3.910  18.074  0.00  0.00    +0.000 S 
ATOM      5  C   UNL     1       2.665   3.646  19.777  0.00  0.00    +0.000 C 
ATOM      6  N   UNL     1       3.909   3.421  20.099  0.00  0.00    +0.000 NA
ATOM      7  C   UNL     1       4.783   3.568  18.904  0.00  0.00    +0.000 C 
ATOM      8  C   UNL     1       5.412   4.977  18.911  0.00  0.00    +0.000 C 
ATOM      9  C   UNL     1       6.004   5.345  17.545  0.00  0.00    +0.000 C 
ENDROOT
BRANCH   5  10
ATOM     10  C   UNL     1       1.513   3.687  20.775  0.00  0.00    +0.000 C 
ATOM     11  F   UNL     1       0.547   2.759  20.534  0.00  0.00    +0.000 F 
ATOM     12  F   UNL     1       1.934   3.468  22.053  0.00  0.00    +0.000 F 
ATOM     13  F   UNL     1       0.883   4.894  20.779  0.00  0.00    +0.000 F 
ENDBRANCH   5  10
BRANCH   8  14
ATOM     14  O   UNL     1       6.421   5.092  19.924  0.00  0.00    +0.000 OA
ATOM     15  H   UNL     1       6.000   5.005  20.797  0.00  0.00    +0.000 HD
ENDBRANCH   8  14
BRANCH   9  16
ATOM     16  O   UNL     1       6.491   6.691  17.545  0.00  0.00    +0.000 OA
ATOM     17  H   UNL     1       6.380   7.059  16.648  0.00  0.00    +0.000 HD
ENDBRANCH   9  16
BRANCH   1  18
ATOM     18  C   UNL     1       5.465   5.548  15.084  0.00  0.00    +0.000 C 
BRANCH  18  19
ATOM     19  O   UNL     1       5.257   6.943  14.855  0.00  0.00    +0.000 OA
ATOM     20  H   UNL     1       5.982   7.245  14.282  0.00  0.00    +0.000 HD
ENDBRANCH  18  19
ENDBRANCH   1  18
TORSDOF 5
ENDMDL
MODEL 9
REMARK VINA RESULT:      -6.6      1.741      2.533
REMARK  Name = 
REMARK  5 active torsions:
REMARK  status: ('A' for Active; 'I' for Inactive)
REMARK    1  A    between atoms: O_1  and  C_2
REMARK    2  A    between atoms: C_2  and  C_3
REMARK    3  A    between atoms: C_7  and  C_8
REMARK    4  A    between atoms: C_14  and  O_15
REMARK    5  A    between atoms: C_16  and  O_17
REMARK                            x       y       z     vdW  Elec       q    Type
REMARK                         _______ _______ _______ _____ _____    ______ ____
ROOT
ATOM      1  C   UNL     1       6.380   5.113  18.930  0.00  0.00    +0.000 C 
ATOM      2  O   UNL     1       5.325   5.999  19.333  0.00  0.00    +0.000 OA
ATOM      3  C   UNL     1       4.006   5.535  19.087  0.00  0.00    +0.000 C 
ATOM      4  S   UNL     1       3.445   4.194  20.148  0.00  0.00    +0.000 S 
ATOM      5  C   UNL     1       2.353   3.648  18.884  0.00  0.00    +0.000 C 
ATOM      6  N   UNL     1       2.536   4.146  17.692  0.00  0.00    +0.000 NA
ATOM      7  C   UNL     1       3.753   5.000  17.674  0.00  0.00    +0.000 C 
ATOM      8  C   UNL     1       4.937   4.179  17.120  0.00  0.00    +0.000 C 
ATOM      9  C   UNL     1       6.286   4.843  17.426  0.00  0.00    +0.000 C 
ENDROOT
BRANCH   5  10
ATOM     10  C   UNL     1       1.263   2.643  19.238  0.00  0.00    +0.000 C 
ATOM     11  F   UNL     1       0.641   2.902  20.421  0.00  0.00    +0.000 F 
ATOM     12  F   UNL     1       0.278   2.603  18.297  0.00  0.00    +0.000 F 
ATOM     13  F   UNL     1       1.749   1.376  19.338  0.00  0.00    +0.000 F 
ENDBRANCH   5  10
BRANCH   8  14
ATOM     14  O   UNL     1       4.809   3.967  15.708  0.00  0.00    +0.000 OA
ATOM     15  H   UNL     1       4.956   3.024  15.518  0.00  0.00    +0.000 HD
ENDBRANCH   8  14
BRANCH   9  16
ATOM     16  O   UNL     1       7.371   4.016  16.994  0.00  0.00    +0.000 OA
ATOM     17  H   UNL     1       7.340   3.179  17.494  0.00  0.00    +0.000 HD
ENDBRANCH   9  16
BRANCH   1  18
ATOM     18  C   UNL     1       7.729   5.750  19.291  0.00  0.00    +0.000 C 
BRANCH  18  19
ATOM     19  O   UNL     1       8.088   5.401  20.629  0.00  0.00    +0.000 OA
ATOM     20  H   UNL     1       7.810   6.138  21.198  0.00  0.00    +0.000 HD
ENDBRANCH  18  19
ENDBRANCH   1  18
TORSDOF 5
ENDMDL
