MODEL 1
REMARK VINA RESULT:      -7.5      0.000      0.000
REMARK  Name = 
REMARK  7 active torsions:
REMARK  status: ('A' for Active; 'I' for Inactive)
REMARK    1  A    between atoms: C_1  and  C_2
REMARK    2  A    between atoms: C_2  and  C_3
REMARK    3  A    between atoms: C_3  and  C_4
REMARK    4  A    between atoms: C_4  and  C_5
REMARK    5  A    between atoms: N_9  and  C_10
REMARK    6  A    between atoms: C_10  and  C_11
REMARK    7  A    between atoms: C_11  and  N_12
REMARK                            x       y       z     vdW  Elec       q    Type
REMARK                         _______ _______ _______ _____ _____    ______ ____
ROOT
ATOM      1  C   UNL     1       2.042   5.538  20.332  0.00  0.00    +0.000 A 
ATOM      2  N   UNL     1       1.415   6.360  21.152  0.00  0.00    +0.000 NA
ATOM      3  C   UNL     1       1.380   7.572  20.542  0.00  0.00    +0.000 A 
ATOM      4  C   UNL     1       1.957   7.504  19.294  0.00  0.00    +0.000 A 
ATOM      5  N   UNL     1       2.361   6.177  19.139  0.00  0.00    +0.000 N 
ATOM      6  C   UNL     1       2.081   8.657  18.432  0.00  0.00    +0.000 C 
ATOM      7  O   UNL     1       2.591   8.644  17.318  0.00  0.00    +0.000 OA
ATOM      8  C   UNL     1       1.542   9.946  18.985  0.00  0.00    +0.000 A 
ATOM      9  C   UNL     1       1.623  11.119  18.218  0.00  0.00    +0.000 A 
ATOM     10  C   UNL     1       1.129  12.327  18.719  0.00  0.00    +0.000 A 
ATOM     11  C   UNL     1       0.552  12.379  19.987  0.00  0.00    +0.000 A 
ATOM     12  C   UNL     1       0.466  11.222  20.758  0.00  0.00    +0.000 A 
ATOM     13  C   UNL     1       0.956  10.003  20.261  0.00  0.00    +0.000 A 
ATOM     14  C   UNL     1       0.840   8.790  21.118  0.00  0.00    +0.000 C 
ATOM     15  O   UNL     1       0.326   8.862  22.229  0.00  0.00    +0.000 OA
ENDROOT
BRANCH   1  16
ATOM     16  C   UNL     1       2.303   4.126  20.749  0.00  0.00    +0.000 C 
BRANCH  16  17
ATOM     17  C   UNL     1       1.045   3.256  20.657  0.00  0.00    +0.000 C 
BRANCH  17  19
ATOM     18  C   UNL     1       2.114   2.120  18.668  0.00  0.00    +0.000 C 
ATOM     19  C   UNL     1       0.849   2.749  19.226  0.00  0.00    +0.000 C 
ENDBRANCH  17  19
ENDBRANCH  16  17
ENDBRANCH   1  16
BRANCH   5  20
ATOM     20  C   UNL     1       3.115   5.686  17.982  0.00  0.00    +0.000 C 
BRANCH  20  21
ATOM     21  C   UNL     1       4.614   5.337  18.139  0.00  0.00    +0.000 C 
BRANCH  21  22
ATOM     22  N   UNL     1       5.542   6.215  17.395  0.00  0.00    +0.000 NA
ATOM     23  C   UNL     1       5.420   6.142  15.924  0.00  0.00    +0.000 C 
ATOM     24  C   UNL     1       6.038   4.882  15.296  0.00  0.00    +0.000 C 
ATOM     25  O   UNL     1       7.412   4.728  15.671  0.00  0.00    +0.000 OA
ATOM     26  C   UNL     1       7.544   4.677  17.095  0.00  0.00    +0.000 C 
ATOM     27  C   UNL     1       6.959   5.939  17.752  0.00  0.00    +0.000 C 
ENDBRANCH  21  22
ENDBRANCH  20  21
ENDBRANCH   5  20
TORSDOF 6
ENDMDL
MODEL 2
REMARK VINA RESULT:      -7.5      0.923      1.297
REMARK  Name = 
REMARK  7 active torsions:
REMARK  status: ('A' for Active; 'I' for Inactive)
REMARK    1  A    between atoms: C_1  and  C_2
REMARK    2  A    between atoms: C_2  and  C_3
REMARK    3  A    between atoms: C_3  and  C_4
REMARK    4  A    between atoms: C_4  and  C_5
REMARK    5  A    between atoms: N_9  and  C_10
REMARK    6  A    between atoms: C_10  and  C_11
REMARK    7  A    between atoms: C_11  and  N_12
REMARK                            x       y       z     vdW  Elec       q    Type
REMARK                         _______ _______ _______ _____ _____    ______ ____
ROOT
ATOM      1  C   UNL     1       2.079   6.116  20.276  0.00  0.00    +0.000 A 
ATOM      2  N   UNL     1       1.521   6.892  21.185  0.00  0.00    +0.000 NA
ATOM      3  C   UNL     1       1.386   8.121  20.624  0.00  0.00    +0.000 A 
ATOM      4  C   UNL     1       1.829   8.110  19.320  0.00  0.00    +0.000 A 
ATOM      5  N   UNL     1       2.250   6.802  19.077  0.00  0.00    +0.000 N 
ATOM      6  C   UNL     1       1.827   9.293  18.490  0.00  0.00    +0.000 C 
ATOM      7  O   UNL     1       2.215   9.330  17.328  0.00  0.00    +0.000 OA
ATOM      8  C   UNL     1       1.314  10.546  19.140  0.00  0.00    +0.000 A 
ATOM      9  C   UNL     1       1.280  11.744  18.410  0.00  0.00    +0.000 A 
ATOM     10  C   UNL     1       0.809  12.920  19.001  0.00  0.00    +0.000 A 
ATOM     11  C   UNL     1       0.370  12.914  20.324  0.00  0.00    +0.000 A 
ATOM     12  C   UNL     1       0.399  11.732  21.060  0.00  0.00    +0.000 A 
ATOM     13  C   UNL     1       0.866  10.545  20.472  0.00  0.00    +0.000 A 
ATOM     14  C   UNL     1       0.878   9.303  21.295  0.00  0.00    +0.000 C 
ATOM     15  O   UNL     1       0.483   9.324  22.456  0.00  0.00    +0.000 OA
ENDROOT
BRANCH   1  16
ATOM     16  C   UNL     1       2.423   4.701  20.614  0.00  0.00    +0.000 C 
BRANCH  16  17
ATOM     17  C   UNL     1       1.186   3.797  20.635  0.00  0.00    +0.000 C 
BRANCH  17  19
ATOM     18  C   UNL     1       1.566   2.972  18.276  0.00  0.00    +0.000 C 
ATOM     19  C   UNL     1       1.398   2.579  19.734  0.00  0.00    +0.000 C 
ENDBRANCH  17  19
ENDBRANCH  16  17
ENDBRANCH   1  16
BRANCH   5  20
ATOM     20  C   UNL     1       2.890   6.371  17.831  0.00  0.00    +0.000 C 
BRANCH  20  21
ATOM     21  C   UNL     1       4.433   6.315  17.744  0.00  0.00    +0.000 C 
BRANCH  21  22
ATOM     22  N   UNL     1       5.040   5.038  18.177  0.00  0.00    +0.000 NA
ATOM     23  C   UNL     1       6.224   5.178  19.049  0.00  0.00    +0.000 C 
ATOM     24  C   UNL     1       7.511   5.589  18.314  0.00  0.00    +0.000 C 
ATOM     25  O   UNL     1       7.811   4.692  17.237  0.00  0.00    +0.000 OA
ATOM     26  C   UNL     1       6.719   4.631  16.314  0.00  0.00    +0.000 C 
ATOM     27  C   UNL     1       5.422   4.193  17.015  0.00  0.00    +0.000 C 
ENDBRANCH  21  22
ENDBRANCH  20  21
ENDBRANCH   5  20
TORSDOF 6
ENDMDL
MODEL 3
REMARK VINA RESULT:      -7.2      1.321      1.718
REMARK  Name = 
REMARK  7 active torsions:
REMARK  status: ('A' for Active; 'I' for Inactive)
REMARK    1  A    between atoms: C_1  and  C_2
REMARK    2  A    between atoms: C_2  and  C_3
REMARK    3  A    between atoms: C_3  and  C_4
REMARK    4  A    between atoms: C_4  and  C_5
REMARK    5  A    between atoms: N_9  and  C_10
REMARK    6  A    between atoms: C_10  and  C_11
REMARK    7  A    between atoms: C_11  and  N_12
REMARK                            x       y       z     vdW  Elec       q    Type
REMARK                         _______ _______ _______ _____ _____    ______ ____
ROOT
ATOM      1  C   UNL     1       1.865   6.707  20.346  0.00  0.00    +0.000 A 
ATOM      2  N   UNL     1       1.386   7.499  21.285  0.00  0.00    +0.000 NA
ATOM      3  C   UNL     1       1.260   8.733  20.732  0.00  0.00    +0.000 A 
ATOM      4  C   UNL     1       1.627   8.709  19.405  0.00  0.00    +0.000 A 
ATOM      5  N   UNL     1       1.990   7.388  19.139  0.00  0.00    +0.000 N 
ATOM      6  C   UNL     1       1.616   9.892  18.576  0.00  0.00    +0.000 C 
ATOM      7  O   UNL     1       1.939   9.918  17.394  0.00  0.00    +0.000 OA
ATOM      8  C   UNL     1       1.183  11.161  19.254  0.00  0.00    +0.000 A 
ATOM      9  C   UNL     1       1.147  12.360  18.527  0.00  0.00    +0.000 A 
ATOM     10  C   UNL     1       0.750  13.551  19.143  0.00  0.00    +0.000 A 
ATOM     11  C   UNL     1       0.387  13.558  20.490  0.00  0.00    +0.000 A 
ATOM     12  C   UNL     1       0.419  12.373  21.223  0.00  0.00    +0.000 A 
ATOM     13  C   UNL     1       0.813  11.173  20.610  0.00  0.00    +0.000 A 
ATOM     14  C   UNL     1       0.830   9.930  21.431  0.00  0.00    +0.000 C 
ATOM     15  O   UNL     1       0.504   9.962  22.612  0.00  0.00    +0.000 OA
ENDROOT
BRANCH   1  16
ATOM     16  C   UNL     1       2.181   5.280  20.665  0.00  0.00    +0.000 C 
BRANCH  16  17
ATOM     17  C   UNL     1       1.136   4.317  20.091  0.00  0.00    +0.000 C 
BRANCH  17  19
ATOM     18  C   UNL     1       2.458   2.693  21.505  0.00  0.00    +0.000 C 
ATOM     19  C   UNL     1       1.104   3.019  20.900  0.00  0.00    +0.000 C 
ENDBRANCH  17  19
ENDBRANCH  16  17
ENDBRANCH   1  16
BRANCH   5  20
ATOM     20  C   UNL     1       2.542   6.938  17.859  0.00  0.00    +0.000 C 
BRANCH  20  21
ATOM     21  C   UNL     1       4.071   6.994  17.624  0.00  0.00    +0.000 C 
BRANCH  21  22
ATOM     22  N   UNL     1       4.653   5.785  17.002  0.00  0.00    +0.000 NA
ATOM     23  C   UNL     1       4.423   4.531  17.748  0.00  0.00    +0.000 C 
ATOM     24  C   UNL     1       5.302   4.364  18.998  0.00  0.00    +0.000 C 
ATOM     25  O   UNL     1       6.694   4.485  18.682  0.00  0.00    +0.000 OA
ATOM     26  C   UNL     1       6.963   5.747  18.063  0.00  0.00    +0.000 C 
ATOM     27  C   UNL     1       6.118   5.932  16.791  0.00  0.00    +0.000 C 
ENDBRANCH  21  22
ENDBRANCH  20  21
ENDBRANCH   5  20
TORSDOF 6
ENDMDL
MODEL 4
REMARK VINA RESULT:      -7.1      1.690      4.349
REMARK  Name = 
REMARK  7 active torsions:
REMARK  status: ('A' for Active; 'I' for Inactive)
REMARK    1  A    between atoms: C_1  and  C_2
REMARK    2  A    between atoms: C_2  and  C_3
REMARK    3  A    between atoms: C_3  and  C_4
REMARK    4  A    between atoms: C_4  and  C_5
REMARK    5  A    between atoms: N_9  and  C_10
REMARK    6  A    between atoms: C_10  and  C_11
REMARK    7  A    between atoms: C_11  and  N_12
REMARK                            x       y       z     vdW  Elec       q    Type
REMARK                         _______ _______ _______ _____ _____    ______ ____
ROOT
ATOM      1  C   UNL     1       3.363   6.596  18.038  0.00  0.00    +0.000 A 
ATOM      2  N   UNL     1       3.175   7.806  17.546  0.00  0.00    +0.000 NA
ATOM      3  C   UNL     1       2.381   8.468  18.426  0.00  0.00    +0.000 A 
ATOM      4  C   UNL     1       2.096   7.676  19.515  0.00  0.00    +0.000 A 
ATOM      5  N   UNL     1       2.757   6.468  19.284  0.00  0.00    +0.000 N 
ATOM      6  C   UNL     1       1.246   8.118  20.596  0.00  0.00    +0.000 C 
ATOM      7  O   UNL     1       0.962   7.446  21.580  0.00  0.00    +0.000 OA
ATOM      8  C   UNL     1       0.684   9.504  20.459  0.00  0.00    +0.000 A 
ATOM      9  C   UNL     1      -0.156  10.016  21.459  0.00  0.00    +0.000 A 
ATOM     10  C   UNL     1      -0.691  11.303  21.345  0.00  0.00    +0.000 A 
ATOM     11  C   UNL     1      -0.396  12.091  20.233  0.00  0.00    +0.000 A 
ATOM     12  C   UNL     1       0.436  11.594  19.232  0.00  0.00    +0.000 A 
ATOM     13  C   UNL     1       0.981  10.304  19.342  0.00  0.00    +0.000 A 
ATOM     14  C   UNL     1       1.867   9.814  18.249  0.00  0.00    +0.000 C 
ATOM     15  O   UNL     1       2.113  10.527  17.283  0.00  0.00    +0.000 OA
ENDROOT
BRANCH   1  16
ATOM     16  C   UNL     1       4.150   5.590  17.260  0.00  0.00    +0.000 C 
BRANCH  16  17
ATOM     17  C   UNL     1       5.102   6.253  16.260  0.00  0.00    +0.000 C 
BRANCH  17  19
ATOM     18  C   UNL     1       6.924   4.703  15.443  0.00  0.00    +0.000 C 
ATOM     19  C   UNL     1       5.531   5.251  15.185  0.00  0.00    +0.000 C 
ENDBRANCH  17  19
ENDBRANCH  16  17
ENDBRANCH   1  16
BRANCH   5  20
ATOM     20  C   UNL     1       2.641   5.297  20.157  0.00  0.00    +0.000 C 
BRANCH  20  21
ATOM     21  C   UNL     1       1.440   4.336  19.989  0.00  0.00    +0.000 C 
BRANCH  21  22
ATOM     22  N   UNL     1       1.742   2.908  20.231  0.00  0.00    +0.000 NA
ATOM     23  C   UNL     1       3.145   2.625  20.598  0.00  0.00    +0.000 C 
ATOM     24  C   UNL     1       4.135   2.681  19.423  0.00  0.00    +0.000 C 
ATOM     25  O   UNL     1       3.734   1.812  18.357  0.00  0.00    +0.000 OA
ATOM     26  C   UNL     1       2.418   2.146  17.902  0.00  0.00    +0.000 C 
ATOM     27  C   UNL     1       1.398   2.071  19.051  0.00  0.00    +0.000 C 
ENDBRANCH  21  22
ENDBRANCH  20  21
ENDBRANCH   5  20
TORSDOF 6
ENDMDL
MODEL 5
REMARK VINA RESULT:      -7.0      1.721      4.337
REMARK  Name = 
REMARK  7 active torsions:
REMARK  status: ('A' for Active; 'I' for Inactive)
REMARK    1  A    between atoms: C_1  and  C_2
REMARK    2  A    between atoms: C_2  and  C_3
REMARK    3  A    between atoms: C_3  and  C_4
REMARK    4  A    between atoms: C_4  and  C_5
REMARK    5  A    between atoms: N_9  and  C_10
REMARK    6  A    between atoms: C_10  and  C_11
REMARK    7  A    between atoms: C_11  and  N_12
REMARK                            x       y       z     vdW  Elec       q    Type
REMARK                         _______ _______ _______ _____ _____    ______ ____
ROOT
ATOM      1  C   UNL     1       3.261   6.546  18.186  0.00  0.00    +0.000 A 
ATOM      2  N   UNL     1       3.140   7.750  17.660  0.00  0.00    +0.000 NA
ATOM      3  C   UNL     1       2.345   8.466  18.496  0.00  0.00    +0.000 A 
ATOM      4  C   UNL     1       1.992   7.713  19.594  0.00  0.00    +0.000 A 
ATOM      5  N   UNL     1       2.612   6.475  19.414  0.00  0.00    +0.000 N 
ATOM      6  C   UNL     1       1.127   8.217  20.635  0.00  0.00    +0.000 C 
ATOM      7  O   UNL     1       0.784   7.581  21.625  0.00  0.00    +0.000 OA
ATOM      8  C   UNL     1       0.626   9.620  20.446  0.00  0.00    +0.000 A 
ATOM      9  C   UNL     1      -0.224  10.190  21.405  0.00  0.00    +0.000 A 
ATOM     10  C   UNL     1      -0.702  11.494  21.242  0.00  0.00    +0.000 A 
ATOM     11  C   UNL     1      -0.339  12.241  20.122  0.00  0.00    +0.000 A 
ATOM     12  C   UNL     1       0.504  11.686  19.162  0.00  0.00    +0.000 A 
ATOM     13  C   UNL     1       0.991  10.379  19.320  0.00  0.00    +0.000 A 
ATOM     14  C   UNL     1       1.892   9.826  18.270  0.00  0.00    +0.000 C 
ATOM     15  O   UNL     1       2.198  10.505  17.296  0.00  0.00    +0.000 OA
ENDROOT
BRANCH   1  16
ATOM     16  C   UNL     1       4.032   5.491  17.460  0.00  0.00    +0.000 C 
BRANCH  16  17
ATOM     17  C   UNL     1       5.528   5.815  17.392  0.00  0.00    +0.000 C 
BRANCH  17  19
ATOM     18  C   UNL     1       7.681   5.857  18.715  0.00  0.00    +0.000 C 
ATOM     19  C   UNL     1       6.191   5.570  18.750  0.00  0.00    +0.000 C 
ENDBRANCH  17  19
ENDBRANCH  16  17
ENDBRANCH   1  16
BRANCH   5  20
ATOM     20  C   UNL     1       2.419   5.332  20.310  0.00  0.00    +0.000 C 
BRANCH  20  21
ATOM     21  C   UNL     1       1.283   4.321  20.026  0.00  0.00    +0.000 C 
BRANCH  21  22
ATOM     22  N   UNL     1       1.599   2.914  20.356  0.00  0.00    +0.000 NA
ATOM     23  C   UNL     1       2.963   2.692  20.879  0.00  0.00    +0.000 C 
ATOM     24  C   UNL     1       4.069   2.735  19.811  0.00  0.00    +0.000 C 
ATOM     25  O   UNL     1       3.807   1.813  18.746  0.00  0.00    +0.000 OA
ATOM     26  C   UNL     1       2.538   2.086  18.144  0.00  0.00    +0.000 C 
ATOM     27  C   UNL     1       1.406   2.021  19.184  0.00  0.00    +0.000 C 
ENDBRANCH  21  22
ENDBRANCH  20  21
ENDBRANCH   5  20
TORSDOF 6
ENDMDL
MODEL 6
REMARK VINA RESULT:      -7.0      1.019      1.448
REMARK  Name = 
REMARK  7 active torsions:
REMARK  status: ('A' for Active; 'I' for Inactive)
REMARK    1  A    between atoms: C_1  and  C_2
REMARK    2  A    between atoms: C_2  and  C_3
REMARK    3  A    between atoms: C_3  and  C_4
REMARK    4  A    between atoms: C_4  and  C_5
REMARK    5  A    between atoms: N_9  and  C_10
REMARK    6  A    between atoms: C_10  and  C_11
REMARK    7  A    between atoms: C_11  and  N_12
REMARK                            x       y       z     vdW  Elec       q    Type
REMARK                         _______ _______ _______ _____ _____    ______ ____
ROOT
ATOM      1  C   UNL     1       2.262   5.040  20.794  0.00  0.00    +0.000 A 
ATOM      2  N   UNL     1       1.405   5.888  21.330  0.00  0.00    +0.000 NA
ATOM      3  C   UNL     1       1.449   7.018  20.579  0.00  0.00    +0.000 A 
ATOM      4  C   UNL     1       2.320   6.866  19.523  0.00  0.00    +0.000 A 
ATOM      5  N   UNL     1       2.827   5.571  19.639  0.00  0.00    +0.000 N 
ATOM      6  C   UNL     1       2.583   7.925  18.575  0.00  0.00    +0.000 C 
ATOM      7  O   UNL     1       3.353   7.835  17.626  0.00  0.00    +0.000 OA
ATOM      8  C   UNL     1       1.849   9.213  18.815  0.00  0.00    +0.000 A 
ATOM      9  C   UNL     1       2.047  10.297  17.947  0.00  0.00    +0.000 A 
ATOM     10  C   UNL     1       1.374  11.505  18.157  0.00  0.00    +0.000 A 
ATOM     11  C   UNL     1       0.499  11.643  19.234  0.00  0.00    +0.000 A 
ATOM     12  C   UNL     1       0.294  10.574  20.104  0.00  0.00    +0.000 A 
ATOM     13  C   UNL     1       0.964   9.357  19.896  0.00  0.00    +0.000 A 
ATOM     14  C   UNL     1       0.713   8.240  20.850  0.00  0.00    +0.000 C 
ATOM     15  O   UNL     1      -0.063   8.386  21.787  0.00  0.00    +0.000 OA
ENDROOT
BRANCH   1  16
ATOM     16  C   UNL     1       2.496   3.711  21.438  0.00  0.00    +0.000 C 
BRANCH  16  17
ATOM     17  C   UNL     1       1.425   2.687  21.049  0.00  0.00    +0.000 C 
BRANCH  17  19
ATOM     18  C   UNL     1       0.751   2.501  18.620  0.00  0.00    +0.000 C 
ATOM     19  C   UNL     1       1.744   2.071  19.685  0.00  0.00    +0.000 C 
ENDBRANCH  17  19
ENDBRANCH  16  17
ENDBRANCH   1  16
BRANCH   5  20
ATOM     20  C   UNL     1       3.871   5.026  18.767  0.00  0.00    +0.000 C 
BRANCH  20  21
ATOM     21  C   UNL     1       5.342   5.023  19.246  0.00  0.00    +0.000 C 
BRANCH  21  22
ATOM     22  N   UNL     1       6.317   4.481  18.274  0.00  0.00    +0.000 NA
ATOM     23  C   UNL     1       7.585   5.234  18.184  0.00  0.00    +0.000 C 
ATOM     24  C   UNL     1       7.486   6.559  17.412  0.00  0.00    +0.000 C 
ATOM     25  O   UNL     1       6.950   6.363  16.097  0.00  0.00    +0.000 OA
ATOM     26  C   UNL     1       5.663   5.740  16.165  0.00  0.00    +0.000 C 
ATOM     27  C   UNL     1       5.736   4.396  16.908  0.00  0.00    +0.000 C 
ENDBRANCH  21  22
ENDBRANCH  20  21
ENDBRANCH   5  20
TORSDOF 6
ENDMDL
MODEL 7
REMARK VINA RESULT:      -6.9      2.838      7.515
REMARK  Name = 
REMARK  7 active torsions:
REMARK  status: ('A' for Active; 'I' for Inactive)
REMARK    1  A    between atoms: C_1  and  C_2
REMARK    2  A    between atoms: C_2  and  C_3
REMARK    3  A    between atoms: C_3  and  C_4
REMARK    4  A    between atoms: C_4  and  C_5
REMARK    5  A    between atoms: N_9  and  C_10
REMARK    6  A    between atoms: C_10  and  C_11
REMARK    7  A    between atoms: C_11  and  N_12
REMARK                            x       y       z     vdW  Elec       q    Type
REMARK                         _______ _______ _______ _____ _____    ______ ____
ROOT
ATOM      1  C   UNL     1       0.608   8.259  21.003  0.00  0.00    +0.000 A 
ATOM      2  N   UNL     1       1.264   7.124  21.148  0.00  0.00    +0.000 NA
ATOM      3  C   UNL     1       2.073   6.996  20.065  0.00  0.00    +0.000 A 
ATOM      4  C   UNL     1       1.957   8.093  19.241  0.00  0.00    +0.000 A 
ATOM      5  N   UNL     1       1.030   8.933  19.862  0.00  0.00    +0.000 N 
ATOM      6  C   UNL     1       2.685   8.211  17.998  0.00  0.00    +0.000 C 
ATOM      7  O   UNL     1       2.609   9.166  17.233  0.00  0.00    +0.000 OA
ATOM      8  C   UNL     1       3.579   7.055  17.654  0.00  0.00    +0.000 A 
ATOM      9  C   UNL     1       4.322   7.081  16.463  0.00  0.00    +0.000 A 
ATOM     10  C   UNL     1       5.156   6.011  16.125  0.00  0.00    +0.000 A 
ATOM     11  C   UNL     1       5.258   4.905  16.969  0.00  0.00    +0.000 A 
ATOM     12  C   UNL     1       4.525   4.867  18.154  0.00  0.00    +0.000 A 
ATOM     13  C   UNL     1       3.688   5.939  18.502  0.00  0.00    +0.000 A 
ATOM     14  C   UNL     1       2.926   5.857  19.779  0.00  0.00    +0.000 C 
ATOM     15  O   UNL     1       3.034   4.875  20.504  0.00  0.00    +0.000 OA
ENDROOT
BRANCH   1  16
ATOM     16  C   UNL     1      -0.421   8.658  22.012  0.00  0.00    +0.000 C 
BRANCH  16  17
ATOM     17  C   UNL     1       0.021   9.871  22.836  0.00  0.00    +0.000 C 
BRANCH  17  19
ATOM     18  C   UNL     1      -0.952  12.204  22.791  0.00  0.00    +0.000 C 
ATOM     19  C   UNL     1      -1.183  10.754  23.177  0.00  0.00    +0.000 C 
ENDBRANCH  17  19
ENDBRANCH  16  17
ENDBRANCH   1  16
BRANCH   5  20
ATOM     20  C   UNL     1       0.537  10.179  19.269  0.00  0.00    +0.000 C 
BRANCH  20  21
ATOM     21  C   UNL     1      -0.776  10.167  18.451  0.00  0.00    +0.000 C 
BRANCH  21  22
ATOM     22  N   UNL     1      -1.236  11.494  17.986  0.00  0.00    +0.000 NA
ATOM     23  C   UNL     1      -1.594  12.439  19.064  0.00  0.00    +0.000 C 
ATOM     24  C   UNL     1      -2.948  12.156  19.735  0.00  0.00    +0.000 C 
ATOM     25  O   UNL     1      -4.009  12.102  18.774  0.00  0.00    +0.000 OA
ATOM     26  C   UNL     1      -3.740  11.106  17.782  0.00  0.00    +0.000 C 
ATOM     27  C   UNL     1      -2.403  11.378  17.072  0.00  0.00    +0.000 C 
ENDBRANCH  21  22
ENDBRANCH  20  21
ENDBRANCH   5  20
TORSDOF 6
ENDMDL
MODEL 8
REMARK VINA RESULT:      -6.9      0.933      1.309
REMARK  Name = 
REMARK  7 active torsions:
REMARK  status: ('A' for Active; 'I' for Inactive)
REMARK    1  A    between atoms: C_1  and  C_2
REMARK    2  A    between atoms: C_2  and  C_3
REMARK    3  A    between atoms: C_3  and  C_4
REMARK    4  A    between atoms: C_4  and  C_5
REMARK    5  A    between atoms: N_9  and  C_10
REMARK    6  A    between atoms: C_10  and  C_11
REMARK    7  A    between atoms: C_11  and  N_12
REMARK                            x       y       z     vdW  Elec       q    Type
REMARK                         _______ _______ _______ _____ _____    ______ ____
ROOT
ATOM      1  C   UNL     1       2.249   6.153  20.132  0.00  0.00    +0.000 A 
ATOM      2  N   UNL     1       1.466   6.732  21.023  0.00  0.00    +0.000 NA
ATOM      3  C   UNL     1       1.191   7.976  20.554  0.00  0.00    +0.000 A 
ATOM      4  C   UNL     1       1.776   8.171  19.323  0.00  0.00    +0.000 A 
ATOM      5  N   UNL     1       2.438   6.978  19.028  0.00  0.00    +0.000 N 
ATOM      6  C   UNL     1       1.670   9.419  18.601  0.00  0.00    +0.000 C 
ATOM      7  O   UNL     1       2.178   9.637  17.508  0.00  0.00    +0.000 OA
ATOM      8  C   UNL     1       0.881  10.501  19.282  0.00  0.00    +0.000 A 
ATOM      9  C   UNL     1       0.729  11.748  18.657  0.00  0.00    +0.000 A 
ATOM     10  C   UNL     1       0.001  12.767  19.278  0.00  0.00    +0.000 A 
ATOM     11  C   UNL     1      -0.580  12.554  20.528  0.00  0.00    +0.000 A 
ATOM     12  C   UNL     1      -0.436  11.321  21.159  0.00  0.00    +0.000 A 
ATOM     13  C   UNL     1       0.290  10.291  20.540  0.00  0.00    +0.000 A 
ATOM     14  C   UNL     1       0.416   8.987  21.250  0.00  0.00    +0.000 C 
ATOM     15  O   UNL     1      -0.107   8.825  22.346  0.00  0.00    +0.000 OA
ENDROOT
BRANCH   1  16
ATOM     16  C   UNL     1       2.786   4.782  20.393  0.00  0.00    +0.000 C 
BRANCH  16  17
ATOM     17  C   UNL     1       1.889   3.984  21.346  0.00  0.00    +0.000 C 
BRANCH  17  19
ATOM     18  C   UNL     1       0.961   2.881  19.269  0.00  0.00    +0.000 C 
ATOM     19  C   UNL     1       1.449   2.672  20.692  0.00  0.00    +0.000 C 
ENDBRANCH  17  19
ENDBRANCH  16  17
ENDBRANCH   1  16
BRANCH   5  20
ATOM     20  C   UNL     1       3.280   6.785  17.845  0.00  0.00    +0.000 C 
BRANCH  20  21
ATOM     21  C   UNL     1       3.902   5.396  17.568  0.00  0.00    +0.000 C 
BRANCH  21  22
ATOM     22  N   UNL     1       4.807   5.337  16.399  0.00  0.00    +0.000 NA
ATOM     23  C   UNL     1       5.813   4.256  16.449  0.00  0.00    +0.000 C 
ATOM     24  C   UNL     1       6.990   4.526  17.401  0.00  0.00    +0.000 C 
ATOM     25  O   UNL     1       7.636   5.769  17.099  0.00  0.00    +0.000 OA
ATOM     26  C   UNL     1       6.701   6.851  17.162  0.00  0.00    +0.000 C 
ATOM     27  C   UNL     1       5.524   6.624  16.198  0.00  0.00    +0.000 C 
ENDBRANCH  21  22
ENDBRANCH  20  21
ENDBRANCH   5  20
TORSDOF 6
ENDMDL
MODEL 9
REMARK VINA RESULT:      -6.9      0.975      1.413
REMARK  Name = 
REMARK  7 active torsions:
REMARK  status: ('A' for Active; 'I' for Inactive)
REMARK    1  A    between atoms: C_1  and  C_2
REMARK    2  A    between atoms: C_2  and  C_3
REMARK    3  A    between atoms: C_3  and  C_4
REMARK    4  A    between atoms: C_4  and  C_5
REMARK    5  A    between atoms: N_9  and  C_10
REMARK    6  A    between atoms: C_10  and  C_11
REMARK    7  A    between atoms: C_11  and  N_12
REMARK                            x       y       z     vdW  Elec       q    Type
REMARK                         _______ _______ _______ _____ _____    ______ ____
ROOT
ATOM      1  C   UNL     1       2.560   5.744  19.933  0.00  0.00    +0.000 A 
ATOM      2  N   UNL     1       1.665   6.245  20.762  0.00  0.00    +0.000 NA
ATOM      3  C   UNL     1       1.374   7.495  20.319  0.00  0.00    +0.000 A 
ATOM      4  C   UNL     1       2.067   7.773  19.162  0.00  0.00    +0.000 A 
ATOM      5  N   UNL     1       2.816   6.627  18.888  0.00  0.00    +0.000 N 
ATOM      6  C   UNL     1       1.969   9.046  18.485  0.00  0.00    +0.000 C 
ATOM      7  O   UNL     1       2.571   9.338  17.458  0.00  0.00    +0.000 OA
ATOM      8  C   UNL     1       1.063  10.058  19.126  0.00  0.00    +0.000 A 
ATOM      9  C   UNL     1       0.910  11.324  18.540  0.00  0.00    +0.000 A 
ATOM     10  C   UNL     1       0.072  12.278  19.125  0.00  0.00    +0.000 A 
ATOM     11  C   UNL     1      -0.618  11.982  20.300  0.00  0.00    +0.000 A 
ATOM     12  C   UNL     1      -0.475  10.729  20.892  0.00  0.00    +0.000 A 
ATOM     13  C   UNL     1       0.361   9.763  20.307  0.00  0.00    +0.000 A 
ATOM     14  C   UNL     1       0.483   8.436  20.973  0.00  0.00    +0.000 C 
ATOM     15  O   UNL     1      -0.137   8.199  22.004  0.00  0.00    +0.000 OA
ENDROOT
BRANCH   1  16
ATOM     16  C   UNL     1       3.138   4.390  20.190  0.00  0.00    +0.000 C 
BRANCH  16  17
ATOM     17  C   UNL     1       2.391   3.291  19.427  0.00  0.00    +0.000 C 
BRANCH  17  19
ATOM     18  C   UNL     1       1.441   2.648  21.679  0.00  0.00    +0.000 C 
ATOM     19  C   UNL     1       1.147   2.852  20.203  0.00  0.00    +0.000 C 
ENDBRANCH  17  19
ENDBRANCH  16  17
ENDBRANCH   1  16
BRANCH   5  20
ATOM     20  C   UNL     1       3.779   6.528  17.789  0.00  0.00    +0.000 C 
BRANCH  20  21
ATOM     21  C   UNL     1       4.061   5.152  17.141  0.00  0.00    +0.000 C 
BRANCH  21  22
ATOM     22  N   UNL     1       5.397   4.586  17.428  0.00  0.00    +0.000 NA
ATOM     23  C   UNL     1       6.360   5.539  18.016  0.00  0.00    +0.000 C 
ATOM     24  C   UNL     1       6.953   6.544  17.015  0.00  0.00    +0.000 C 
ATOM     25  O   UNL     1       7.557   5.879  15.898  0.00  0.00    +0.000 OA
ATOM     26  C   UNL     1       6.606   5.038  15.238  0.00  0.00    +0.000 C 
ATOM     27  C   UNL     1       6.015   4.001  16.209  0.00  0.00    +0.000 C 
ENDBRANCH  21  22
ENDBRANCH  20  21
ENDBRANCH   5  20
TORSDOF 6
ENDMDL
