MODEL 1
REMARK VINA RESULT:      -8.1      0.000      0.000
REMARK  Name = 
REMARK  6 active torsions:
REMARK  status: ('A' for Active; 'I' for Inactive)
REMARK    1  A    between atoms: C_1  and  C_2
REMARK    2  A    between atoms: C_4  and  C_5
REMARK    3  A    between atoms: C_11  and  C_12
REMARK    4  A    between atoms: C_12  and  O_14
REMARK    5  A    between atoms: N_16  and  C_17
REMARK    6  A    between atoms: C_23  and  C_24
REMARK                            x       y       z     vdW  Elec       q    Type
REMARK                         _______ _______ _______ _____ _____    ______ ____
ROOT
ATOM      1  C   UNL     1       1.396   8.892  19.122  0.00  0.00    +0.000 A 
ATOM      2  C   UNL     1       2.040   9.264  17.929  0.00  0.00    +0.000 A 
ATOM      3  C   UNL     1       3.039   8.474  17.364  0.00  0.00    +0.000 A 
ATOM      4  C   UNL     1       3.383   7.264  17.966  0.00  0.00    +0.000 A 
ATOM      5  C   UNL     1       4.439   6.434  17.353  0.00  0.00    +0.000 A 
ATOM      6  O   UNL     1       5.093   6.835  16.393  0.00  0.00    +0.000 OA
ATOM      7  C   UNL     1       4.683   5.090  17.908  0.00  0.00    +0.000 A 
ATOM      8  C   UNL     1       3.977   4.738  18.993  0.00  0.00    +0.000 A 
ATOM      9  N   UNL     1       3.065   5.535  19.667  0.00  0.00    +0.000 N 
ATOM     10  C   UNL     1       2.733   6.814  19.129  0.00  0.00    +0.000 A 
ATOM     11  C   UNL     1       1.766   7.658  19.703  0.00  0.00    +0.000 A 
ENDROOT
BRANCH   1  15
ATOM     12  C   UNL     1      -0.913  10.874  23.141  0.00  0.00    +0.000 C 
ATOM     13  C   UNL     1      -0.743  10.733  21.658  0.00  0.00    +0.000 A 
ATOM     14  C   UNL     1       0.229   9.888  21.129  0.00  0.00    +0.000 A 
ATOM     15  C   UNL     1       0.377   9.775  19.740  0.00  0.00    +0.000 A 
ATOM     16  C   UNL     1      -0.491  10.541  18.948  0.00  0.00    +0.000 A 
ATOM     17  C   UNL     1      -1.451  11.352  19.543  0.00  0.00    +0.000 A 
ATOM     18  C   UNL     1      -2.400  12.153  18.703  0.00  0.00    +0.000 C 
ATOM     19  N   UNL     1      -1.582  11.457  20.883  0.00  0.00    +0.000 NA
ENDBRANCH   1  15
BRANCH   9  20
ATOM     20  C   UNL     1       2.274   4.954  20.774  0.00  0.00    +0.000 C 
ATOM     21  C   UNL     1       1.078   4.051  20.610  0.00  0.00    +0.000 C 
ATOM     22  C   UNL     1       2.380   3.478  21.075  0.00  0.00    +0.000 C 
ENDBRANCH   9  20
BRANCH   7  23
ATOM     23  C   UNL     1       5.647   4.139  17.320  0.00  0.00    +0.000 C 
ATOM     24  O   UNL     1       5.436   3.524  16.283  0.00  0.00    +0.000 OA
BRANCH  23  25
ATOM     25  O   UNL     1       6.793   3.994  18.020  0.00  0.00    +0.000 OA
ATOM     26  H   UNL     1       6.677   3.548  18.896  0.00  0.00    +0.000 HD
ENDBRANCH  23  25
ENDBRANCH   7  23
TORSDOF 4
ENDMDL
MODEL 2
REMARK VINA RESULT:      -8.1      0.201      1.663
REMARK  Name = 
REMARK  6 active torsions:
REMARK  status: ('A' for Active; 'I' for Inactive)
REMARK    1  A    between atoms: C_1  and  C_2
REMARK    2  A    between atoms: C_4  and  C_5
REMARK    3  A    between atoms: C_11  and  C_12
REMARK    4  A    between atoms: C_12  and  O_14
REMARK    5  A    between atoms: N_16  and  C_17
REMARK    6  A    between atoms: C_23  and  C_24
REMARK                            x       y       z     vdW  Elec       q    Type
REMARK                         _______ _______ _______ _____ _____    ______ ____
ROOT
ATOM      1  C   UNL     1       1.454   8.866  19.186  0.00  0.00    +0.000 A 
ATOM      2  C   UNL     1       2.076   9.246  17.983  0.00  0.00    +0.000 A 
ATOM      3  C   UNL     1       3.056   8.455  17.390  0.00  0.00    +0.000 A 
ATOM      4  C   UNL     1       3.403   7.235  17.971  0.00  0.00    +0.000 A 
ATOM      5  C   UNL     1       4.439   6.405  17.327  0.00  0.00    +0.000 A 
ATOM      6  O   UNL     1       5.077   6.811  16.358  0.00  0.00    +0.000 OA
ATOM      7  C   UNL     1       4.684   5.053  17.862  0.00  0.00    +0.000 A 
ATOM      8  C   UNL     1       3.998   4.694  18.958  0.00  0.00    +0.000 A 
ATOM      9  N   UNL     1       3.106   5.491  19.660  0.00  0.00    +0.000 N 
ATOM     10  C   UNL     1       2.774   6.778  19.142  0.00  0.00    +0.000 A 
ATOM     11  C   UNL     1       1.825   7.623  19.746  0.00  0.00    +0.000 A 
ENDROOT
BRANCH   1  15
ATOM     12  C   UNL     1      -2.041  12.495  19.012  0.00  0.00    +0.000 C 
ATOM     13  C   UNL     1      -1.223  11.492  19.767  0.00  0.00    +0.000 A 
ATOM     14  C   UNL     1      -0.296  10.687  19.110  0.00  0.00    +0.000 A 
ATOM     15  C   UNL     1       0.454   9.750  19.834  0.00  0.00    +0.000 A 
ATOM     16  C   UNL     1       0.218   9.683  21.215  0.00  0.00    +0.000 A 
ATOM     17  C   UNL     1      -0.711  10.529  21.809  0.00  0.00    +0.000 A 
ATOM     18  C   UNL     1      -0.948  10.482  23.289  0.00  0.00    +0.000 C 
ATOM     19  N   UNL     1      -1.432  11.425  21.102  0.00  0.00    +0.000 NA
ENDBRANCH   1  15
BRANCH   9  20
ATOM     20  C   UNL     1       2.334   4.904  20.776  0.00  0.00    +0.000 C 
ATOM     21  C   UNL     1       1.121   4.020  20.627  0.00  0.00    +0.000 C 
ATOM     22  C   UNL     1       2.426   3.422  21.052  0.00  0.00    +0.000 C 
ENDBRANCH   9  20
BRANCH   7  23
ATOM     23  C   UNL     1       5.628   4.101  17.244  0.00  0.00    +0.000 C 
ATOM     24  O   UNL     1       5.380   3.477  16.221  0.00  0.00    +0.000 OA
BRANCH  23  25
ATOM     25  O   UNL     1       6.802   3.964  17.900  0.00  0.00    +0.000 OA
ATOM     26  H   UNL     1       6.709   3.912  18.885  0.00  0.00    +0.000 HD
ENDBRANCH  23  25
ENDBRANCH   7  23
TORSDOF 4
ENDMDL
MODEL 3
REMARK VINA RESULT:      -8.0      1.015      1.119
REMARK  Name = 
REMARK  6 active torsions:
REMARK  status: ('A' for Active; 'I' for Inactive)
REMARK    1  A    between atoms: C_1  and  C_2
REMARK    2  A    between atoms: C_4  and  C_5
REMARK    3  A    between atoms: C_11  and  C_12
REMARK    4  A    between atoms: C_12  and  O_14
REMARK    5  A    between atoms: N_16  and  C_17
REMARK    6  A    between atoms: C_23  and  C_24
REMARK                            x       y       z     vdW  Elec       q    Type
REMARK                         _______ _______ _______ _____ _____    ______ ____
ROOT
ATOM      1  C   UNL     1       2.046   8.284  19.035  0.00  0.00    +0.000 A 
ATOM      2  C   UNL     1       2.545   8.814  17.833  0.00  0.00    +0.000 A 
ATOM      3  C   UNL     1       3.521   8.151  17.094  0.00  0.00    +0.000 A 
ATOM      4  C   UNL     1       3.988   6.909  17.527  0.00  0.00    +0.000 A 
ATOM      5  C   UNL     1       5.018   6.215  16.730  0.00  0.00    +0.000 A 
ATOM      6  O   UNL     1       5.550   6.751  15.760  0.00  0.00    +0.000 OA
ATOM      7  C   UNL     1       5.388   4.839  17.111  0.00  0.00    +0.000 A 
ATOM      8  C   UNL     1       4.815   4.334  18.215  0.00  0.00    +0.000 A 
ATOM      9  N   UNL     1       3.935   5.000  19.055  0.00  0.00    +0.000 N 
ATOM     10  C   UNL     1       3.484   6.304  18.691  0.00  0.00    +0.000 A 
ATOM     11  C   UNL     1       2.537   7.023  19.443  0.00  0.00    +0.000 A 
ENDROOT
BRANCH   1  15
ATOM     12  C   UNL     1      -0.149   9.452  23.420  0.00  0.00    +0.000 C 
ATOM     13  C   UNL     1      -0.016   9.602  21.935  0.00  0.00    +0.000 A 
ATOM     14  C   UNL     1       0.936   8.873  21.226  0.00  0.00    +0.000 A 
ATOM     15  C   UNL     1       1.050   9.033  19.839  0.00  0.00    +0.000 A 
ATOM     16  C   UNL     1       0.171   9.944  19.234  0.00  0.00    +0.000 A 
ATOM     17  C   UNL     1      -0.767  10.627  20.000  0.00  0.00    +0.000 A 
ATOM     18  C   UNL     1      -1.728  11.580  19.356  0.00  0.00    +0.000 C 
ATOM     19  N   UNL     1      -0.866  10.468  21.337  0.00  0.00    +0.000 NA
ENDBRANCH   1  15
BRANCH   9  20
ATOM     20  C   UNL     1       3.293   4.261  20.163  0.00  0.00    +0.000 C 
ATOM     21  C   UNL     1       1.818   3.969  20.277  0.00  0.00    +0.000 C 
ATOM     22  C   UNL     1       2.766   2.866  19.926  0.00  0.00    +0.000 C 
ENDBRANCH   9  20
BRANCH   7  23
ATOM     23  C   UNL     1       6.335   4.015  16.336  0.00  0.00    +0.000 C 
ATOM     24  O   UNL     1       6.004   3.340  15.370  0.00  0.00    +0.000 OA
BRANCH  23  25
ATOM     25  O   UNL     1       7.612   4.061  16.775  0.00  0.00    +0.000 OA
ATOM     26  H   UNL     1       8.258   4.389  16.101  0.00  0.00    +0.000 HD
ENDBRANCH  23  25
ENDBRANCH   7  23
TORSDOF 4
ENDMDL
MODEL 4
REMARK VINA RESULT:      -7.9      2.161      3.656
REMARK  Name = 
REMARK  6 active torsions:
REMARK  status: ('A' for Active; 'I' for Inactive)
REMARK    1  A    between atoms: C_1  and  C_2
REMARK    2  A    between atoms: C_4  and  C_5
REMARK    3  A    between atoms: C_11  and  C_12
REMARK    4  A    between atoms: C_12  and  O_14
REMARK    5  A    between atoms: N_16  and  C_17
REMARK    6  A    between atoms: C_23  and  C_24
REMARK                            x       y       z     vdW  Elec       q    Type
REMARK                         _______ _______ _______ _____ _____    ______ ____
ROOT
ATOM      1  C   UNL     1       1.546   8.452  19.478  0.00  0.00    +0.000 A 
ATOM      2  C   UNL     1       1.104   7.746  20.611  0.00  0.00    +0.000 A 
ATOM      3  C   UNL     1       1.486   6.427  20.841  0.00  0.00    +0.000 A 
ATOM      4  C   UNL     1       2.363   5.799  19.957  0.00  0.00    +0.000 A 
ATOM      5  C   UNL     1       2.764   4.403  20.219  0.00  0.00    +0.000 A 
ATOM      6  O   UNL     1       2.261   3.750  21.130  0.00  0.00    +0.000 OA
ATOM      7  C   UNL     1       3.809   3.804  19.367  0.00  0.00    +0.000 A 
ATOM      8  C   UNL     1       4.273   4.549  18.352  0.00  0.00    +0.000 A 
ATOM      9  N   UNL     1       3.834   5.817  18.003  0.00  0.00    +0.000 N 
ATOM     10  C   UNL     1       2.882   6.474  18.839  0.00  0.00    +0.000 A 
ATOM     11  C   UNL     1       2.436   7.787  18.605  0.00  0.00    +0.000 A 
ENDROOT
BRANCH   1  15
ATOM     12  C   UNL     1       2.376  13.232  18.109  0.00  0.00    +0.000 C 
ATOM     13  C   UNL     1       1.463  12.134  18.566  0.00  0.00    +0.000 A 
ATOM     14  C   UNL     1       1.952  10.851  18.798  0.00  0.00    +0.000 A 
ATOM     15  C   UNL     1       1.081   9.836  19.217  0.00  0.00    +0.000 A 
ATOM     16  C   UNL     1      -0.266  10.190  19.384  0.00  0.00    +0.000 A 
ATOM     17  C   UNL     1      -0.683  11.495  19.151  0.00  0.00    +0.000 A 
ATOM     18  C   UNL     1      -2.116  11.886  19.354  0.00  0.00    +0.000 C 
ATOM     19  N   UNL     1       0.164  12.464  18.742  0.00  0.00    +0.000 NA
ENDBRANCH   1  15
BRANCH   9  20
ATOM     20  C   UNL     1       4.537   6.558  16.933  0.00  0.00    +0.000 C 
ATOM     21  C   UNL     1       6.032   6.613  16.747  0.00  0.00    +0.000 C 
ATOM     22  C   UNL     1       5.198   5.799  15.808  0.00  0.00    +0.000 C 
ENDBRANCH   9  20
BRANCH   7  23
ATOM     23  C   UNL     1       4.354   2.452  19.592  0.00  0.00    +0.000 C 
ATOM     24  O   UNL     1       5.031   2.154  20.568  0.00  0.00    +0.000 OA
BRANCH  23  25
ATOM     25  O   UNL     1       4.049   1.554  18.630  0.00  0.00    +0.000 OA
ATOM     26  H   UNL     1       3.271   1.808  18.073  0.00  0.00    +0.000 HD
ENDBRANCH  23  25
ENDBRANCH   7  23
TORSDOF 4
ENDMDL
MODEL 5
REMARK VINA RESULT:      -7.9      2.151      3.648
REMARK  Name = 
REMARK  6 active torsions:
REMARK  status: ('A' for Active; 'I' for Inactive)
REMARK    1  A    between atoms: C_1  and  C_2
REMARK    2  A    between atoms: C_4  and  C_5
REMARK    3  A    between atoms: C_11  and  C_12
REMARK    4  A    between atoms: C_12  and  O_14
REMARK    5  A    between atoms: N_16  and  C_17
REMARK    6  A    between atoms: C_23  and  C_24
REMARK                            x       y       z     vdW  Elec       q    Type
REMARK                         _______ _______ _______ _____ _____    ______ ____
ROOT
ATOM      1  C   UNL     1       1.543   8.416  19.508  0.00  0.00    +0.000 A 
ATOM      2  C   UNL     1       1.100   7.697  20.632  0.00  0.00    +0.000 A 
ATOM      3  C   UNL     1       1.488   6.378  20.851  0.00  0.00    +0.000 A 
ATOM      4  C   UNL     1       2.371   5.763  19.963  0.00  0.00    +0.000 A 
ATOM      5  C   UNL     1       2.779   4.367  20.212  0.00  0.00    +0.000 A 
ATOM      6  O   UNL     1       2.276   3.702  21.115  0.00  0.00    +0.000 OA
ATOM      7  C   UNL     1       3.829   3.782  19.358  0.00  0.00    +0.000 A 
ATOM      8  C   UNL     1       4.293   4.539  18.352  0.00  0.00    +0.000 A 
ATOM      9  N   UNL     1       3.849   5.809  18.015  0.00  0.00    +0.000 N 
ATOM     10  C   UNL     1       2.891   6.452  18.854  0.00  0.00    +0.000 A 
ATOM     11  C   UNL     1       2.439   7.765  18.631  0.00  0.00    +0.000 A 
ENDROOT
BRANCH   1  15
ATOM     12  C   UNL     1      -2.079  11.921  19.395  0.00  0.00    +0.000 C 
ATOM     13  C   UNL     1      -0.656  11.493  19.198  0.00  0.00    +0.000 A 
ATOM     14  C   UNL     1      -0.266  10.179  19.443  0.00  0.00    +0.000 A 
ATOM     15  C   UNL     1       1.071   9.801  19.260  0.00  0.00    +0.000 A 
ATOM     16  C   UNL     1       1.956  10.799  18.827  0.00  0.00    +0.000 A 
ATOM     17  C   UNL     1       1.495  12.088  18.585  0.00  0.00    +0.000 A 
ATOM     18  C   UNL     1       2.430  13.153  18.095  0.00  0.00    +0.000 C 
ATOM     19  N   UNL     1       0.205  12.443  18.769  0.00  0.00    +0.000 NA
ENDBRANCH   1  15
BRANCH   9  20
ATOM     20  C   UNL     1       4.551   6.564  16.954  0.00  0.00    +0.000 C 
ATOM     21  C   UNL     1       6.045   6.603  16.755  0.00  0.00    +0.000 C 
ATOM     22  C   UNL     1       5.192   5.821  15.806  0.00  0.00    +0.000 C 
ENDBRANCH   9  20
BRANCH   7  23
ATOM     23  C   UNL     1       4.380   2.429  19.571  0.00  0.00    +0.000 C 
ATOM     24  O   UNL     1       5.085   2.135  20.527  0.00  0.00    +0.000 OA
BRANCH  23  25
ATOM     25  O   UNL     1       4.047   1.529  18.621  0.00  0.00    +0.000 OA
ATOM     26  H   UNL     1       3.438   0.815  18.938  0.00  0.00    +0.000 HD
ENDBRANCH  23  25
ENDBRANCH   7  23
TORSDOF 4
ENDMDL
MODEL 6
REMARK VINA RESULT:      -7.7      4.077      8.198
REMARK  Name = 
REMARK  6 active torsions:
REMARK  status: ('A' for Active; 'I' for Inactive)
REMARK    1  A    between atoms: C_1  and  C_2
REMARK    2  A    between atoms: C_4  and  C_5
REMARK    3  A    between atoms: C_11  and  C_12
REMARK    4  A    between atoms: C_12  and  O_14
REMARK    5  A    between atoms: N_16  and  C_17
REMARK    6  A    between atoms: C_23  and  C_24
REMARK                            x       y       z     vdW  Elec       q    Type
REMARK                         _______ _______ _______ _____ _____    ______ ____
ROOT
ATOM      1  C   UNL     1       1.925   7.545  19.660  0.00  0.00    +0.000 A 
ATOM      2  C   UNL     1       1.424   7.050  20.877  0.00  0.00    +0.000 A 
ATOM      3  C   UNL     1       0.797   7.885  21.799  0.00  0.00    +0.000 A 
ATOM      4  C   UNL     1       0.619   9.235  21.495  0.00  0.00    +0.000 A 
ATOM      5  C   UNL     1      -0.053  10.106  22.479  0.00  0.00    +0.000 A 
ATOM      6  O   UNL     1      -0.358   9.697  23.597  0.00  0.00    +0.000 OA
ATOM      7  C   UNL     1      -0.374  11.490  22.084  0.00  0.00    +0.000 A 
ATOM      8  C   UNL     1       0.040  11.893  20.872  0.00  0.00    +0.000 A 
ATOM      9  N   UNL     1       0.777  11.141  19.971  0.00  0.00    +0.000 N 
ATOM     10  C   UNL     1       1.048   9.772  20.270  0.00  0.00    +0.000 A 
ATOM     11  C   UNL     1       1.724   8.915  19.383  0.00  0.00    +0.000 A 
ENDROOT
BRANCH   1  15
ATOM     12  C   UNL     1       5.468   6.690  16.178  0.00  0.00    +0.000 C 
ATOM     13  C   UNL     1       4.336   6.227  17.043  0.00  0.00    +0.000 A 
ATOM     14  C   UNL     1       3.694   7.107  17.911  0.00  0.00    +0.000 A 
ATOM     15  C   UNL     1       2.642   6.652  18.717  0.00  0.00    +0.000 A 
ATOM     16  C   UNL     1       2.291   5.299  18.593  0.00  0.00    +0.000 A 
ATOM     17  C   UNL     1       2.964   4.480  17.694  0.00  0.00    +0.000 A 
ATOM     18  C   UNL     1       2.575   3.040  17.537  0.00  0.00    +0.000 C 
ATOM     19  N   UNL     1       3.979   4.927  16.925  0.00  0.00    +0.000 NA
ENDBRANCH   1  15
BRANCH   9  20
ATOM     20  C   UNL     1       1.048  11.687  18.623  0.00  0.00    +0.000 C 
ATOM     21  C   UNL     1       1.041  13.150  18.257  0.00  0.00    +0.000 C 
ATOM     22  C   UNL     1       2.342  12.417  18.357  0.00  0.00    +0.000 C 
ENDBRANCH   9  20
BRANCH   7  23
ATOM     23  C   UNL     1      -1.125  12.421  22.949  0.00  0.00    +0.000 C 
ATOM     24  O   UNL     1      -0.663  13.478  23.358  0.00  0.00    +0.000 OA
BRANCH  23  25
ATOM     25  O   UNL     1      -2.375  12.016  23.261  0.00  0.00    +0.000 OA
ATOM     26  H   UNL     1      -2.688  11.236  22.739  0.00  0.00    +0.000 HD
ENDBRANCH  23  25
ENDBRANCH   7  23
TORSDOF 4
ENDMDL
MODEL 7
REMARK VINA RESULT:      -7.6      4.085      8.168
REMARK  Name = 
REMARK  6 active torsions:
REMARK  status: ('A' for Active; 'I' for Inactive)
REMARK    1  A    between atoms: C_1  and  C_2
REMARK    2  A    between atoms: C_4  and  C_5
REMARK    3  A    between atoms: C_11  and  C_12
REMARK    4  A    between atoms: C_12  and  O_14
REMARK    5  A    between atoms: N_16  and  C_17
REMARK    6  A    between atoms: C_23  and  C_24
REMARK                            x       y       z     vdW  Elec       q    Type
REMARK                         _______ _______ _______ _____ _____    ______ ____
ROOT
ATOM      1  C   UNL     1       1.890   7.577  19.652  0.00  0.00    +0.000 A 
ATOM      2  C   UNL     1       1.361   7.094  20.862  0.00  0.00    +0.000 A 
ATOM      3  C   UNL     1       0.725   7.939  21.767  0.00  0.00    +0.000 A 
ATOM      4  C   UNL     1       0.567   9.289  21.455  0.00  0.00    +0.000 A 
ATOM      5  C   UNL     1      -0.115  10.172  22.422  0.00  0.00    +0.000 A 
ATOM      6  O   UNL     1      -0.446   9.771  23.535  0.00  0.00    +0.000 OA
ATOM      7  C   UNL     1      -0.414  11.557  22.014  0.00  0.00    +0.000 A 
ATOM      8  C   UNL     1       0.028  11.950  20.809  0.00  0.00    +0.000 A 
ATOM      9  N   UNL     1       0.775  11.187  19.925  0.00  0.00    +0.000 N 
ATOM     10  C   UNL     1       1.025   9.817  20.235  0.00  0.00    +0.000 A 
ATOM     11  C   UNL     1       1.709   8.948  19.365  0.00  0.00    +0.000 A 
ENDROOT
BRANCH   1  15
ATOM     12  C   UNL     1       2.556   3.102  17.429  0.00  0.00    +0.000 C 
ATOM     13  C   UNL     1       2.950   4.530  17.655  0.00  0.00    +0.000 A 
ATOM     14  C   UNL     1       2.235   5.337  18.536  0.00  0.00    +0.000 A 
ATOM     15  C   UNL     1       2.616   6.672  18.727  0.00  0.00    +0.000 A 
ATOM     16  C   UNL     1       3.727   7.123  17.999  0.00  0.00    +0.000 A 
ATOM     17  C   UNL     1       4.405   6.258  17.149  0.00  0.00    +0.000 A 
ATOM     18  C   UNL     1       5.610   6.725  16.388  0.00  0.00    +0.000 C 
ATOM     19  N   UNL     1       4.027   4.974  16.968  0.00  0.00    +0.000 NA
ENDBRANCH   1  15
BRANCH   9  20
ATOM     20  C   UNL     1       1.076  11.723  18.581  0.00  0.00    +0.000 C 
ATOM     21  C   UNL     1       1.086  13.184  18.207  0.00  0.00    +0.000 C 
ATOM     22  C   UNL     1       2.381  12.445  18.338  0.00  0.00    +0.000 C 
ENDBRANCH   9  20
BRANCH   7  23
ATOM     23  C   UNL     1      -1.171  12.500  22.860  0.00  0.00    +0.000 C 
ATOM     24  O   UNL     1      -0.811  13.651  23.071  0.00  0.00    +0.000 OA
BRANCH  23  25
ATOM     25  O   UNL     1      -2.304  11.994  23.394  0.00  0.00    +0.000 OA
ATOM     26  H   UNL     1      -3.001  11.775  22.725  0.00  0.00    +0.000 HD
ENDBRANCH  23  25
ENDBRANCH   7  23
TORSDOF 4
ENDMDL
MODEL 8
REMARK VINA RESULT:      -7.6      3.997      8.158
REMARK  Name = 
REMARK  6 active torsions:
REMARK  status: ('A' for Active; 'I' for Inactive)
REMARK    1  A    between atoms: C_1  and  C_2
REMARK    2  A    between atoms: C_4  and  C_5
REMARK    3  A    between atoms: C_11  and  C_12
REMARK    4  A    between atoms: C_12  and  O_14
REMARK    5  A    between atoms: N_16  and  C_17
REMARK    6  A    between atoms: C_23  and  C_24
REMARK                            x       y       z     vdW  Elec       q    Type
REMARK                         _______ _______ _______ _____ _____    ______ ____
ROOT
ATOM      1  C   UNL     1       1.807   7.757  19.608  0.00  0.00    +0.000 A 
ATOM      2  C   UNL     1       1.841   7.597  21.004  0.00  0.00    +0.000 A 
ATOM      3  C   UNL     1       1.192   8.489  21.855  0.00  0.00    +0.000 A 
ATOM      4  C   UNL     1       0.452   9.541  21.315  0.00  0.00    +0.000 A 
ATOM      5  C   UNL     1      -0.236  10.474  22.229  0.00  0.00    +0.000 A 
ATOM      6  O   UNL     1      -0.082  10.410  23.447  0.00  0.00    +0.000 OA
ATOM      7  C   UNL     1      -1.139  11.484  21.648  0.00  0.00    +0.000 A 
ATOM      8  C   UNL     1      -1.215  11.540  20.309  0.00  0.00    +0.000 A 
ATOM      9  N   UNL     1      -0.493  10.761  19.418  0.00  0.00    +0.000 N 
ATOM     10  C   UNL     1       0.335   9.716  19.926  0.00  0.00    +0.000 A 
ATOM     11  C   UNL     1       1.045   8.830  19.095  0.00  0.00    +0.000 A 
ENDROOT
BRANCH   1  15
ATOM     12  C   UNL     1       5.528   6.757  16.357  0.00  0.00    +0.000 C 
ATOM     13  C   UNL     1       4.332   6.337  17.157  0.00  0.00    +0.000 A 
ATOM     14  C   UNL     1       3.665   7.246  17.974  0.00  0.00    +0.000 A 
ATOM     15  C   UNL     1       2.554   6.832  18.721  0.00  0.00    +0.000 A 
ATOM     16  C   UNL     1       2.172   5.488  18.591  0.00  0.00    +0.000 A 
ATOM     17  C   UNL     1       2.873   4.639  17.744  0.00  0.00    +0.000 A 
ATOM     18  C   UNL     1       2.453   3.209  17.580  0.00  0.00    +0.000 C 
ATOM     19  N   UNL     1       3.945   5.047  17.033  0.00  0.00    +0.000 NA
ENDBRANCH   1  15
BRANCH   9  20
ATOM     20  C   UNL     1      -0.785  10.856  17.971  0.00  0.00    +0.000 C 
ATOM     21  C   UNL     1      -1.805  10.029  17.231  0.00  0.00    +0.000 C 
ATOM     22  C   UNL     1      -2.084  11.473  17.509  0.00  0.00    +0.000 C 
ENDBRANCH   9  20
BRANCH   7  23
ATOM     23  C   UNL     1      -1.948  12.407  22.467  0.00  0.00    +0.000 C 
ATOM     24  O   UNL     1      -3.169  12.470  22.400  0.00  0.00    +0.000 OA
BRANCH  23  25
ATOM     25  O   UNL     1      -1.235  13.190  23.305  0.00  0.00    +0.000 OA
ATOM     26  H   UNL     1      -0.264  12.997  23.309  0.00  0.00    +0.000 HD
ENDBRANCH  23  25
ENDBRANCH   7  23
TORSDOF 4
ENDMDL
MODEL 9
REMARK VINA RESULT:      -7.5      3.995      8.120
REMARK  Name = 
REMARK  6 active torsions:
REMARK  status: ('A' for Active; 'I' for Inactive)
REMARK    1  A    between atoms: C_1  and  C_2
REMARK    2  A    between atoms: C_4  and  C_5
REMARK    3  A    between atoms: C_11  and  C_12
REMARK    4  A    between atoms: C_12  and  O_14
REMARK    5  A    between atoms: N_16  and  C_17
REMARK    6  A    between atoms: C_23  and  C_24
REMARK                            x       y       z     vdW  Elec       q    Type
REMARK                         _______ _______ _______ _____ _____    ______ ____
ROOT
ATOM      1  C   UNL     1       1.801   7.756  19.597  0.00  0.00    +0.000 A 
ATOM      2  C   UNL     1       1.833   7.604  20.994  0.00  0.00    +0.000 A 
ATOM      3  C   UNL     1       1.184   8.501  21.839  0.00  0.00    +0.000 A 
ATOM      4  C   UNL     1       0.446   9.551  21.292  0.00  0.00    +0.000 A 
ATOM      5  C   UNL     1      -0.242  10.490  22.200  0.00  0.00    +0.000 A 
ATOM      6  O   UNL     1      -0.090  10.433  23.418  0.00  0.00    +0.000 OA
ATOM      7  C   UNL     1      -1.143  11.498  21.611  0.00  0.00    +0.000 A 
ATOM      8  C   UNL     1      -1.217  11.546  20.272  0.00  0.00    +0.000 A 
ATOM      9  N   UNL     1      -0.494  10.761  19.386  0.00  0.00    +0.000 N 
ATOM     10  C   UNL     1       0.332   9.718  19.901  0.00  0.00    +0.000 A 
ATOM     11  C   UNL     1       1.042   8.827  19.077  0.00  0.00    +0.000 A 
ENDROOT
BRANCH   1  15
ATOM     12  C   UNL     1       2.522   3.215  17.528  0.00  0.00    +0.000 C 
ATOM     13  C   UNL     1       2.909   4.651  17.718  0.00  0.00    +0.000 A 
ATOM     14  C   UNL     1       2.174   5.483  18.558  0.00  0.00    +0.000 A 
ATOM     15  C   UNL     1       2.548   6.824  18.716  0.00  0.00    +0.000 A 
ATOM     16  C   UNL     1       3.674   7.255  17.998  0.00  0.00    +0.000 A 
ATOM     17  C   UNL     1       4.371   6.365  17.189  0.00  0.00    +0.000 A 
ATOM     18  C   UNL     1       5.591   6.811  16.441  0.00  0.00    +0.000 C 
ATOM     19  N   UNL     1       4.000   5.076  17.040  0.00  0.00    +0.000 NA
ENDBRANCH   1  15
BRANCH   9  20
ATOM     20  C   UNL     1      -0.784  10.849  17.939  0.00  0.00    +0.000 C 
ATOM     21  C   UNL     1      -1.792  10.007  17.198  0.00  0.00    +0.000 C 
ATOM     22  C   UNL     1      -2.089  11.448  17.471  0.00  0.00    +0.000 C 
ENDBRANCH   9  20
BRANCH   7  23
ATOM     23  C   UNL     1      -1.952  12.427  22.423  0.00  0.00    +0.000 C 
ATOM     24  O   UNL     1      -3.172  12.496  22.349  0.00  0.00    +0.000 OA
BRANCH  23  25
ATOM     25  O   UNL     1      -1.240  13.207  23.265  0.00  0.00    +0.000 OA
ATOM     26  H   UNL     1      -0.324  13.409  22.948  0.00  0.00    +0.000 HD
ENDBRANCH  23  25
ENDBRANCH   7  23
TORSDOF 4
ENDMDL
