MODEL 1
REMARK VINA RESULT:      -6.0      0.000      0.000
REMARK  Name = 
REMARK  5 active torsions:
REMARK  status: ('A' for Active; 'I' for Inactive)
REMARK    1  A    between atoms: C_1  and  C_2
REMARK    2  A    between atoms: C_2  and  C_3
REMARK    3  A    between atoms: C_3  and  N_4
REMARK    4  A    between atoms: C_12  and  O_13
REMARK    5  A    between atoms: C_16  and  C_17
REMARK                            x       y       z     vdW  Elec       q    Type
REMARK                         _______ _______ _______ _____ _____    ______ ____
ROOT
ATOM      1  N   UNL     1      -1.906  12.804  19.333  0.00  0.00    +0.000 NA
ATOM      2  C   UNL     1      -1.506  12.794  20.760  0.00  0.00    +0.000 C 
ATOM      3  C   UNL     1      -0.749  11.565  21.205  0.00  0.00    +0.000 A 
ATOM      4  C   UNL     1      -0.940  10.958  22.456  0.00  0.00    +0.000 A 
ATOM      5  C   UNL     1      -0.334   9.736  22.781  0.00  0.00    +0.000 A 
ATOM      6  C   UNL     1       0.467   9.051  21.853  0.00  0.00    +0.000 A 
ATOM      7  C   UNL     1       0.716   9.664  20.619  0.00  0.00    +0.000 A 
ATOM      8  N   UNL     1       1.409   9.220  19.510  0.00  0.00    +0.000 NA
ATOM      9  C   UNL     1       1.334  10.212  18.660  0.00  0.00    +0.000 A 
ATOM     10  N   UNL     1       0.736  11.309  19.193  0.00  0.00    +0.000 N 
ATOM     11  C   UNL     1       0.176  10.917  20.381  0.00  0.00    +0.000 A 
ATOM     12  C   UNL     1       0.690  12.674  18.678  0.00  0.00    +0.000 C 
ATOM     13  C   UNL     1      -0.795  13.054  18.370  0.00  0.00    +0.000 C 
ENDROOT
BRANCH  12  14
ATOM     14  C   UNL     1       1.528  13.647  19.537  0.00  0.00    +0.000 A 
ATOM     15  C   UNL     1       1.204  15.020  19.610  0.00  0.00    +0.000 A 
ATOM     16  C   UNL     1       1.903  15.899  20.449  0.00  0.00    +0.000 A 
ATOM     17  C   UNL     1       2.932  15.428  21.253  0.00  0.00    +0.000 A 
ATOM     18  C   UNL     1       3.267  14.081  21.209  0.00  0.00    +0.000 A 
ATOM     19  C   UNL     1       2.569  13.201  20.369  0.00  0.00    +0.000 A 
ENDBRANCH  12  14
BRANCH   9  20
ATOM     20  O   UNL     1       1.784  10.128  17.425  0.00  0.00    +0.000 OA
ATOM     21  H   UNL     1       1.415  10.939  17.030  0.00  0.00    +0.000 HD
ENDBRANCH   9  20
BRANCH   1  22
ATOM     22  C   UNL     1      -2.731  11.651  18.913  0.00  0.00    +0.000 C 
BRANCH  22  24
ATOM     23  C   UNL     1      -2.057   9.845  17.230  0.00  0.00    +0.000 C 
ATOM     24  C   UNL     1      -2.643  11.233  17.439  0.00  0.00    +0.000 C 
ENDBRANCH  22  24
ENDBRANCH   1  22
TORSDOF 4
ENDMDL
MODEL 2
REMARK VINA RESULT:      -5.9      0.265      1.033
REMARK  Name = 
REMARK  5 active torsions:
REMARK  status: ('A' for Active; 'I' for Inactive)
REMARK    1  A    between atoms: C_1  and  C_2
REMARK    2  A    between atoms: C_2  and  C_3
REMARK    3  A    between atoms: C_3  and  N_4
REMARK    4  A    between atoms: C_12  and  O_13
REMARK    5  A    between atoms: C_16  and  C_17
REMARK                            x       y       z     vdW  Elec       q    Type
REMARK                         _______ _______ _______ _____ _____    ______ ____
ROOT
ATOM      1  N   UNL     1      -1.964  12.829  19.392  0.00  0.00    +0.000 NA
ATOM      2  C   UNL     1      -1.567  12.829  20.820  0.00  0.00    +0.000 C 
ATOM      3  C   UNL     1      -0.806  11.606  21.273  0.00  0.00    +0.000 A 
ATOM      4  C   UNL     1      -0.998  11.006  22.528  0.00  0.00    +0.000 A 
ATOM      5  C   UNL     1      -0.387   9.789  22.862  0.00  0.00    +0.000 A 
ATOM      6  C   UNL     1       0.418   9.101  21.939  0.00  0.00    +0.000 A 
ATOM      7  C   UNL     1       0.667   9.707  20.702  0.00  0.00    +0.000 A 
ATOM      8  N   UNL     1       1.365   9.259  19.597  0.00  0.00    +0.000 NA
ATOM      9  C   UNL     1       1.287  10.246  18.740  0.00  0.00    +0.000 A 
ATOM     10  N   UNL     1       0.684  11.344  19.266  0.00  0.00    +0.000 N 
ATOM     11  C   UNL     1       0.123  10.957  20.455  0.00  0.00    +0.000 A 
ATOM     12  C   UNL     1       0.634  12.705  18.743  0.00  0.00    +0.000 C 
ATOM     13  C   UNL     1      -0.853  13.077  18.429  0.00  0.00    +0.000 C 
ENDROOT
BRANCH  12  14
ATOM     14  C   UNL     1       1.466  13.687  19.597  0.00  0.00    +0.000 A 
ATOM     15  C   UNL     1       2.631  13.262  20.272  0.00  0.00    +0.000 A 
ATOM     16  C   UNL     1       3.441  14.158  20.983  0.00  0.00    +0.000 A 
ATOM     17  C   UNL     1       3.121  15.508  21.023  0.00  0.00    +0.000 A 
ATOM     18  C   UNL     1       1.985  15.958  20.361  0.00  0.00    +0.000 A 
ATOM     19  C   UNL     1       1.173  15.061  19.651  0.00  0.00    +0.000 A 
ENDBRANCH  12  14
BRANCH   9  20
ATOM     20  O   UNL     1       1.739  10.155  17.507  0.00  0.00    +0.000 OA
ATOM     21  H   UNL     1       0.910  10.055  17.005  0.00  0.00    +0.000 HD
ENDBRANCH   9  20
BRANCH   1  22
ATOM     22  C   UNL     1      -2.784  11.670  18.977  0.00  0.00    +0.000 C 
BRANCH  22  24
ATOM     23  C   UNL     1      -3.144   9.742  17.334  0.00  0.00    +0.000 C 
ATOM     24  C   UNL     1      -2.552  11.125  17.561  0.00  0.00    +0.000 C 
ENDBRANCH  22  24
ENDBRANCH   1  22
TORSDOF 4
ENDMDL
MODEL 3
REMARK VINA RESULT:      -5.8      1.829      2.701
REMARK  Name = 
REMARK  5 active torsions:
REMARK  status: ('A' for Active; 'I' for Inactive)
REMARK    1  A    between atoms: C_1  and  C_2
REMARK    2  A    between atoms: C_2  and  C_3
REMARK    3  A    between atoms: C_3  and  N_4
REMARK    4  A    between atoms: C_12  and  O_13
REMARK    5  A    between atoms: C_16  and  C_17
REMARK                            x       y       z     vdW  Elec       q    Type
REMARK                         _______ _______ _______ _____ _____    ______ ____
ROOT
ATOM      1  N   UNL     1      -1.166  11.030  18.183  0.00  0.00    +0.000 NA
ATOM      2  C   UNL     1      -1.486  12.357  18.760  0.00  0.00    +0.000 C 
ATOM      3  C   UNL     1      -1.643  12.382  20.262  0.00  0.00    +0.000 A 
ATOM      4  C   UNL     1      -2.614  13.155  20.919  0.00  0.00    +0.000 A 
ATOM      5  C   UNL     1      -2.832  13.044  22.299  0.00  0.00    +0.000 A 
ATOM      6  C   UNL     1      -2.108  12.128  23.079  0.00  0.00    +0.000 A 
ATOM      7  C   UNL     1      -1.098  11.387  22.456  0.00  0.00    +0.000 A 
ATOM      8  N   UNL     1      -0.269  10.394  22.944  0.00  0.00    +0.000 NA
ATOM      9  C   UNL     1       0.491  10.075  21.927  0.00  0.00    +0.000 A 
ATOM     10  N   UNL     1       0.283  10.877  20.850  0.00  0.00    +0.000 N 
ATOM     11  C   UNL     1      -0.851  11.602  21.110  0.00  0.00    +0.000 A 
ATOM     12  C   UNL     1       1.084  11.019  19.640  0.00  0.00    +0.000 C 
ATOM     13  C   UNL     1       0.234  10.568  18.408  0.00  0.00    +0.000 C 
ENDROOT
BRANCH  12  14
ATOM     14  C   UNL     1       1.795  12.389  19.571  0.00  0.00    +0.000 A 
ATOM     15  C   UNL     1       2.175  13.075  20.745  0.00  0.00    +0.000 A 
ATOM     16  C   UNL     1       2.894  14.278  20.699  0.00  0.00    +0.000 A 
ATOM     17  C   UNL     1       3.270  14.819  19.478  0.00  0.00    +0.000 A 
ATOM     18  C   UNL     1       2.918  14.163  18.305  0.00  0.00    +0.000 A 
ATOM     19  C   UNL     1       2.198  12.960  18.351  0.00  0.00    +0.000 A 
ENDBRANCH  12  14
BRANCH   9  20
ATOM     20  O   UNL     1       1.345   9.074  21.963  0.00  0.00    +0.000 OA
ATOM     21  H   UNL     1       2.149   9.519  22.288  0.00  0.00    +0.000 HD
ENDBRANCH   9  20
BRANCH   1  22
ATOM     22  C   UNL     1      -2.140   9.965  18.502  0.00  0.00    +0.000 C 
BRANCH  22  24
ATOM     23  C   UNL     1      -2.761  10.006  16.020  0.00  0.00    +0.000 C 
ATOM     24  C   UNL     1      -3.192   9.639  17.433  0.00  0.00    +0.000 C 
ENDBRANCH  22  24
ENDBRANCH   1  22
TORSDOF 4
ENDMDL
MODEL 4
REMARK VINA RESULT:      -5.7      2.175      5.196
REMARK  Name = 
REMARK  5 active torsions:
REMARK  status: ('A' for Active; 'I' for Inactive)
REMARK    1  A    between atoms: C_1  and  C_2
REMARK    2  A    between atoms: C_2  and  C_3
REMARK    3  A    between atoms: C_3  and  N_4
REMARK    4  A    between atoms: C_12  and  O_13
REMARK    5  A    between atoms: C_16  and  C_17
REMARK                            x       y       z     vdW  Elec       q    Type
REMARK                         _______ _______ _______ _____ _____    ______ ____
ROOT
ATOM      1  N   UNL     1       0.409  11.820  18.575  0.00  0.00    +0.000 NA
ATOM      2  C   UNL     1      -0.170  10.504  18.931  0.00  0.00    +0.000 C 
ATOM      3  C   UNL     1      -0.410  10.286  20.406  0.00  0.00    +0.000 A 
ATOM      4  C   UNL     1      -0.184   9.057  21.046  0.00  0.00    +0.000 A 
ATOM      5  C   UNL     1      -0.273   8.926  22.439  0.00  0.00    +0.000 A 
ATOM      6  C   UNL     1      -0.560  10.031  23.257  0.00  0.00    +0.000 A 
ATOM      7  C   UNL     1      -0.842  11.254  22.637  0.00  0.00    +0.000 A 
ATOM      8  N   UNL     1      -1.105  12.501  23.170  0.00  0.00    +0.000 NA
ATOM      9  C   UNL     1      -1.315  13.264  22.127  0.00  0.00    +0.000 A 
ATOM     10  N   UNL     1      -1.317  12.563  20.963  0.00  0.00    +0.000 N 
ATOM     11  C   UNL     1      -0.840  11.311  21.253  0.00  0.00    +0.000 A 
ATOM     12  C   UNL     1      -1.761  12.982  19.638  0.00  0.00    +0.000 C 
ATOM     13  C   UNL     1      -0.538  12.969  18.663  0.00  0.00    +0.000 C 
ENDROOT
BRANCH  12  14
ATOM     14  C   UNL     1      -3.050  12.253  19.199  0.00  0.00    +0.000 A 
ATOM     15  C   UNL     1      -4.266  12.441  19.891  0.00  0.00    +0.000 A 
ATOM     16  C   UNL     1      -5.462  11.852  19.455  0.00  0.00    +0.000 A 
ATOM     17  C   UNL     1      -5.480  11.076  18.305  0.00  0.00    +0.000 A 
ATOM     18  C   UNL     1      -4.300  10.880  17.598  0.00  0.00    +0.000 A 
ATOM     19  C   UNL     1      -3.103  11.468  18.034  0.00  0.00    +0.000 A 
ENDBRANCH  12  14
BRANCH   9  20
ATOM     20  O   UNL     1      -1.488  14.566  22.220  0.00  0.00    +0.000 OA
ATOM     21  H   UNL     1      -0.581  14.867  22.414  0.00  0.00    +0.000 HD
ENDBRANCH   9  20
BRANCH   1  22
ATOM     22  C   UNL     1       1.692  12.133  19.240  0.00  0.00    +0.000 C 
BRANCH  22  24
ATOM     23  C   UNL     1       2.183  13.905  21.019  0.00  0.00    +0.000 C 
ATOM     24  C   UNL     1       1.980  13.610  19.540  0.00  0.00    +0.000 C 
ENDBRANCH  22  24
ENDBRANCH   1  22
TORSDOF 4
ENDMDL
MODEL 5
REMARK VINA RESULT:      -5.7      7.540     10.362
REMARK  Name = 
REMARK  5 active torsions:
REMARK  status: ('A' for Active; 'I' for Inactive)
REMARK    1  A    between atoms: C_1  and  C_2
REMARK    2  A    between atoms: C_2  and  C_3
REMARK    3  A    between atoms: C_3  and  N_4
REMARK    4  A    between atoms: C_12  and  O_13
REMARK    5  A    between atoms: C_16  and  C_17
REMARK                            x       y       z     vdW  Elec       q    Type
REMARK                         _______ _______ _______ _____ _____    ______ ____
ROOT
ATOM      1  N   UNL     1       9.160  12.446  19.066  0.00  0.00    +0.000 NA
ATOM      2  C   UNL     1       8.833  13.268  20.254  0.00  0.00    +0.000 C 
ATOM      3  C   UNL     1       9.643  14.535  20.399  0.00  0.00    +0.000 A 
ATOM      4  C   UNL     1      10.102  15.015  21.636  0.00  0.00    +0.000 A 
ATOM      5  C   UNL     1      10.974  16.109  21.723  0.00  0.00    +0.000 A 
ATOM      6  C   UNL     1      11.452  16.751  20.570  0.00  0.00    +0.000 A 
ATOM      7  C   UNL     1      10.966  16.326  19.328  0.00  0.00    +0.000 A 
ATOM      8  N   UNL     1      11.284  16.725  18.044  0.00  0.00    +0.000 NA
ATOM      9  C   UNL     1      10.508  16.002  17.277  0.00  0.00    +0.000 A 
ATOM     10  N   UNL     1       9.630  15.247  17.988  0.00  0.00    +0.000 N 
ATOM     11  C   UNL     1      10.029  15.306  19.298  0.00  0.00    +0.000 A 
ATOM     12  C   UNL     1       8.454  14.521  17.523  0.00  0.00    +0.000 C 
ATOM     13  C   UNL     1       8.668  12.991  17.768  0.00  0.00    +0.000 C 
ENDROOT
BRANCH  12  14
ATOM     14  C   UNL     1       7.140  15.161  18.023  0.00  0.00    +0.000 A 
ATOM     15  C   UNL     1       7.127  16.455  18.588  0.00  0.00    +0.000 A 
ATOM     16  C   UNL     1       5.932  17.082  18.970  0.00  0.00    +0.000 A 
ATOM     17  C   UNL     1       4.716  16.442  18.781  0.00  0.00    +0.000 A 
ATOM     18  C   UNL     1       4.696  15.171  18.219  0.00  0.00    +0.000 A 
ATOM     19  C   UNL     1       5.891  14.543  17.838  0.00  0.00    +0.000 A 
ENDBRANCH  12  14
BRANCH   9  20
ATOM     20  O   UNL     1      10.596  16.013  15.963  0.00  0.00    +0.000 OA
ATOM     21  H   UNL     1      11.540  15.810  15.832  0.00  0.00    +0.000 HD
ENDBRANCH   9  20
BRANCH   1  22
ATOM     22  C   UNL     1      10.575  12.029  18.970  0.00  0.00    +0.000 C 
BRANCH  22  24
ATOM     23  C   UNL     1      12.333  13.004  17.387  0.00  0.00    +0.000 C 
ATOM     24  C   UNL     1      11.201  12.004  17.569  0.00  0.00    +0.000 C 
ENDBRANCH  22  24
ENDBRANCH   1  22
TORSDOF 4
ENDMDL
MODEL 6
REMARK VINA RESULT:      -5.7      2.028      5.156
REMARK  Name = 
REMARK  5 active torsions:
REMARK  status: ('A' for Active; 'I' for Inactive)
REMARK    1  A    between atoms: C_1  and  C_2
REMARK    2  A    between atoms: C_2  and  C_3
REMARK    3  A    between atoms: C_3  and  N_4
REMARK    4  A    between atoms: C_12  and  O_13
REMARK    5  A    between atoms: C_16  and  C_17
REMARK                            x       y       z     vdW  Elec       q    Type
REMARK                         _______ _______ _______ _____ _____    ______ ____
ROOT
ATOM      1  N   UNL     1       1.239  12.503  19.126  0.00  0.00    +0.000 NA
ATOM      2  C   UNL     1       1.072  11.039  19.278  0.00  0.00    +0.000 C 
ATOM      3  C   UNL     1       0.461  10.596  20.587  0.00  0.00    +0.000 A 
ATOM      4  C   UNL     1       0.882   9.449  21.279  0.00  0.00    +0.000 A 
ATOM      5  C   UNL     1       0.399   9.146  22.560  0.00  0.00    +0.000 A 
ATOM      6  C   UNL     1      -0.502   9.998  23.219  0.00  0.00    +0.000 A 
ATOM      7  C   UNL     1      -0.976  11.118  22.526  0.00  0.00    +0.000 A 
ATOM      8  N   UNL     1      -1.813  12.142  22.924  0.00  0.00    +0.000 NA
ATOM      9  C   UNL     1      -1.927  12.901  21.863  0.00  0.00    +0.000 A 
ATOM     10  N   UNL     1      -1.310  12.369  20.776  0.00  0.00    +0.000 N 
ATOM     11  C   UNL     1      -0.547  11.322  21.225  0.00  0.00    +0.000 A 
ATOM     12  C   UNL     1      -1.418  12.759  19.374  0.00  0.00    +0.000 C 
ATOM     13  C   UNL     1      -0.023  13.257  18.873  0.00  0.00    +0.000 C 
ENDROOT
BRANCH  12  14
ATOM     14  C   UNL     1      -2.158  11.697  18.531  0.00  0.00    +0.000 A 
ATOM     15  C   UNL     1      -3.562  11.567  18.589  0.00  0.00    +0.000 A 
ATOM     16  C   UNL     1      -4.255  10.665  17.769  0.00  0.00    +0.000 A 
ATOM     17  C   UNL     1      -3.566   9.882  16.854  0.00  0.00    +0.000 A 
ATOM     18  C   UNL     1      -2.183   9.994  16.768  0.00  0.00    +0.000 A 
ATOM     19  C   UNL     1      -1.490  10.895  17.589  0.00  0.00    +0.000 A 
ENDBRANCH  12  14
BRANCH   9  20
ATOM     20  O   UNL     1      -2.562  14.054  21.877  0.00  0.00    +0.000 OA
ATOM     21  H   UNL     1      -3.480  13.766  22.038  0.00  0.00    +0.000 HD
ENDBRANCH   9  20
BRANCH   1  22
ATOM     22  C   UNL     1       2.045  13.149  20.184  0.00  0.00    +0.000 C 
BRANCH  22  24
ATOM     23  C   UNL     1       3.545  14.168  18.378  0.00  0.00    +0.000 C 
ATOM     24  C   UNL     1       2.932  14.328  19.762  0.00  0.00    +0.000 C 
ENDBRANCH  22  24
ENDBRANCH   1  22
TORSDOF 4
ENDMDL
MODEL 7
REMARK VINA RESULT:      -5.7      1.858      2.747
REMARK  Name = 
REMARK  5 active torsions:
REMARK  status: ('A' for Active; 'I' for Inactive)
REMARK    1  A    between atoms: C_1  and  C_2
REMARK    2  A    between atoms: C_2  and  C_3
REMARK    3  A    between atoms: C_3  and  N_4
REMARK    4  A    between atoms: C_12  and  O_13
REMARK    5  A    between atoms: C_16  and  C_17
REMARK                            x       y       z     vdW  Elec       q    Type
REMARK                         _______ _______ _______ _____ _____    ______ ____
ROOT
ATOM      1  N   UNL     1      -1.057  11.089  18.219  0.00  0.00    +0.000 NA
ATOM      2  C   UNL     1      -1.480  12.425  18.703  0.00  0.00    +0.000 C 
ATOM      3  C   UNL     1      -1.732  12.518  20.189  0.00  0.00    +0.000 A 
ATOM      4  C   UNL     1      -2.781  13.270  20.743  0.00  0.00    +0.000 A 
ATOM      5  C   UNL     1      -3.079  13.218  22.112  0.00  0.00    +0.000 A 
ATOM      6  C   UNL     1      -2.361  12.383  22.982  0.00  0.00    +0.000 A 
ATOM      7  C   UNL     1      -1.277  11.666  22.462  0.00  0.00    +0.000 A 
ATOM      8  N   UNL     1      -0.432  10.745  23.052  0.00  0.00    +0.000 NA
ATOM      9  C   UNL     1       0.406  10.416  22.102  0.00  0.00    +0.000 A 
ATOM     10  N   UNL     1       0.226  11.150  20.973  0.00  0.00    +0.000 N 
ATOM     11  C   UNL     1      -0.957  11.826  21.124  0.00  0.00    +0.000 A 
ATOM     12  C   UNL     1       1.094  11.274  19.807  0.00  0.00    +0.000 C 
ATOM     13  C   UNL     1       0.347  10.714  18.552  0.00  0.00    +0.000 C 
ENDROOT
BRANCH  12  14
ATOM     14  C   UNL     1       1.738  12.675  19.707  0.00  0.00    +0.000 A 
ATOM     15  C   UNL     1       2.107  13.221  18.459  0.00  0.00    +0.000 A 
ATOM     16  C   UNL     1       2.616  14.523  18.344  0.00  0.00    +0.000 A 
ATOM     17  C   UNL     1       2.750  15.322  19.471  0.00  0.00    +0.000 A 
ATOM     18  C   UNL     1       2.387  14.814  20.712  0.00  0.00    +0.000 A 
ATOM     19  C   UNL     1       1.880  13.512  20.827  0.00  0.00    +0.000 A 
ENDBRANCH  12  14
BRANCH   9  20
ATOM     20  O   UNL     1       1.306   9.466  22.243  0.00  0.00    +0.000 OA
ATOM     21  H   UNL     1       0.835   8.698  21.871  0.00  0.00    +0.000 HD
ENDBRANCH   9  20
BRANCH   1  22
ATOM     22  C   UNL     1      -1.994   9.990  18.536  0.00  0.00    +0.000 C 
BRANCH  22  24
ATOM     23  C   UNL     1      -2.675  10.043  16.070  0.00  0.00    +0.000 C 
ATOM     24  C   UNL     1      -3.071   9.670  17.491  0.00  0.00    +0.000 C 
ENDBRANCH  22  24
ENDBRANCH   1  22
TORSDOF 4
ENDMDL
MODEL 8
REMARK VINA RESULT:      -5.7      1.954      5.210
REMARK  Name = 
REMARK  5 active torsions:
REMARK  status: ('A' for Active; 'I' for Inactive)
REMARK    1  A    between atoms: C_1  and  C_2
REMARK    2  A    between atoms: C_2  and  C_3
REMARK    3  A    between atoms: C_3  and  N_4
REMARK    4  A    between atoms: C_12  and  O_13
REMARK    5  A    between atoms: C_16  and  C_17
REMARK                            x       y       z     vdW  Elec       q    Type
REMARK                         _______ _______ _______ _____ _____    ______ ____
ROOT
ATOM      1  N   UNL     1       1.273  12.409  19.070  0.00  0.00    +0.000 NA
ATOM      2  C   UNL     1       0.985  10.973  19.293  0.00  0.00    +0.000 C 
ATOM      3  C   UNL     1       0.283  10.655  20.593  0.00  0.00    +0.000 A 
ATOM      4  C   UNL     1       0.580   9.522  21.367  0.00  0.00    +0.000 A 
ATOM      5  C   UNL     1       0.018   9.333  22.637  0.00  0.00    +0.000 A 
ATOM      6  C   UNL     1      -0.841  10.288  23.203  0.00  0.00    +0.000 A 
ATOM      7  C   UNL     1      -1.194  11.398  22.428  0.00  0.00    +0.000 A 
ATOM      8  N   UNL     1      -1.965  12.505  22.727  0.00  0.00    +0.000 NA
ATOM      9  C   UNL     1      -1.971  13.207  21.622  0.00  0.00    +0.000 A 
ATOM     10  N   UNL     1      -1.350  12.567  20.597  0.00  0.00    +0.000 N 
ATOM     11  C   UNL     1      -0.693  11.493  21.140  0.00  0.00    +0.000 A 
ATOM     12  C   UNL     1      -1.364  12.881  19.172  0.00  0.00    +0.000 C 
ATOM     13  C   UNL     1       0.088  13.241  18.714  0.00  0.00    +0.000 C 
ENDROOT
BRANCH  12  14
ATOM     14  C   UNL     1      -2.147  11.831  18.353  0.00  0.00    +0.000 A 
ATOM     15  C   UNL     1      -1.490  10.987  17.431  0.00  0.00    +0.000 A 
ATOM     16  C   UNL     1      -2.172   9.974  16.742  0.00  0.00    +0.000 A 
ATOM     17  C   UNL     1      -3.525   9.763  16.969  0.00  0.00    +0.000 A 
ATOM     18  C   UNL     1      -4.196  10.573  17.878  0.00  0.00    +0.000 A 
ATOM     19  C   UNL     1      -3.514  11.587  18.566  0.00  0.00    +0.000 A 
ENDBRANCH  12  14
BRANCH   9  20
ATOM     20  O   UNL     1      -2.513  14.404  21.540  0.00  0.00    +0.000 OA
ATOM     21  H   UNL     1      -2.552  14.662  22.480  0.00  0.00    +0.000 HD
ENDBRANCH   9  20
BRANCH   1  22
ATOM     22  C   UNL     1       2.080  13.052  20.129  0.00  0.00    +0.000 C 
BRANCH  22  24
ATOM     23  C   UNL     1       1.327  14.801  21.839  0.00  0.00    +0.000 C 
ATOM     24  C   UNL     1       1.798  14.533  20.417  0.00  0.00    +0.000 C 
ENDBRANCH  22  24
ENDBRANCH   1  22
TORSDOF 4
ENDMDL
MODEL 9
REMARK VINA RESULT:      -5.5      7.639     10.480
REMARK  Name = 
REMARK  5 active torsions:
REMARK  status: ('A' for Active; 'I' for Inactive)
REMARK    1  A    between atoms: C_1  and  C_2
REMARK    2  A    between atoms: C_2  and  C_3
REMARK    3  A    between atoms: C_3  and  N_4
REMARK    4  A    between atoms: C_12  and  O_13
REMARK    5  A    between atoms: C_16  and  C_17
REMARK                            x       y       z     vdW  Elec       q    Type
REMARK                         _______ _______ _______ _____ _____    ______ ____
ROOT
ATOM      1  N   UNL     1       9.199  12.519  19.242  0.00  0.00    +0.000 NA
ATOM      2  C   UNL     1       8.888  13.406  20.388  0.00  0.00    +0.000 C 
ATOM      3  C   UNL     1       9.755  14.638  20.498  0.00  0.00    +0.000 A 
ATOM      4  C   UNL     1      10.212  15.147  21.724  0.00  0.00    +0.000 A 
ATOM      5  C   UNL     1      11.134  16.201  21.785  0.00  0.00    +0.000 A 
ATOM      6  C   UNL     1      11.666  16.771  20.617  0.00  0.00    +0.000 A 
ATOM      7  C   UNL     1      11.186  16.316  19.384  0.00  0.00    +0.000 A 
ATOM      8  N   UNL     1      11.549  16.645  18.092  0.00  0.00    +0.000 NA
ATOM      9  C   UNL     1      10.755  15.928  17.338  0.00  0.00    +0.000 A 
ATOM     10  N   UNL     1       9.827  15.246  18.060  0.00  0.00    +0.000 N 
ATOM     11  C   UNL     1      10.201  15.341  19.375  0.00  0.00    +0.000 A 
ATOM     12  C   UNL     1       8.627  14.558  17.599  0.00  0.00    +0.000 C 
ATOM     13  C   UNL     1       8.762  13.031  17.912  0.00  0.00    +0.000 C 
ENDROOT
BRANCH  12  14
ATOM     14  C   UNL     1       7.335  15.280  18.042  0.00  0.00    +0.000 A 
ATOM     15  C   UNL     1       6.076  14.648  17.950  0.00  0.00    +0.000 A 
ATOM     16  C   UNL     1       4.907  15.259  18.425  0.00  0.00    +0.000 A 
ATOM     17  C   UNL     1       4.966  16.510  19.023  0.00  0.00    +0.000 A 
ATOM     18  C   UNL     1       6.192  17.153  19.135  0.00  0.00    +0.000 A 
ATOM     19  C   UNL     1       7.362  16.543  18.659  0.00  0.00    +0.000 A 
ENDBRANCH  12  14
BRANCH   9  20
ATOM     20  O   UNL     1      10.870  15.878  16.027  0.00  0.00    +0.000 OA
ATOM     21  H   UNL     1       9.937  15.812  15.754  0.00  0.00    +0.000 HD
ENDBRANCH   9  20
BRANCH   1  22
ATOM     22  C   UNL     1      10.595  12.032  19.196  0.00  0.00    +0.000 C 
BRANCH  22  24
ATOM     23  C   UNL     1      12.332  12.829  17.494  0.00  0.00    +0.000 C 
ATOM     24  C   UNL     1      11.219  11.839  17.808  0.00  0.00    +0.000 C 
ENDBRANCH  22  24
ENDBRANCH   1  22
TORSDOF 4
ENDMDL
