MODEL 1
REMARK VINA RESULT:      -8.0      0.000      0.000
REMARK  Name = 
REMARK  7 active torsions:
REMARK  status: ('A' for Active; 'I' for Inactive)
REMARK    1  A    between atoms: C_1  and  C_2
REMARK    2  A    between atoms: C_2  and  O_3
REMARK    3  A    between atoms: O_3  and  C_4
REMARK    4  A    between atoms: C_4  and  C_6
REMARK    5  A    between atoms: C_8  and  O_9
REMARK    6  A    between atoms: C_14  and  O_15
REMARK    7  A    between atoms: C_16  and  O_17
REMARK                            x       y       z     vdW  Elec       q    Type
REMARK                         _______ _______ _______ _____ _____    ______ ____
ROOT
ATOM      1  C   UNL     1       5.424   4.968  15.907  0.00  0.00    +0.000 A 
ATOM      2  C   UNL     1       5.258   6.327  16.398  0.00  0.00    +0.000 A 
ATOM      3  C   UNL     1       5.078   6.551  17.714  0.00  0.00    +0.000 A 
ATOM      4  C   UNL     1       3.598   6.545  17.846  0.00  0.00    +0.000 A 
ATOM      5  O   UNL     1       2.880   7.522  17.706  0.00  0.00    +0.000 OA
ATOM      6  C   UNL     1       3.048   5.182  18.066  0.00  0.00    +0.000 A 
ATOM      7  C   UNL     1       2.197   5.063  19.176  0.00  0.00    +0.000 A 
ATOM      8  C   UNL     1       1.556   3.863  19.391  0.00  0.00    +0.000 A 
ATOM      9  C   UNL     1       1.661   2.844  18.452  0.00  0.00    +0.000 A 
ATOM     10  C   UNL     1       2.572   2.927  17.392  0.00  0.00    +0.000 A 
ATOM     11  C   UNL     1       3.368   4.078  17.224  0.00  0.00    +0.000 A 
ATOM     12  C   UNL     1       4.530   4.002  16.259  0.00  0.00    +0.000 A 
ENDROOT
BRANCH   1  13
ATOM     13  C   UNL     1       6.548   4.674  14.964  0.00  0.00    +0.000 C 
ATOM     14  O   UNL     1       7.588   5.316  14.901  0.00  0.00    +0.000 OA
BRANCH  13  15
ATOM     15  O   UNL     1       6.241   3.577  14.214  0.00  0.00    +0.000 OA
BRANCH  15  17
ATOM     16  C   UNL     1       5.105   3.348  12.053  0.00  0.00    +0.000 C 
ATOM     17  C   UNL     1       6.390   3.679  12.790  0.00  0.00    +0.000 C 
ENDBRANCH  15  17
ENDBRANCH  13  15
ENDBRANCH   1  13
BRANCH   3  18
ATOM     18  O   UNL     1       5.737   5.859  18.718  0.00  0.00    +0.000 OA
ATOM     19  H   UNL     1       6.621   6.246  18.844  0.00  0.00    +0.000 HD
ENDBRANCH   3  18
BRANCH   8  20
ATOM     20  O   UNL     1       0.819   3.639  20.516  0.00  0.00    +0.000 OA
ATOM     21  H   UNL     1       0.446   4.497  20.795  0.00  0.00    +0.000 HD
ENDBRANCH   8  20
BRANCH   9  22
ATOM     22  O   UNL     1       0.877   1.735  18.586  0.00  0.00    +0.000 OA
ATOM     23  H   UNL     1       1.352   1.031  18.096  0.00  0.00    +0.000 HD
ENDBRANCH   9  22
TORSDOF 6
ENDMDL
MODEL 2
REMARK VINA RESULT:      -7.5      1.345      6.021
REMARK  Name = 
REMARK  7 active torsions:
REMARK  status: ('A' for Active; 'I' for Inactive)
REMARK    1  A    between atoms: C_1  and  C_2
REMARK    2  A    between atoms: C_2  and  O_3
REMARK    3  A    between atoms: O_3  and  C_4
REMARK    4  A    between atoms: C_4  and  C_6
REMARK    5  A    between atoms: C_8  and  O_9
REMARK    6  A    between atoms: C_14  and  O_15
REMARK    7  A    between atoms: C_16  and  O_17
REMARK                            x       y       z     vdW  Elec       q    Type
REMARK                         _______ _______ _______ _____ _____    ______ ____
ROOT
ATOM      1  C   UNL     1       3.113   4.002  18.262  0.00  0.00    +0.000 A 
ATOM      2  C   UNL     1       3.961   4.693  19.219  0.00  0.00    +0.000 A 
ATOM      3  C   UNL     1       4.631   5.803  18.850  0.00  0.00    +0.000 A 
ATOM      4  C   UNL     1       5.938   5.259  18.399  0.00  0.00    +0.000 A 
ATOM      5  O   UNL     1       6.902   5.067  19.124  0.00  0.00    +0.000 OA
ATOM      6  C   UNL     1       5.931   4.861  16.967  0.00  0.00    +0.000 A 
ATOM      7  C   UNL     1       6.970   5.409  16.199  0.00  0.00    +0.000 A 
ATOM      8  C   UNL     1       7.105   5.006  14.889  0.00  0.00    +0.000 A 
ATOM      9  C   UNL     1       6.301   3.989  14.391  0.00  0.00    +0.000 A 
ATOM     10  C   UNL     1       5.212   3.501  15.123  0.00  0.00    +0.000 A 
ATOM     11  C   UNL     1       4.939   4.000  16.413  0.00  0.00    +0.000 A 
ATOM     12  C   UNL     1       3.603   3.665  17.036  0.00  0.00    +0.000 A 
ENDROOT
BRANCH   1  13
ATOM     13  C   UNL     1       1.728   3.615  18.673  0.00  0.00    +0.000 C 
ATOM     14  O   UNL     1       0.970   2.927  18.002  0.00  0.00    +0.000 OA
BRANCH  13  15
ATOM     15  O   UNL     1       1.458   4.125  19.909  0.00  0.00    +0.000 OA
BRANCH  15  17
ATOM     16  C   UNL     1       2.194   2.669  21.739  0.00  0.00    +0.000 C 
ATOM     17  C   UNL     1       1.030   3.210  20.930  0.00  0.00    +0.000 C 
ENDBRANCH  15  17
ENDBRANCH  13  15
ENDBRANCH   1  13
BRANCH   3  18
ATOM     18  O   UNL     1       4.112   6.784  18.020  0.00  0.00    +0.000 OA
ATOM     19  H   UNL     1       3.911   6.394  17.151  0.00  0.00    +0.000 HD
ENDBRANCH   3  18
BRANCH   8  20
ATOM     20  O   UNL     1       8.009   5.591  14.052  0.00  0.00    +0.000 OA
ATOM     21  H   UNL     1       7.506   6.003  13.324  0.00  0.00    +0.000 HD
ENDBRANCH   8  20
BRANCH   9  22
ATOM     22  O   UNL     1       6.569   3.476  13.154  0.00  0.00    +0.000 OA
ATOM     23  H   UNL     1       7.525   3.259  13.176  0.00  0.00    +0.000 HD
ENDBRANCH   9  22
TORSDOF 6
ENDMDL
MODEL 3
REMARK VINA RESULT:      -7.4      1.034      1.041
REMARK  Name = 
REMARK  7 active torsions:
REMARK  status: ('A' for Active; 'I' for Inactive)
REMARK    1  A    between atoms: C_1  and  C_2
REMARK    2  A    between atoms: C_2  and  O_3
REMARK    3  A    between atoms: O_3  and  C_4
REMARK    4  A    between atoms: C_4  and  C_6
REMARK    5  A    between atoms: C_8  and  O_9
REMARK    6  A    between atoms: C_14  and  O_15
REMARK    7  A    between atoms: C_16  and  O_17
REMARK                            x       y       z     vdW  Elec       q    Type
REMARK                         _______ _______ _______ _____ _____    ______ ____
ROOT
ATOM      1  C   UNL     1       5.627   4.722  16.357  0.00  0.00    +0.000 A 
ATOM      2  C   UNL     1       5.799   5.793  17.325  0.00  0.00    +0.000 A 
ATOM      3  C   UNL     1       5.807   5.515  18.644  0.00  0.00    +0.000 A 
ATOM      4  C   UNL     1       4.380   5.685  19.020  0.00  0.00    +0.000 A 
ATOM      5  O   UNL     1       3.870   6.739  19.370  0.00  0.00    +0.000 OA
ATOM      6  C   UNL     1       3.583   4.446  18.826  0.00  0.00    +0.000 A 
ATOM      7  C   UNL     1       2.845   4.039  19.948  0.00  0.00    +0.000 A 
ATOM      8  C   UNL     1       1.993   2.964  19.824  0.00  0.00    +0.000 A 
ATOM      9  C   UNL     1       1.787   2.385  18.578  0.00  0.00    +0.000 A 
ATOM     10  C   UNL     1       2.581   2.730  17.478  0.00  0.00    +0.000 A 
ATOM     11  C   UNL     1       3.578   3.719  17.600  0.00  0.00    +0.000 A 
ATOM     12  C   UNL     1       4.592   3.845  16.487  0.00  0.00    +0.000 A 
ENDROOT
BRANCH   1  13
ATOM     13  C   UNL     1       6.562   4.647  15.191  0.00  0.00    +0.000 C 
ATOM     14  O   UNL     1       7.529   5.379  15.027  0.00  0.00    +0.000 OA
BRANCH  13  15
ATOM     15  O   UNL     1       6.183   3.630  14.364  0.00  0.00    +0.000 OA
BRANCH  15  17
ATOM     16  C   UNL     1       5.307   3.208  12.113  0.00  0.00    +0.000 C 
ATOM     17  C   UNL     1       6.428   3.786  12.958  0.00  0.00    +0.000 C 
ENDBRANCH  15  17
ENDBRANCH  13  15
ENDBRANCH   1  13
BRANCH   3  18
ATOM     18  O   UNL     1       6.406   4.396  19.199  0.00  0.00    +0.000 OA
ATOM     19  H   UNL     1       7.274   4.258  18.780  0.00  0.00    +0.000 HD
ENDBRANCH   3  18
BRANCH   8  20
ATOM     20  O   UNL     1       1.345   2.438  20.902  0.00  0.00    +0.000 OA
ATOM     21  H   UNL     1       1.989   1.887  21.388  0.00  0.00    +0.000 HD
ENDBRANCH   8  20
BRANCH   9  22
ATOM     22  O   UNL     1       0.806   1.445  18.437  0.00  0.00    +0.000 OA
ATOM     23  H   UNL     1       0.266   1.759  17.682  0.00  0.00    +0.000 HD
ENDBRANCH   9  22
TORSDOF 6
ENDMDL
MODEL 4
REMARK VINA RESULT:      -7.2      1.766      1.966
REMARK  Name = 
REMARK  7 active torsions:
REMARK  status: ('A' for Active; 'I' for Inactive)
REMARK    1  A    between atoms: C_1  and  C_2
REMARK    2  A    between atoms: C_2  and  O_3
REMARK    3  A    between atoms: O_3  and  C_4
REMARK    4  A    between atoms: C_4  and  C_6
REMARK    5  A    between atoms: C_8  and  O_9
REMARK    6  A    between atoms: C_14  and  O_15
REMARK    7  A    between atoms: C_16  and  O_17
REMARK                            x       y       z     vdW  Elec       q    Type
REMARK                         _______ _______ _______ _____ _____    ______ ____
ROOT
ATOM      1  C   UNL     1       6.287   4.586  15.360  0.00  0.00    +0.000 A 
ATOM      2  C   UNL     1       6.871   5.555  16.273  0.00  0.00    +0.000 A 
ATOM      3  C   UNL     1       7.253   5.174  17.508  0.00  0.00    +0.000 A 
ATOM      4  C   UNL     1       6.041   5.449  18.322  0.00  0.00    +0.000 A 
ATOM      5  O   UNL     1       5.789   6.515  18.862  0.00  0.00    +0.000 OA
ATOM      6  C   UNL     1       5.087   4.310  18.333  0.00  0.00    +0.000 A 
ATOM      7  C   UNL     1       4.689   3.888  19.611  0.00  0.00    +0.000 A 
ATOM      8  C   UNL     1       3.723   2.912  19.712  0.00  0.00    +0.000 A 
ATOM      9  C   UNL     1       3.077   2.455  18.570  0.00  0.00    +0.000 A 
ATOM     10  C   UNL     1       3.527   2.810  17.292  0.00  0.00    +0.000 A 
ATOM     11  C   UNL     1       4.620   3.687  17.139  0.00  0.00    +0.000 A 
ATOM     12  C   UNL     1       5.249   3.804  15.769  0.00  0.00    +0.000 A 
ENDROOT
BRANCH   1  13
ATOM     13  C   UNL     1       6.801   4.515  13.957  0.00  0.00    +0.000 C 
ATOM     14  O   UNL     1       7.518   5.359  13.436  0.00  0.00    +0.000 OA
BRANCH  13  15
ATOM     15  O   UNL     1       6.368   3.363  13.368  0.00  0.00    +0.000 OA
BRANCH  15  17
ATOM     16  C   UNL     1       4.595   3.290  11.677  0.00  0.00    +0.000 C 
ATOM     17  C   UNL     1       6.082   3.399  11.962  0.00  0.00    +0.000 C 
ENDBRANCH  15  17
ENDBRANCH  13  15
ENDBRANCH   1  13
BRANCH   3  18
ATOM     18  O   UNL     1       7.862   3.962  17.794  0.00  0.00    +0.000 OA
ATOM     19  H   UNL     1       7.264   3.427  18.345  0.00  0.00    +0.000 HD
ENDBRANCH   3  18
BRANCH   8  20
ATOM     20  O   UNL     1       3.383   2.366  20.915  0.00  0.00    +0.000 OA
ATOM     21  H   UNL     1       3.071   3.093  21.486  0.00  0.00    +0.000 HD
ENDBRANCH   8  20
BRANCH   9  22
ATOM     22  O   UNL     1       1.999   1.628  18.703  0.00  0.00    +0.000 OA
ATOM     23  H   UNL     1       1.857   1.256  17.806  0.00  0.00    +0.000 HD
ENDBRANCH   9  22
TORSDOF 6
ENDMDL
MODEL 5
REMARK VINA RESULT:      -7.2      1.560      6.072
REMARK  Name = 
REMARK  7 active torsions:
REMARK  status: ('A' for Active; 'I' for Inactive)
REMARK    1  A    between atoms: C_1  and  C_2
REMARK    2  A    between atoms: C_2  and  O_3
REMARK    3  A    between atoms: O_3  and  C_4
REMARK    4  A    between atoms: C_4  and  C_6
REMARK    5  A    between atoms: C_8  and  O_9
REMARK    6  A    between atoms: C_14  and  O_15
REMARK    7  A    between atoms: C_16  and  O_17
REMARK                            x       y       z     vdW  Elec       q    Type
REMARK                         _______ _______ _______ _____ _____    ______ ____
ROOT
ATOM      1  C   UNL     1       3.691   3.725  18.035  0.00  0.00    +0.000 A 
ATOM      2  C   UNL     1       4.683   4.231  18.971  0.00  0.00    +0.000 A 
ATOM      3  C   UNL     1       5.372   5.352  18.683  0.00  0.00    +0.000 A 
ATOM      4  C   UNL     1       6.585   4.823  18.007  0.00  0.00    +0.000 A 
ATOM      5  O   UNL     1       7.611   4.484  18.577  0.00  0.00    +0.000 OA
ATOM      6  C   UNL     1       6.392   4.639  16.545  0.00  0.00    +0.000 A 
ATOM      7  C   UNL     1       7.370   5.247  15.742  0.00  0.00    +0.000 A 
ATOM      8  C   UNL     1       7.332   5.035  14.382  0.00  0.00    +0.000 A 
ATOM      9  C   UNL     1       6.416   4.137  13.846  0.00  0.00    +0.000 A 
ATOM     10  C   UNL     1       5.389   3.596  14.628  0.00  0.00    +0.000 A 
ATOM     11  C   UNL     1       5.294   3.912  15.999  0.00  0.00    +0.000 A 
ATOM     12  C   UNL     1       4.019   3.550  16.724  0.00  0.00    +0.000 A 
ENDROOT
BRANCH   1  13
ATOM     13  C   UNL     1       2.340   3.344  18.552  0.00  0.00    +0.000 C 
ATOM     14  O   UNL     1       1.402   2.991  17.850  0.00  0.00    +0.000 OA
BRANCH  13  15
ATOM     15  O   UNL     1       2.330   3.428  19.913  0.00  0.00    +0.000 OA
BRANCH  15  17
ATOM     16  C   UNL     1       1.726   5.689  20.645  0.00  0.00    +0.000 C 
ATOM     17  C   UNL     1       1.311   4.234  20.525  0.00  0.00    +0.000 C 
ENDBRANCH  15  17
ENDBRANCH  13  15
ENDBRANCH   1  13
BRANCH   3  18
ATOM     18  O   UNL     1       4.824   6.465  18.067  0.00  0.00    +0.000 OA
ATOM     19  H   UNL     1       4.311   6.181  17.291  0.00  0.00    +0.000 HD
ENDBRANCH   3  18
BRANCH   8  20
ATOM     20  O   UNL     1       8.170   5.695  13.532  0.00  0.00    +0.000 OA
ATOM     21  H   UNL     1       8.108   6.646  13.745  0.00  0.00    +0.000 HD
ENDBRANCH   8  20
BRANCH   9  22
ATOM     22  O   UNL     1       6.512   3.800  12.527  0.00  0.00    +0.000 OA
ATOM     23  H   UNL     1       6.029   2.950  12.450  0.00  0.00    +0.000 HD
ENDBRANCH   9  22
TORSDOF 6
ENDMDL
MODEL 6
REMARK VINA RESULT:      -7.2      0.959      1.134
REMARK  Name = 
REMARK  7 active torsions:
REMARK  status: ('A' for Active; 'I' for Inactive)
REMARK    1  A    between atoms: C_1  and  C_2
REMARK    2  A    between atoms: C_2  and  O_3
REMARK    3  A    between atoms: O_3  and  C_4
REMARK    4  A    between atoms: C_4  and  C_6
REMARK    5  A    between atoms: C_8  and  O_9
REMARK    6  A    between atoms: C_14  and  O_15
REMARK    7  A    between atoms: C_16  and  O_17
REMARK                            x       y       z     vdW  Elec       q    Type
REMARK                         _______ _______ _______ _____ _____    ______ ____
ROOT
ATOM      1  C   UNL     1       5.437   5.032  16.550  0.00  0.00    +0.000 A 
ATOM      2  C   UNL     1       5.165   6.335  17.136  0.00  0.00    +0.000 A 
ATOM      3  C   UNL     1       4.837   6.433  18.439  0.00  0.00    +0.000 A 
ATOM      4  C   UNL     1       3.353   6.371  18.405  0.00  0.00    +0.000 A 
ATOM      5  O   UNL     1       2.615   7.335  18.272  0.00  0.00    +0.000 OA
ATOM      6  C   UNL     1       2.836   4.978  18.444  0.00  0.00    +0.000 A 
ATOM      7  C   UNL     1       1.876   4.734  19.438  0.00  0.00    +0.000 A 
ATOM      8  C   UNL     1       1.264   3.501  19.475  0.00  0.00    +0.000 A 
ATOM      9  C   UNL     1       1.510   2.575  18.468  0.00  0.00    +0.000 A 
ATOM     10  C   UNL     1       2.525   2.780  17.527  0.00  0.00    +0.000 A 
ATOM     11  C   UNL     1       3.289   3.965  17.549  0.00  0.00    +0.000 A 
ATOM     12  C   UNL     1       4.549   4.012  16.715  0.00  0.00    +0.000 A 
ENDROOT
BRANCH   1  13
ATOM     13  C   UNL     1       6.667   4.859  15.715  0.00  0.00    +0.000 C 
ATOM     14  O   UNL     1       7.718   4.379  16.118  0.00  0.00    +0.000 OA
BRANCH  13  15
ATOM     15  O   UNL     1       6.423   5.294  14.446  0.00  0.00    +0.000 OA
BRANCH  15  17
ATOM     16  C   UNL     1       8.038   5.450  12.608  0.00  0.00    +0.000 C 
ATOM     17  C   UNL     1       7.048   4.584  13.366  0.00  0.00    +0.000 C 
ENDBRANCH  15  17
ENDBRANCH  13  15
ENDBRANCH   1  13
BRANCH   3  18
ATOM     18  O   UNL     1       5.411   5.673  19.445  0.00  0.00    +0.000 OA
ATOM     19  H   UNL     1       5.016   4.784  19.438  0.00  0.00    +0.000 HD
ENDBRANCH   3  18
BRANCH   8  20
ATOM     20  O   UNL     1       0.419   3.153  20.487  0.00  0.00    +0.000 OA
ATOM     21  H   UNL     1       0.905   2.542  21.074  0.00  0.00    +0.000 HD
ENDBRANCH   8  20
BRANCH   9  22
ATOM     22  O   UNL     1       0.760   1.435  18.417  0.00  0.00    +0.000 OA
ATOM     23  H   UNL     1       0.353   1.443  17.525  0.00  0.00    +0.000 HD
ENDBRANCH   9  22
TORSDOF 6
ENDMDL
MODEL 7
REMARK VINA RESULT:      -7.1      1.296      2.216
REMARK  Name = 
REMARK  7 active torsions:
REMARK  status: ('A' for Active; 'I' for Inactive)
REMARK    1  A    between atoms: C_1  and  C_2
REMARK    2  A    between atoms: C_2  and  O_3
REMARK    3  A    between atoms: O_3  and  C_4
REMARK    4  A    between atoms: C_4  and  C_6
REMARK    5  A    between atoms: C_8  and  O_9
REMARK    6  A    between atoms: C_14  and  O_15
REMARK    7  A    between atoms: C_16  and  O_17
REMARK                            x       y       z     vdW  Elec       q    Type
REMARK                         _______ _______ _______ _____ _____    ______ ____
ROOT
ATOM      1  C   UNL     1       5.194   5.027  16.381  0.00  0.00    +0.000 A 
ATOM      2  C   UNL     1       4.828   6.363  16.824  0.00  0.00    +0.000 A 
ATOM      3  C   UNL     1       4.489   6.578  18.110  0.00  0.00    +0.000 A 
ATOM      4  C   UNL     1       3.014   6.406  18.091  0.00  0.00    +0.000 A 
ATOM      5  O   UNL     1       2.210   7.296  17.858  0.00  0.00    +0.000 OA
ATOM      6  C   UNL     1       2.598   4.992  18.282  0.00  0.00    +0.000 A 
ATOM      7  C   UNL     1       1.655   4.789  19.301  0.00  0.00    +0.000 A 
ATOM      8  C   UNL     1       1.132   3.527  19.474  0.00  0.00    +0.000 A 
ATOM      9  C   UNL     1       1.446   2.518  18.572  0.00  0.00    +0.000 A 
ATOM     10  C   UNL     1       2.447   2.692  17.609  0.00  0.00    +0.000 A 
ATOM     11  C   UNL     1       3.125   3.923  17.499  0.00  0.00    +0.000 A 
ATOM     12  C   UNL     1       4.381   3.970  16.660  0.00  0.00    +0.000 A 
ENDROOT
BRANCH   1  13
ATOM     13  C   UNL     1       6.435   4.853  15.564  0.00  0.00    +0.000 C 
ATOM     14  O   UNL     1       6.455   4.464  14.404  0.00  0.00    +0.000 OA
BRANCH  13  15
ATOM     15  O   UNL     1       7.524   5.214  16.302  0.00  0.00    +0.000 OA
BRANCH  15  17
ATOM     16  C   UNL     1       8.035   5.439  18.689  0.00  0.00    +0.000 C 
ATOM     17  C   UNL     1       7.768   4.502  17.525  0.00  0.00    +0.000 C 
ENDBRANCH  15  17
ENDBRANCH  13  15
ENDBRANCH   1  13
BRANCH   3  18
ATOM     18  O   UNL     1       5.113   5.973  19.190  0.00  0.00    +0.000 OA
ATOM     19  H   UNL     1       4.875   5.030  19.209  0.00  0.00    +0.000 HD
ENDBRANCH   3  18
BRANCH   8  20
ATOM     20  O   UNL     1       0.311   3.231  20.522  0.00  0.00    +0.000 OA
ATOM     21  H   UNL     1       0.056   4.077  20.939  0.00  0.00    +0.000 HD
ENDBRANCH   8  20
BRANCH   9  22
ATOM     22  O   UNL     1       0.780   1.329  18.648  0.00  0.00    +0.000 OA
ATOM     23  H   UNL     1       0.143   1.351  17.903  0.00  0.00    +0.000 HD
ENDBRANCH   9  22
TORSDOF 6
ENDMDL
MODEL 8
REMARK VINA RESULT:      -7.1      2.191      3.097
REMARK  Name = 
REMARK  7 active torsions:
REMARK  status: ('A' for Active; 'I' for Inactive)
REMARK    1  A    between atoms: C_1  and  C_2
REMARK    2  A    between atoms: C_2  and  O_3
REMARK    3  A    between atoms: O_3  and  C_4
REMARK    4  A    between atoms: C_4  and  C_6
REMARK    5  A    between atoms: C_8  and  O_9
REMARK    6  A    between atoms: C_14  and  O_15
REMARK    7  A    between atoms: C_16  and  O_17
REMARK                            x       y       z     vdW  Elec       q    Type
REMARK                         _______ _______ _______ _____ _____    ______ ____
ROOT
ATOM      1  C   UNL     1       6.208   5.149  15.745  0.00  0.00    +0.000 A 
ATOM      2  C   UNL     1       6.818   4.485  16.886  0.00  0.00    +0.000 A 
ATOM      3  C   UNL     1       6.044   3.881  17.808  0.00  0.00    +0.000 A 
ATOM      4  C   UNL     1       5.833   4.957  18.811  0.00  0.00    +0.000 A 
ATOM      5  O   UNL     1       6.571   5.184  19.757  0.00  0.00    +0.000 OA
ATOM      6  C   UNL     1       4.668   5.821  18.489  0.00  0.00    +0.000 A 
ATOM      7  C   UNL     1       3.743   5.975  19.533  0.00  0.00    +0.000 A 
ATOM      8  C   UNL     1       2.691   6.847  19.359  0.00  0.00    +0.000 A 
ATOM      9  C   UNL     1       2.631   7.642  18.221  0.00  0.00    +0.000 A 
ATOM     10  C   UNL     1       3.500   7.432  17.144  0.00  0.00    +0.000 A 
ATOM     11  C   UNL     1       4.497   6.438  17.215  0.00  0.00    +0.000 A 
ATOM     12  C   UNL     1       5.207   6.052  15.937  0.00  0.00    +0.000 A 
ENDROOT
BRANCH   1  13
ATOM     13  C   UNL     1       6.744   4.869  14.376  0.00  0.00    +0.000 C 
ATOM     14  O   UNL     1       7.561   5.569  13.794  0.00  0.00    +0.000 OA
BRANCH  13  15
ATOM     15  O   UNL     1       6.202   3.712  13.899  0.00  0.00    +0.000 OA
BRANCH  15  17
ATOM     16  C   UNL     1       4.881   3.332  11.868  0.00  0.00    +0.000 C 
ATOM     17  C   UNL     1       6.261   3.481  12.483  0.00  0.00    +0.000 C 
ENDBRANCH  15  17
ENDBRANCH  13  15
ENDBRANCH   1  13
BRANCH   3  18
ATOM     18  O   UNL     1       4.901   3.157  17.510  0.00  0.00    +0.000 OA
ATOM     19  H   UNL     1       4.119   3.667  17.785  0.00  0.00    +0.000 HD
ENDBRANCH   3  18
BRANCH   8  20
ATOM     20  O   UNL     1       1.689   6.948  20.278  0.00  0.00    +0.000 OA
ATOM     21  H   UNL     1       1.389   6.041  20.482  0.00  0.00    +0.000 HD
ENDBRANCH   8  20
BRANCH   9  22
ATOM     22  O   UNL     1       1.689   8.627  18.149  0.00  0.00    +0.000 OA
ATOM     23  H   UNL     1       0.833   8.165  18.270  0.00  0.00    +0.000 HD
ENDBRANCH   9  22
TORSDOF 6
ENDMDL
MODEL 9
REMARK VINA RESULT:      -6.6      1.736      5.839
REMARK  Name = 
REMARK  7 active torsions:
REMARK  status: ('A' for Active; 'I' for Inactive)
REMARK    1  A    between atoms: C_1  and  C_2
REMARK    2  A    between atoms: C_2  and  O_3
REMARK    3  A    between atoms: O_3  and  C_4
REMARK    4  A    between atoms: C_4  and  C_6
REMARK    5  A    between atoms: C_8  and  O_9
REMARK    6  A    between atoms: C_14  and  O_15
REMARK    7  A    between atoms: C_16  and  O_17
REMARK                            x       y       z     vdW  Elec       q    Type
REMARK                         _______ _______ _______ _____ _____    ______ ____
ROOT
ATOM      1  C   UNL     1       4.467   4.979  18.504  0.00  0.00    +0.000 A 
ATOM      2  C   UNL     1       5.823   5.094  19.017  0.00  0.00    +0.000 A 
ATOM      3  C   UNL     1       6.733   5.834  18.355  0.00  0.00    +0.000 A 
ATOM      4  C   UNL     1       7.378   4.836  17.464  0.00  0.00    +0.000 A 
ATOM      5  O   UNL     1       8.339   4.146  17.766  0.00  0.00    +0.000 OA
ATOM      6  C   UNL     1       6.662   4.674  16.171  0.00  0.00    +0.000 A 
ATOM      7  C   UNL     1       7.469   4.805  15.031  0.00  0.00    +0.000 A 
ATOM      8  C   UNL     1       6.911   4.561  13.796  0.00  0.00    +0.000 A 
ATOM      9  C   UNL     1       5.612   4.076  13.707  0.00  0.00    +0.000 A 
ATOM     10  C   UNL     1       4.779   4.025  14.830  0.00  0.00    +0.000 A 
ATOM     11  C   UNL     1       5.262   4.417  16.095  0.00  0.00    +0.000 A 
ATOM     12  C   UNL     1       4.257   4.626  17.205  0.00  0.00    +0.000 A 
ENDROOT
BRANCH   1  13
ATOM     13  C   UNL     1       3.320   5.190  19.442  0.00  0.00    +0.000 C 
ATOM     14  O   UNL     1       2.868   6.283  19.752  0.00  0.00    +0.000 OA
BRANCH  13  15
ATOM     15  O   UNL     1       2.853   3.983  19.872  0.00  0.00    +0.000 OA
BRANCH  15  17
ATOM     16  C   UNL     1       1.294   2.523  18.668  0.00  0.00    +0.000 C 
ATOM     17  C   UNL     1       1.469   3.680  19.635  0.00  0.00    +0.000 C 
ENDBRANCH  15  17
ENDBRANCH  13  15
ENDBRANCH   1  13
BRANCH   3  18
ATOM     18  O   UNL     1       6.453   7.043  17.739  0.00  0.00    +0.000 OA
ATOM     19  H   UNL     1       5.551   7.321  17.976  0.00  0.00    +0.000 HD
ENDBRANCH   3  18
BRANCH   8  20
ATOM     20  O   UNL     1       7.600   4.793  12.642  0.00  0.00    +0.000 OA
ATOM     21  H   UNL     1       8.161   4.011  12.477  0.00  0.00    +0.000 HD
ENDBRANCH   8  20
BRANCH   9  22
ATOM     22  O   UNL     1       5.139   3.665  12.493  0.00  0.00    +0.000 OA
ATOM     23  H   UNL     1       5.847   3.900  11.857  0.00  0.00    +0.000 HD
ENDBRANCH   9  22
TORSDOF 6
ENDMDL
