MODEL 1
REMARK VINA RESULT:      -7.1      0.000      0.000
REMARK  Name = 
REMARK  8 active torsions:
REMARK  status: ('A' for Active; 'I' for Inactive)
REMARK    1  A    between atoms: C_1  and  O_2
REMARK    2  A    between atoms: O_2  and  C_3
REMARK    3  A    between atoms: C_9  and  C_10
REMARK    4  A    between atoms: N_12  and  C_13
REMARK    5  A    between atoms: C_13  and  C_14
REMARK    6  A    between atoms: C_14  and  O_16
REMARK    7  A    between atoms: O_16  and  C_17
REMARK    8  A    between atoms: C_17  and  C_18
REMARK                            x       y       z     vdW  Elec       q    Type
REMARK                         _______ _______ _______ _____ _____    ______ ____
ROOT
ATOM      1  C   UNL     1       3.891   3.540  17.438  0.00  0.00    +0.000 C 
ATOM      2  O   UNL     1       2.739   3.569  17.010  0.00  0.00    +0.000 OA
ATOM      3  N   UNL     1       4.205   2.958  18.642  0.00  0.00    +0.000 N 
ATOM      4  H   UNL     1       5.168   2.985  18.962  0.00  0.00    +0.000 HD
ENDROOT
BRANCH   1  11
ATOM      5  C   UNL     1       5.884   5.143  17.114  0.00  0.00    +0.000 A 
ATOM      6  C   UNL     1       6.902   5.617  16.274  0.00  0.00    +0.000 A 
ATOM      7  C   UNL     1       7.035   5.132  14.971  0.00  0.00    +0.000 A 
ATOM      8  C   UNL     1       6.156   4.165  14.499  0.00  0.00    +0.000 A 
ATOM      9 CL   UNL     1       6.326   3.575  12.893  0.00  0.00    +0.000 Cl
ATOM     10  C   UNL     1       5.151   3.671  15.322  0.00  0.00    +0.000 A 
ATOM     11  C   UNL     1       5.005   4.146  16.640  0.00  0.00    +0.000 A 
BRANCH   5  13
ATOM     12  C   UNL     1       6.867   5.406  19.266  0.00  0.00    +0.000 C 
ATOM     13  O   UNL     1       5.743   5.583  18.409  0.00  0.00    +0.000 OA
ENDBRANCH   5  13
ENDBRANCH   1  11
BRANCH   3  14
ATOM     14  C   UNL     1       3.194   2.377  19.496  0.00  0.00    +0.000 C 
BRANCH  14  15
ATOM     15  C   UNL     1       2.993   3.127  20.811  0.00  0.00    +0.000 C 
ATOM     16  O   UNL     1       2.756   2.584  21.880  0.00  0.00    +0.000 OA
BRANCH  15  17
ATOM     17  O   UNL     1       3.089   4.469  20.604  0.00  0.00    +0.000 OA
BRANCH  17  18
ATOM     18  C   UNL     1       1.891   5.228  20.794  0.00  0.00    +0.000 C 
BRANCH  18  19
ATOM     19  C   UNL     1       1.894   6.523  20.024  0.00  0.00    +0.000 A 
ATOM     20  C   UNL     1       1.440   7.713  20.612  0.00  0.00    +0.000 A 
ATOM     21  C   UNL     1       1.456   8.911  19.894  0.00  0.00    +0.000 A 
ATOM     22  C   UNL     1       1.928   8.933  18.583  0.00  0.00    +0.000 A 
ATOM     23  C   UNL     1       2.391   7.759  17.992  0.00  0.00    +0.000 A 
ATOM     24  C   UNL     1       2.372   6.560  18.708  0.00  0.00    +0.000 A 
ENDBRANCH  18  19
ENDBRANCH  17  18
ENDBRANCH  15  17
ENDBRANCH  14  15
ENDBRANCH   3  14
TORSDOF 7
ENDMDL
MODEL 2
REMARK VINA RESULT:      -7.0      1.198      1.259
REMARK  Name = 
REMARK  8 active torsions:
REMARK  status: ('A' for Active; 'I' for Inactive)
REMARK    1  A    between atoms: C_1  and  O_2
REMARK    2  A    between atoms: O_2  and  C_3
REMARK    3  A    between atoms: C_9  and  C_10
REMARK    4  A    between atoms: N_12  and  C_13
REMARK    5  A    between atoms: C_13  and  C_14
REMARK    6  A    between atoms: C_14  and  O_16
REMARK    7  A    between atoms: O_16  and  C_17
REMARK    8  A    between atoms: C_17  and  C_18
REMARK                            x       y       z     vdW  Elec       q    Type
REMARK                         _______ _______ _______ _____ _____    ______ ____
ROOT
ATOM      1  C   UNL     1       4.551   3.323  18.853  0.00  0.00    +0.000 C 
ATOM      2  O   UNL     1       5.101   2.913  19.873  0.00  0.00    +0.000 OA
ATOM      3  N   UNL     1       3.218   3.102  18.607  0.00  0.00    +0.000 N 
ATOM      4  H   UNL     1       2.819   3.438  17.736  0.00  0.00    +0.000 HD
ENDROOT
BRANCH   1  11
ATOM      5  C   UNL     1       6.282   5.093  18.133  0.00  0.00    +0.000 A 
ATOM      6  C   UNL     1       6.965   5.728  17.086  0.00  0.00    +0.000 A 
ATOM      7  C   UNL     1       6.698   5.398  15.756  0.00  0.00    +0.000 A 
ATOM      8  C   UNL     1       5.750   4.426  15.461  0.00  0.00    +0.000 A 
ATOM      9 CL   UNL     1       5.425   4.027  13.821  0.00  0.00    +0.000 Cl
ATOM     10  C   UNL     1       5.073   3.773  16.486  0.00  0.00    +0.000 A 
ATOM     11  C   UNL     1       5.334   4.091  17.833  0.00  0.00    +0.000 A 
BRANCH   5  13
ATOM     12  C   UNL     1       7.907   5.587  19.801  0.00  0.00    +0.000 C 
ATOM     13  O   UNL     1       6.541   5.379  19.453  0.00  0.00    +0.000 OA
ENDBRANCH   5  13
ENDBRANCH   1  11
BRANCH   3  14
ATOM     14  C   UNL     1       2.389   2.343  19.516  0.00  0.00    +0.000 C 
BRANCH  14  15
ATOM     15  C   UNL     1       1.865   3.158  20.697  0.00  0.00    +0.000 C 
ATOM     16  O   UNL     1       1.844   2.755  21.851  0.00  0.00    +0.000 OA
BRANCH  15  17
ATOM     17  O   UNL     1       1.406   4.365  20.267  0.00  0.00    +0.000 OA
BRANCH  17  18
ATOM     18  C   UNL     1       2.034   5.520  20.828  0.00  0.00    +0.000 C 
BRANCH  18  19
ATOM     19  C   UNL     1       2.065   6.687  19.877  0.00  0.00    +0.000 A 
ATOM     20  C   UNL     1       1.561   7.941  20.255  0.00  0.00    +0.000 A 
ATOM     21  C   UNL     1       1.602   9.021  19.370  0.00  0.00    +0.000 A 
ATOM     22  C   UNL     1       2.150   8.860  18.098  0.00  0.00    +0.000 A 
ATOM     23  C   UNL     1       2.664   7.623  17.715  0.00  0.00    +0.000 A 
ATOM     24  C   UNL     1       2.619   6.541  18.598  0.00  0.00    +0.000 A 
ENDBRANCH  18  19
ENDBRANCH  17  18
ENDBRANCH  15  17
ENDBRANCH  14  15
ENDBRANCH   3  14
TORSDOF 7
ENDMDL
MODEL 3
REMARK VINA RESULT:      -6.9      4.400      6.693
REMARK  Name = 
REMARK  8 active torsions:
REMARK  status: ('A' for Active; 'I' for Inactive)
REMARK    1  A    between atoms: C_1  and  O_2
REMARK    2  A    between atoms: O_2  and  C_3
REMARK    3  A    between atoms: C_9  and  C_10
REMARK    4  A    between atoms: N_12  and  C_13
REMARK    5  A    between atoms: C_13  and  C_14
REMARK    6  A    between atoms: C_14  and  O_16
REMARK    7  A    between atoms: O_16  and  C_17
REMARK    8  A    between atoms: C_17  and  C_18
REMARK                            x       y       z     vdW  Elec       q    Type
REMARK                         _______ _______ _______ _____ _____    ______ ____
ROOT
ATOM      1  C   UNL     1       5.318   5.178  18.971  0.00  0.00    +0.000 C 
ATOM      2  O   UNL     1       4.985   6.203  19.563  0.00  0.00    +0.000 OA
ATOM      3  N   UNL     1       6.629   4.909  18.665  0.00  0.00    +0.000 N 
ATOM      4  H   UNL     1       6.848   4.061  18.150  0.00  0.00    +0.000 HD
ENDROOT
BRANCH   1  11
ATOM      5  C   UNL     1       4.306   3.439  17.358  0.00  0.00    +0.000 A 
ATOM      6  C   UNL     1       3.285   2.514  17.099  0.00  0.00    +0.000 A 
ATOM      7  C   UNL     1       2.237   2.335  18.005  0.00  0.00    +0.000 A 
ATOM      8  C   UNL     1       2.204   3.074  19.181  0.00  0.00    +0.000 A 
ATOM      9 CL   UNL     1       0.911   2.849  20.290  0.00  0.00    +0.000 Cl
ATOM     10  C   UNL     1       3.217   3.986  19.464  0.00  0.00    +0.000 A 
ATOM     11  C   UNL     1       4.282   4.175  18.562  0.00  0.00    +0.000 A 
BRANCH   5  13
ATOM     12  C   UNL     1       5.110   4.416  15.342  0.00  0.00    +0.000 C 
ATOM     13  O   UNL     1       5.362   3.620  16.497  0.00  0.00    +0.000 OA
ENDBRANCH   5  13
ENDBRANCH   1  11
BRANCH   3  14
ATOM     14  C   UNL     1       7.694   5.831  18.990  0.00  0.00    +0.000 C 
BRANCH  14  15
ATOM     15  C   UNL     1       7.793   7.018  18.034  0.00  0.00    +0.000 C 
ATOM     16  O   UNL     1       7.292   7.043  16.919  0.00  0.00    +0.000 OA
BRANCH  15  17
ATOM     17  O   UNL     1       8.537   8.010  18.594  0.00  0.00    +0.000 OA
BRANCH  17  18
ATOM     18  C   UNL     1       8.309   9.333  18.099  0.00  0.00    +0.000 C 
BRANCH  18  19
ATOM     19  C   UNL     1       9.269  10.343  18.670  0.00  0.00    +0.000 A 
ATOM     20  C   UNL     1       9.319  10.591  20.050  0.00  0.00    +0.000 A 
ATOM     21  C   UNL     1      10.220  11.523  20.572  0.00  0.00    +0.000 A 
ATOM     22  C   UNL     1      11.082  12.213  19.721  0.00  0.00    +0.000 A 
ATOM     23  C   UNL     1      11.049  11.966  18.351  0.00  0.00    +0.000 A 
ATOM     24  C   UNL     1      10.146  11.038  17.827  0.00  0.00    +0.000 A 
ENDBRANCH  18  19
ENDBRANCH  17  18
ENDBRANCH  15  17
ENDBRANCH  14  15
ENDBRANCH   3  14
TORSDOF 7
ENDMDL
MODEL 4
REMARK VINA RESULT:      -6.9      0.493      1.101
REMARK  Name = 
REMARK  8 active torsions:
REMARK  status: ('A' for Active; 'I' for Inactive)
REMARK    1  A    between atoms: C_1  and  O_2
REMARK    2  A    between atoms: O_2  and  C_3
REMARK    3  A    between atoms: C_9  and  C_10
REMARK    4  A    between atoms: N_12  and  C_13
REMARK    5  A    between atoms: C_13  and  C_14
REMARK    6  A    between atoms: C_14  and  O_16
REMARK    7  A    between atoms: O_16  and  C_17
REMARK    8  A    between atoms: C_17  and  C_18
REMARK                            x       y       z     vdW  Elec       q    Type
REMARK                         _______ _______ _______ _____ _____    ______ ____
ROOT
ATOM      1  C   UNL     1       3.950   3.542  17.313  0.00  0.00    +0.000 C 
ATOM      2  O   UNL     1       2.811   3.718  16.884  0.00  0.00    +0.000 OA
ATOM      3  N   UNL     1       4.193   2.825  18.459  0.00  0.00    +0.000 N 
ATOM      4  H   UNL     1       5.150   2.733  18.785  0.00  0.00    +0.000 HD
ENDROOT
BRANCH   1  11
ATOM      5  C   UNL     1       6.062   5.011  17.137  0.00  0.00    +0.000 A 
ATOM      6  C   UNL     1       7.133   5.460  16.352  0.00  0.00    +0.000 A 
ATOM      7  C   UNL     1       7.265   5.051  15.023  0.00  0.00    +0.000 A 
ATOM      8  C   UNL     1       6.331   4.183  14.470  0.00  0.00    +0.000 A 
ATOM      9 CL   UNL     1       6.500   3.685  12.833  0.00  0.00    +0.000 Cl
ATOM     10  C   UNL     1       5.271   3.713  15.238  0.00  0.00    +0.000 A 
ATOM     11  C   UNL     1       5.126   4.113  16.580  0.00  0.00    +0.000 A 
BRANCH   5  13
ATOM     12  C   UNL     1       7.121   5.516  19.208  0.00  0.00    +0.000 C 
ATOM     13  O   UNL     1       5.919   5.377  18.455  0.00  0.00    +0.000 OA
ENDBRANCH   5  13
ENDBRANCH   1  11
BRANCH   3  14
ATOM     14  C   UNL     1       3.121   2.264  19.250  0.00  0.00    +0.000 C 
BRANCH  14  15
ATOM     15  C   UNL     1       2.799   3.068  20.508  0.00  0.00    +0.000 C 
ATOM     16  O   UNL     1       2.970   2.655  21.646  0.00  0.00    +0.000 OA
BRANCH  15  17
ATOM     17  O   UNL     1       2.275   4.277  20.170  0.00  0.00    +0.000 OA
BRANCH  17  18
ATOM     18  C   UNL     1       3.159   5.398  20.250  0.00  0.00    +0.000 C 
BRANCH  18  19
ATOM     19  C   UNL     1       2.556   6.658  19.689  0.00  0.00    +0.000 A 
ATOM     20  C   UNL     1       2.718   6.996  18.337  0.00  0.00    +0.000 A 
ATOM     21  C   UNL     1       2.146   8.162  17.822  0.00  0.00    +0.000 A 
ATOM     22  C   UNL     1       1.404   9.001  18.652  0.00  0.00    +0.000 A 
ATOM     23  C   UNL     1       1.227   8.670  19.994  0.00  0.00    +0.000 A 
ATOM     24  C   UNL     1       1.802   7.507  20.510  0.00  0.00    +0.000 A 
ENDBRANCH  18  19
ENDBRANCH  17  18
ENDBRANCH  15  17
ENDBRANCH  14  15
ENDBRANCH   3  14
TORSDOF 7
ENDMDL
MODEL 5
REMARK VINA RESULT:      -6.9      1.106      1.614
REMARK  Name = 
REMARK  8 active torsions:
REMARK  status: ('A' for Active; 'I' for Inactive)
REMARK    1  A    between atoms: C_1  and  O_2
REMARK    2  A    between atoms: O_2  and  C_3
REMARK    3  A    between atoms: C_9  and  C_10
REMARK    4  A    between atoms: N_12  and  C_13
REMARK    5  A    between atoms: C_13  and  C_14
REMARK    6  A    between atoms: C_14  and  O_16
REMARK    7  A    between atoms: O_16  and  C_17
REMARK    8  A    between atoms: C_17  and  C_18
REMARK                            x       y       z     vdW  Elec       q    Type
REMARK                         _______ _______ _______ _____ _____    ______ ____
ROOT
ATOM      1  C   UNL     1       4.551   2.837  18.203  0.00  0.00    +0.000 C 
ATOM      2  O   UNL     1       3.679   2.131  17.700  0.00  0.00    +0.000 OA
ATOM      3  N   UNL     1       4.814   2.819  19.551  0.00  0.00    +0.000 N 
ATOM      4  H   UNL     1       5.526   3.443  19.919  0.00  0.00    +0.000 HD
ENDROOT
BRANCH   1  11
ATOM      5  C   UNL     1       6.175   4.804  17.824  0.00  0.00    +0.000 A 
ATOM      6  C   UNL     1       6.908   5.580  16.914  0.00  0.00    +0.000 A 
ATOM      7  C   UNL     1       6.825   5.339  15.541  0.00  0.00    +0.000 A 
ATOM      8  C   UNL     1       6.013   4.316  15.066  0.00  0.00    +0.000 A 
ATOM      9 CL   UNL     1       5.915   4.026  13.374  0.00  0.00    +0.000 Cl
ATOM     10  C   UNL     1       5.291   3.525  15.953  0.00  0.00    +0.000 A 
ATOM     11  C   UNL     1       5.367   3.752  17.341  0.00  0.00    +0.000 A 
BRANCH   5  13
ATOM     12  C   UNL     1       7.446   5.618  19.664  0.00  0.00    +0.000 C 
ATOM     13  O   UNL     1       6.255   5.002  19.182  0.00  0.00    +0.000 OA
ENDBRANCH   5  13
ENDBRANCH   1  11
BRANCH   3  14
ATOM     14  C   UNL     1       4.058   1.994  20.465  0.00  0.00    +0.000 C 
BRANCH  14  15
ATOM     15  C   UNL     1       2.803   2.672  21.013  0.00  0.00    +0.000 C 
ATOM     16  O   UNL     1       2.705   3.115  22.148  0.00  0.00    +0.000 OA
BRANCH  15  17
ATOM     17  O   UNL     1       1.824   2.679  20.069  0.00  0.00    +0.000 OA
BRANCH  17  18
ATOM     18  C   UNL     1       0.914   3.782  20.104  0.00  0.00    +0.000 C 
BRANCH  18  19
ATOM     19  C   UNL     1       1.538   5.067  19.628  0.00  0.00    +0.000 A 
ATOM     20  C   UNL     1       2.075   5.174  18.336  0.00  0.00    +0.000 A 
ATOM     21  C   UNL     1       2.643   6.373  17.899  0.00  0.00    +0.000 A 
ATOM     22  C   UNL     1       2.678   7.479  18.747  0.00  0.00    +0.000 A 
ATOM     23  C   UNL     1       2.138   7.388  20.028  0.00  0.00    +0.000 A 
ATOM     24  C   UNL     1       1.573   6.189  20.467  0.00  0.00    +0.000 A 
ENDBRANCH  18  19
ENDBRANCH  17  18
ENDBRANCH  15  17
ENDBRANCH  14  15
ENDBRANCH   3  14
TORSDOF 7
ENDMDL
MODEL 6
REMARK VINA RESULT:      -6.7      2.698      6.660
REMARK  Name = 
REMARK  8 active torsions:
REMARK  status: ('A' for Active; 'I' for Inactive)
REMARK    1  A    between atoms: C_1  and  O_2
REMARK    2  A    between atoms: O_2  and  C_3
REMARK    3  A    between atoms: C_9  and  C_10
REMARK    4  A    between atoms: N_12  and  C_13
REMARK    5  A    between atoms: C_13  and  C_14
REMARK    6  A    between atoms: C_14  and  O_16
REMARK    7  A    between atoms: O_16  and  C_17
REMARK    8  A    between atoms: C_17  and  C_18
REMARK                            x       y       z     vdW  Elec       q    Type
REMARK                         _______ _______ _______ _____ _____    ______ ____
ROOT
ATOM      1  C   UNL     1       4.188   5.831  18.314  0.00  0.00    +0.000 C 
ATOM      2  O   UNL     1       4.019   6.524  17.313  0.00  0.00    +0.000 OA
ATOM      3  N   UNL     1       5.441   5.555  18.805  0.00  0.00    +0.000 N 
ATOM      4  H   UNL     1       5.526   4.955  19.619  0.00  0.00    +0.000 HD
ENDROOT
BRANCH   1  11
ATOM      5  C   UNL     1       2.175   5.990  19.918  0.00  0.00    +0.000 A 
ATOM      6  C   UNL     1       1.088   5.345  20.525  0.00  0.00    +0.000 A 
ATOM      7  C   UNL     1       0.841   3.990  20.293  0.00  0.00    +0.000 A 
ATOM      8  C   UNL     1       1.674   3.270  19.447  0.00  0.00    +0.000 A 
ATOM      9 CL   UNL     1       1.365   1.602  19.168  0.00  0.00    +0.000 Cl
ATOM     10  C   UNL     1       2.748   3.895  18.822  0.00  0.00    +0.000 A 
ATOM     11  C   UNL     1       3.009   5.262  19.042  0.00  0.00    +0.000 A 
BRANCH   5  13
ATOM     12  C   UNL     1       1.435   8.069  20.811  0.00  0.00    +0.000 C 
ATOM     13  O   UNL     1       2.429   7.328  20.108  0.00  0.00    +0.000 OA
ENDBRANCH   5  13
ENDBRANCH   1  11
BRANCH   3  14
ATOM     14  C   UNL     1       6.639   6.033  18.152  0.00  0.00    +0.000 C 
BRANCH  14  15
ATOM     15  C   UNL     1       7.681   4.944  17.906  0.00  0.00    +0.000 C 
ATOM     16  O   UNL     1       8.471   4.549  18.750  0.00  0.00    +0.000 OA
BRANCH  15  17
ATOM     17  O   UNL     1       7.614   4.514  16.616  0.00  0.00    +0.000 OA
BRANCH  17  18
ATOM     18  C   UNL     1       7.010   5.409  15.678  0.00  0.00    +0.000 C 
BRANCH  18  19
ATOM     19  C   UNL     1       6.801   4.782  14.325  0.00  0.00    +0.000 A 
ATOM     20  C   UNL     1       5.738   3.894  14.098  0.00  0.00    +0.000 A 
ATOM     21  C   UNL     1       5.545   3.324  12.837  0.00  0.00    +0.000 A 
ATOM     22  C   UNL     1       6.410   3.638  11.790  0.00  0.00    +0.000 A 
ATOM     23  C   UNL     1       7.462   4.527  12.001  0.00  0.00    +0.000 A 
ATOM     24  C   UNL     1       7.658   5.094  13.262  0.00  0.00    +0.000 A 
ENDBRANCH  18  19
ENDBRANCH  17  18
ENDBRANCH  15  17
ENDBRANCH  14  15
ENDBRANCH   3  14
TORSDOF 7
ENDMDL
MODEL 7
REMARK VINA RESULT:      -6.6      2.923      6.850
REMARK  Name = 
REMARK  8 active torsions:
REMARK  status: ('A' for Active; 'I' for Inactive)
REMARK    1  A    between atoms: C_1  and  O_2
REMARK    2  A    between atoms: O_2  and  C_3
REMARK    3  A    between atoms: C_9  and  C_10
REMARK    4  A    between atoms: N_12  and  C_13
REMARK    5  A    between atoms: C_13  and  C_14
REMARK    6  A    between atoms: C_14  and  O_16
REMARK    7  A    between atoms: O_16  and  C_17
REMARK    8  A    between atoms: C_17  and  C_18
REMARK                            x       y       z     vdW  Elec       q    Type
REMARK                         _______ _______ _______ _____ _____    ______ ____
ROOT
ATOM      1  C   UNL     1       5.144   4.466  19.203  0.00  0.00    +0.000 C 
ATOM      2  O   UNL     1       5.664   3.352  19.171  0.00  0.00    +0.000 OA
ATOM      3  N   UNL     1       5.833   5.601  18.854  0.00  0.00    +0.000 N 
ATOM      4  H   UNL     1       5.365   6.499  18.924  0.00  0.00    +0.000 HD
ENDROOT
BRANCH   1  11
ATOM      5  C   UNL     1       2.882   5.701  19.286  0.00  0.00    +0.000 A 
ATOM      6  C   UNL     1       1.554   5.716  19.734  0.00  0.00    +0.000 A 
ATOM      7  C   UNL     1       1.060   4.686  20.537  0.00  0.00    +0.000 A 
ATOM      8  C   UNL     1       1.887   3.628  20.893  0.00  0.00    +0.000 A 
ATOM      9 CL   UNL     1       1.272   2.365  21.883  0.00  0.00    +0.000 Cl
ATOM     10  C   UNL     1       3.203   3.587  20.445  0.00  0.00    +0.000 A 
ATOM     11  C   UNL     1       3.716   4.616  19.631  0.00  0.00    +0.000 A 
BRANCH   5  13
ATOM     12  C   UNL     1       2.463   7.663  18.005  0.00  0.00    +0.000 C 
ATOM     13  O   UNL     1       3.390   6.689  18.475  0.00  0.00    +0.000 OA
ENDBRANCH   5  13
ENDBRANCH   1  11
BRANCH   3  14
ATOM     14  C   UNL     1       7.223   5.559  18.459  0.00  0.00    +0.000 C 
BRANCH  14  15
ATOM     15  C   UNL     1       7.646   6.726  17.569  0.00  0.00    +0.000 C 
ATOM     16  O   UNL     1       8.032   7.806  17.994  0.00  0.00    +0.000 OA
BRANCH  15  17
ATOM     17  O   UNL     1       7.500   6.393  16.258  0.00  0.00    +0.000 OA
BRANCH  17  18
ATOM     18  C   UNL     1       6.698   5.241  15.980  0.00  0.00    +0.000 C 
BRANCH  18  19
ATOM     19  C   UNL     1       6.764   4.819  14.537  0.00  0.00    +0.000 A 
ATOM     20  C   UNL     1       7.685   5.406  13.655  0.00  0.00    +0.000 A 
ATOM     21  C   UNL     1       7.747   5.001  12.319  0.00  0.00    +0.000 A 
ATOM     22  C   UNL     1       6.891   4.004  11.852  0.00  0.00    +0.000 A 
ATOM     23  C   UNL     1       5.980   3.407  12.721  0.00  0.00    +0.000 A 
ATOM     24  C   UNL     1       5.915   3.814  14.055  0.00  0.00    +0.000 A 
ENDBRANCH  18  19
ENDBRANCH  17  18
ENDBRANCH  15  17
ENDBRANCH  14  15
ENDBRANCH   3  14
TORSDOF 7
ENDMDL
MODEL 8
REMARK VINA RESULT:      -6.6      5.623      8.836
REMARK  Name = 
REMARK  8 active torsions:
REMARK  status: ('A' for Active; 'I' for Inactive)
REMARK    1  A    between atoms: C_1  and  O_2
REMARK    2  A    between atoms: O_2  and  C_3
REMARK    3  A    between atoms: C_9  and  C_10
REMARK    4  A    between atoms: N_12  and  C_13
REMARK    5  A    between atoms: C_13  and  C_14
REMARK    6  A    between atoms: C_14  and  O_16
REMARK    7  A    between atoms: O_16  and  C_17
REMARK    8  A    between atoms: C_17  and  C_18
REMARK                            x       y       z     vdW  Elec       q    Type
REMARK                         _______ _______ _______ _____ _____    ______ ____
ROOT
ATOM      1  C   UNL     1      -0.763  11.081  18.476  0.00  0.00    +0.000 C 
ATOM      2  O   UNL     1      -0.034  12.071  18.474  0.00  0.00    +0.000 OA
ATOM      3  N   UNL     1      -0.343   9.869  18.965  0.00  0.00    +0.000 N 
ATOM      4  H   UNL     1      -0.975   9.076  18.918  0.00  0.00    +0.000 HD
ENDROOT
BRANCH   1  11
ATOM      5  C   UNL     1      -3.260  11.706  18.639  0.00  0.00    +0.000 A 
ATOM      6  C   UNL     1      -4.514  11.754  18.015  0.00  0.00    +0.000 A 
ATOM      7  C   UNL     1      -4.687  11.259  16.720  0.00  0.00    +0.000 A 
ATOM      8  C   UNL     1      -3.606  10.717  16.037  0.00  0.00    +0.000 A 
ATOM      9 CL   UNL     1      -3.827  10.109  14.444  0.00  0.00    +0.000 Cl
ATOM     10  C   UNL     1      -2.350  10.675  16.632  0.00  0.00    +0.000 A 
ATOM     11  C   UNL     1      -2.158  11.174  17.936  0.00  0.00    +0.000 A 
BRANCH   5  13
ATOM     12  C   UNL     1      -4.086  13.035  20.433  0.00  0.00    +0.000 C 
ATOM     13  O   UNL     1      -3.054  12.207  19.903  0.00  0.00    +0.000 OA
ENDBRANCH   5  13
ENDBRANCH   1  11
BRANCH   3  14
ATOM     14  C   UNL     1       0.995   9.674  19.477  0.00  0.00    +0.000 C 
BRANCH  14  15
ATOM     15  C   UNL     1       1.901   8.874  18.543  0.00  0.00    +0.000 C 
ATOM     16  O   UNL     1       2.160   9.201  17.394  0.00  0.00    +0.000 OA
BRANCH  15  17
ATOM     17  O   UNL     1       2.340   7.747  19.167  0.00  0.00    +0.000 OA
BRANCH  17  18
ATOM     18  C   UNL     1       2.645   6.632  18.326  0.00  0.00    +0.000 C 
BRANCH  18  19
ATOM     19  C   UNL     1       2.067   5.339  18.839  0.00  0.00    +0.000 A 
ATOM     20  C   UNL     1       1.813   5.155  20.206  0.00  0.00    +0.000 A 
ATOM     21  C   UNL     1       1.267   3.956  20.673  0.00  0.00    +0.000 A 
ATOM     22  C   UNL     1       0.966   2.931  19.777  0.00  0.00    +0.000 A 
ATOM     23  C   UNL     1       1.205   3.107  18.415  0.00  0.00    +0.000 A 
ATOM     24  C   UNL     1       1.754   4.303  17.949  0.00  0.00    +0.000 A 
ENDBRANCH  18  19
ENDBRANCH  17  18
ENDBRANCH  15  17
ENDBRANCH  14  15
ENDBRANCH   3  14
TORSDOF 7
ENDMDL
MODEL 9
REMARK VINA RESULT:      -6.6      4.320      6.527
REMARK  Name = 
REMARK  8 active torsions:
REMARK  status: ('A' for Active; 'I' for Inactive)
REMARK    1  A    between atoms: C_1  and  O_2
REMARK    2  A    between atoms: O_2  and  C_3
REMARK    3  A    between atoms: C_9  and  C_10
REMARK    4  A    between atoms: N_12  and  C_13
REMARK    5  A    between atoms: C_13  and  C_14
REMARK    6  A    between atoms: C_14  and  O_16
REMARK    7  A    between atoms: O_16  and  C_17
REMARK    8  A    between atoms: C_17  and  C_18
REMARK                            x       y       z     vdW  Elec       q    Type
REMARK                         _______ _______ _______ _____ _____    ______ ____
ROOT
ATOM      1  C   UNL     1       5.276   5.305  18.775  0.00  0.00    +0.000 C 
ATOM      2  O   UNL     1       5.021   6.468  19.080  0.00  0.00    +0.000 OA
ATOM      3  N   UNL     1       6.566   4.839  18.697  0.00  0.00    +0.000 N 
ATOM      4  H   UNL     1       6.722   3.877  18.413  0.00  0.00    +0.000 HD
ENDROOT
BRANCH   1  11
ATOM      5  C   UNL     1       4.118   3.490  17.356  0.00  0.00    +0.000 A 
ATOM      6  C   UNL     1       3.029   2.621  17.200  0.00  0.00    +0.000 A 
ATOM      7  C   UNL     1       1.983   2.613  18.126  0.00  0.00    +0.000 A 
ATOM      8  C   UNL     1       2.020   3.470  19.219  0.00  0.00    +0.000 A 
ATOM      9 CL   UNL     1       0.729   3.456  20.353  0.00  0.00    +0.000 Cl
ATOM     10  C   UNL     1       3.100   4.328  19.400  0.00  0.00    +0.000 A 
ATOM     11  C   UNL     1       4.165   4.345  18.478  0.00  0.00    +0.000 A 
BRANCH   5  13
ATOM     12  C   UNL     1       5.044   4.359  15.343  0.00  0.00    +0.000 C 
ATOM     13  O   UNL     1       5.173   3.503  16.475  0.00  0.00    +0.000 OA
ENDBRANCH   5  13
ENDBRANCH   1  11
BRANCH   3  14
ATOM     14  C   UNL     1       7.703   5.699  18.934  0.00  0.00    +0.000 C 
BRANCH  14  15
ATOM     15  C   UNL     1       7.874   6.797  17.887  0.00  0.00    +0.000 C 
ATOM     16  O   UNL     1       7.627   6.654  16.698  0.00  0.00    +0.000 OA
BRANCH  15  17
ATOM     17  O   UNL     1       8.362   7.927  18.467  0.00  0.00    +0.000 OA
BRANCH  17  18
ATOM     18  C   UNL     1       8.060   9.161  17.811  0.00  0.00    +0.000 C 
BRANCH  18  19
ATOM     19  C   UNL     1       8.766  10.338  18.428  0.00  0.00    +0.000 A 
ATOM     20  C   UNL     1       8.786  11.586  17.787  0.00  0.00    +0.000 A 
ATOM     21  C   UNL     1       9.436  12.676  18.372  0.00  0.00    +0.000 A 
ATOM     22  C   UNL     1      10.070  12.530  19.606  0.00  0.00    +0.000 A 
ATOM     23  C   UNL     1      10.048  11.299  20.257  0.00  0.00    +0.000 A 
ATOM     24  C   UNL     1       9.402  10.208  19.670  0.00  0.00    +0.000 A 
ENDBRANCH  18  19
ENDBRANCH  17  18
ENDBRANCH  15  17
ENDBRANCH  14  15
ENDBRANCH   3  14
TORSDOF 7
ENDMDL
