MODEL 1
REMARK VINA RESULT:      -8.5      0.000      0.000
REMARK  Name = 
REMARK  3 active torsions:
REMARK  status: ('A' for Active; 'I' for Inactive)
REMARK    1  A    between atoms: C_8  and  C_9
REMARK    2  A    between atoms: C_12  and  C_13
REMARK    3  A    between atoms: C_13  and  N_14
REMARK                            x       y       z     vdW  Elec       q    Type
REMARK                         _______ _______ _______ _____ _____    ______ ____
ROOT
ATOM      1  C   UNL     1       1.629   7.559  20.243  0.00  0.00    +0.000 A 
ATOM      2  C   UNL     1       2.301   7.590  19.023  0.00  0.00    +0.000 A 
ATOM      3  C   UNL     1       2.953   6.446  18.565  0.00  0.00    +0.000 A 
ATOM      4  C   UNL     1       2.915   5.275  19.321  0.00  0.00    +0.000 A 
ATOM      5  C   UNL     1       2.184   5.312  20.501  0.00  0.00    +0.000 A 
ATOM      6  N   UNL     1       1.556   6.417  20.973  0.00  0.00    +0.000 NA
ENDROOT
BRANCH   1  14
ATOM      7  F   UNL     1       0.698   9.819  18.711  0.00  0.00    +0.000 F 
ATOM      8  C   UNL     1       0.505   9.815  20.039  0.00  0.00    +0.000 A 
ATOM      9  C   UNL     1      -0.130  10.927  20.591  0.00  0.00    +0.000 A 
ATOM     10  C   UNL     1      -0.329  10.988  21.962  0.00  0.00    +0.000 A 
ATOM     11 CL   UNL     1      -1.110  12.355  22.653  0.00  0.00    +0.000 Cl
ATOM     12  C   UNL     1       0.105   9.950  22.780  0.00  0.00    +0.000 A 
ATOM     13  C   UNL     1       0.742   8.838  22.215  0.00  0.00    +0.000 A 
ATOM     14  C   UNL     1       0.953   8.739  20.824  0.00  0.00    +0.000 A 
ENDBRANCH   1  14
BRANCH   4  15
ATOM     15  C   UNL     1       3.606   4.019  18.870  0.00  0.00    +0.000 C 
BRANCH  15  16
ATOM     16  N   UNL     1       4.943   4.295  18.384  0.00  0.00    +0.000 N 
ATOM     17  N   UNL     1       5.952   4.473  19.260  0.00  0.00    +0.000 NA
ATOM     18  N   UNL     1       7.062   4.655  18.557  0.00  0.00    +0.000 NA
ATOM     19  C   UNL     1       6.737   4.611  17.228  0.00  0.00    +0.000 A 
ATOM     20  C   UNL     1       7.541   4.729  16.085  0.00  0.00    +0.000 A 
ATOM     21  C   UNL     1       6.931   4.644  14.827  0.00  0.00    +0.000 A 
ATOM     22  C   UNL     1       5.551   4.461  14.709  0.00  0.00    +0.000 A 
ATOM     23  C   UNL     1       4.734   4.345  15.839  0.00  0.00    +0.000 A 
ATOM     24  C   UNL     1       5.368   4.410  17.086  0.00  0.00    +0.000 A 
ENDBRANCH  15  16
ENDBRANCH   4  15
TORSDOF 3
ENDMDL
MODEL 2
REMARK VINA RESULT:      -8.4      2.102      3.116
REMARK  Name = 
REMARK  3 active torsions:
REMARK  status: ('A' for Active; 'I' for Inactive)
REMARK    1  A    between atoms: C_8  and  C_9
REMARK    2  A    between atoms: C_12  and  C_13
REMARK    3  A    between atoms: C_13  and  N_14
REMARK                            x       y       z     vdW  Elec       q    Type
REMARK                         _______ _______ _______ _____ _____    ______ ____
ROOT
ATOM      1  C   UNL     1       2.711   6.943  18.244  0.00  0.00    +0.000 A 
ATOM      2  C   UNL     1       2.214   5.641  18.202  0.00  0.00    +0.000 A 
ATOM      3  C   UNL     1       2.998   4.620  17.668  0.00  0.00    +0.000 A 
ATOM      4  C   UNL     1       4.279   4.902  17.195  0.00  0.00    +0.000 A 
ATOM      5  C   UNL     1       4.719   6.214  17.316  0.00  0.00    +0.000 A 
ATOM      6  N   UNL     1       3.968   7.225  17.817  0.00  0.00    +0.000 NA
ENDROOT
BRANCH   1  14
ATOM      7  F   UNL     1       1.804   7.221  20.968  0.00  0.00    +0.000 F 
ATOM      8  C   UNL     1       1.516   8.193  20.089  0.00  0.00    +0.000 A 
ATOM      9  C   UNL     1       0.776   9.277  20.560  0.00  0.00    +0.000 A 
ATOM     10  C   UNL     1       0.425  10.295  19.686  0.00  0.00    +0.000 A 
ATOM     11 CL   UNL     1      -0.487  11.636  20.258  0.00  0.00    +0.000 Cl
ATOM     12  C   UNL     1       0.806  10.233  18.350  0.00  0.00    +0.000 A 
ATOM     13  C   UNL     1       1.547   9.140  17.887  0.00  0.00    +0.000 A 
ATOM     14  C   UNL     1       1.929   8.091  18.748  0.00  0.00    +0.000 A 
ENDBRANCH   1  14
BRANCH   4  15
ATOM     15  C   UNL     1       5.159   3.835  16.607  0.00  0.00    +0.000 C 
BRANCH  15  16
ATOM     16  N   UNL     1       6.096   4.387  15.651  0.00  0.00    +0.000 N 
ATOM     17  N   UNL     1       7.062   5.230  16.069  0.00  0.00    +0.000 NA
ATOM     18  N   UNL     1       7.804   5.541  15.014  0.00  0.00    +0.000 NA
ATOM     19  C   UNL     1       7.282   4.900  13.922  0.00  0.00    +0.000 A 
ATOM     20  C   UNL     1       7.701   4.882  12.585  0.00  0.00    +0.000 A 
ATOM     21  C   UNL     1       6.965   4.127  11.663  0.00  0.00    +0.000 A 
ATOM     22  C   UNL     1       5.829   3.419  12.061  0.00  0.00    +0.000 A 
ATOM     23  C   UNL     1       5.394   3.429  13.391  0.00  0.00    +0.000 A 
ATOM     24  C   UNL     1       6.158   4.171  14.299  0.00  0.00    +0.000 A 
ENDBRANCH  15  16
ENDBRANCH   4  15
TORSDOF 3
ENDMDL
MODEL 3
REMARK VINA RESULT:      -8.4      2.235      3.018
REMARK  Name = 
REMARK  3 active torsions:
REMARK  status: ('A' for Active; 'I' for Inactive)
REMARK    1  A    between atoms: C_8  and  C_9
REMARK    2  A    between atoms: C_12  and  C_13
REMARK    3  A    between atoms: C_13  and  N_14
REMARK                            x       y       z     vdW  Elec       q    Type
REMARK                         _______ _______ _______ _____ _____    ______ ____
ROOT
ATOM      1  C   UNL     1       1.039   9.165  19.869  0.00  0.00    +0.000 A 
ATOM      2  C   UNL     1       1.288   9.513  18.543  0.00  0.00    +0.000 A 
ATOM      3  C   UNL     1       2.159   8.739  17.778  0.00  0.00    +0.000 A 
ATOM      4  C   UNL     1       2.762   7.613  18.337  0.00  0.00    +0.000 A 
ATOM      5  C   UNL     1       2.425   7.307  19.650  0.00  0.00    +0.000 A 
ATOM      6  N   UNL     1       1.594   8.054  20.417  0.00  0.00    +0.000 NA
ENDROOT
BRANCH   1  14
ATOM      7  F   UNL     1      -0.463  11.484  19.040  0.00  0.00    +0.000 F 
ATOM      8  C   UNL     1      -0.556  11.076  20.315  0.00  0.00    +0.000 A 
ATOM      9  C   UNL     1      -1.375  11.822  21.162  0.00  0.00    +0.000 A 
ATOM     10  C   UNL     1      -1.483  11.462  22.497  0.00  0.00    +0.000 A 
ATOM     11 CL   UNL     1      -2.490  12.376  23.550  0.00  0.00    +0.000 Cl
ATOM     12  C   UNL     1      -0.779  10.367  22.987  0.00  0.00    +0.000 A 
ATOM     13  C   UNL     1       0.041   9.626  22.128  0.00  0.00    +0.000 A 
ATOM     14  C   UNL     1       0.169   9.958  20.763  0.00  0.00    +0.000 A 
ENDBRANCH   1  14
BRANCH   4  15
ATOM     15  C   UNL     1       3.711   6.751  17.553  0.00  0.00    +0.000 C 
BRANCH  15  16
ATOM     16  N   UNL     1       3.956   5.489  18.221  0.00  0.00    +0.000 N 
ATOM     17  N   UNL     1       5.154   5.255  18.793  0.00  0.00    +0.000 NA
ATOM     18  N   UNL     1       5.093   4.062  19.371  0.00  0.00    +0.000 NA
ATOM     19  C   UNL     1       3.850   3.539  19.139  0.00  0.00    +0.000 A 
ATOM     20  C   UNL     1       3.277   2.325  19.544  0.00  0.00    +0.000 A 
ATOM     21  C   UNL     1       1.962   2.042  19.155  0.00  0.00    +0.000 A 
ATOM     22  C   UNL     1       1.239   2.941  18.367  0.00  0.00    +0.000 A 
ATOM     23  C   UNL     1       1.796   4.155  17.950  0.00  0.00    +0.000 A 
ATOM     24  C   UNL     1       3.103   4.426  18.370  0.00  0.00    +0.000 A 
ENDBRANCH  15  16
ENDBRANCH   4  15
TORSDOF 3
ENDMDL
MODEL 4
REMARK VINA RESULT:      -8.3      2.336      3.210
REMARK  Name = 
REMARK  3 active torsions:
REMARK  status: ('A' for Active; 'I' for Inactive)
REMARK    1  A    between atoms: C_8  and  C_9
REMARK    2  A    between atoms: C_12  and  C_13
REMARK    3  A    between atoms: C_13  and  N_14
REMARK                            x       y       z     vdW  Elec       q    Type
REMARK                         _______ _______ _______ _____ _____    ______ ____
ROOT
ATOM      1  C   UNL     1       1.068   9.223  19.845  0.00  0.00    +0.000 A 
ATOM      2  C   UNL     1       1.359   9.604  18.537  0.00  0.00    +0.000 A 
ATOM      3  C   UNL     1       2.225   8.828  17.768  0.00  0.00    +0.000 A 
ATOM      4  C   UNL     1       2.782   7.668  18.306  0.00  0.00    +0.000 A 
ATOM      5  C   UNL     1       2.405   7.332  19.600  0.00  0.00    +0.000 A 
ATOM      6  N   UNL     1       1.577   8.079  20.370  0.00  0.00    +0.000 NA
ENDROOT
BRANCH   1  14
ATOM      7  F   UNL     1       0.900   8.836  22.698  0.00  0.00    +0.000 F 
ATOM      8  C   UNL     1       0.156   9.799  22.132  0.00  0.00    +0.000 A 
ATOM      9  C   UNL     1      -0.667  10.544  22.976  0.00  0.00    +0.000 A 
ATOM     10  C   UNL     1      -1.479  11.532  22.438  0.00  0.00    +0.000 A 
ATOM     11 CL   UNL     1      -2.497  12.456  23.470  0.00  0.00    +0.000 Cl
ATOM     12  C   UNL     1      -1.475  11.774  21.068  0.00  0.00    +0.000 A 
ATOM     13  C   UNL     1      -0.646  11.019  20.231  0.00  0.00    +0.000 A 
ATOM     14  C   UNL     1       0.199  10.013  20.743  0.00  0.00    +0.000 A 
ENDBRANCH   1  14
BRANCH   4  15
ATOM     15  C   UNL     1       3.724   6.803  17.518  0.00  0.00    +0.000 C 
BRANCH  15  16
ATOM     16  N   UNL     1       4.008   5.561  18.208  0.00  0.00    +0.000 N 
ATOM     17  N   UNL     1       5.195   5.392  18.824  0.00  0.00    +0.000 NA
ATOM     18  N   UNL     1       5.172   4.204  19.413  0.00  0.00    +0.000 NA
ATOM     19  C   UNL     1       3.965   3.618  19.145  0.00  0.00    +0.000 A 
ATOM     20  C   UNL     1       3.439   2.381  19.544  0.00  0.00    +0.000 A 
ATOM     21  C   UNL     1       2.153   2.030  19.113  0.00  0.00    +0.000 A 
ATOM     22  C   UNL     1       1.415   2.884  18.291  0.00  0.00    +0.000 A 
ATOM     23  C   UNL     1       1.926   4.120  17.879  0.00  0.00    +0.000 A 
ATOM     24  C   UNL     1       3.203   4.459  18.341  0.00  0.00    +0.000 A 
ENDBRANCH  15  16
ENDBRANCH   4  15
TORSDOF 3
ENDMDL
MODEL 5
REMARK VINA RESULT:      -8.3      1.874      2.375
REMARK  Name = 
REMARK  3 active torsions:
REMARK  status: ('A' for Active; 'I' for Inactive)
REMARK    1  A    between atoms: C_8  and  C_9
REMARK    2  A    between atoms: C_12  and  C_13
REMARK    3  A    between atoms: C_13  and  N_14
REMARK                            x       y       z     vdW  Elec       q    Type
REMARK                         _______ _______ _______ _____ _____    ______ ____
ROOT
ATOM      1  C   UNL     1       1.587   9.204  18.835  0.00  0.00    +0.000 A 
ATOM      2  C   UNL     1       2.122   8.584  17.708  0.00  0.00    +0.000 A 
ATOM      3  C   UNL     1       2.626   7.288  17.806  0.00  0.00    +0.000 A 
ATOM      4  C   UNL     1       2.577   6.614  19.026  0.00  0.00    +0.000 A 
ATOM      5  C   UNL     1       1.986   7.283  20.090  0.00  0.00    +0.000 A 
ATOM      6  N   UNL     1       1.504   8.548  20.021  0.00  0.00    +0.000 NA
ENDROOT
BRANCH   1  14
ATOM      7  F   UNL     1      -1.187   9.916  19.178  0.00  0.00    +0.000 F 
ATOM      8  C   UNL     1      -0.284  10.895  19.012  0.00  0.00    +0.000 A 
ATOM      9  C   UNL     1      -0.763  12.205  19.004  0.00  0.00    +0.000 A 
ATOM     10  C   UNL     1       0.124  13.254  18.806  0.00  0.00    +0.000 A 
ATOM     11 CL   UNL     1      -0.457  14.872  18.795  0.00  0.00    +0.000 Cl
ATOM     12  C   UNL     1       1.478  13.000  18.615  0.00  0.00    +0.000 A 
ATOM     13  C   UNL     1       1.947  11.681  18.624  0.00  0.00    +0.000 A 
ATOM     14  C   UNL     1       1.077  10.591  18.830  0.00  0.00    +0.000 A 
ENDBRANCH   1  14
BRANCH   4  15
ATOM     15  C   UNL     1       3.112   5.219  19.182  0.00  0.00    +0.000 C 
BRANCH  15  16
ATOM     16  N   UNL     1       4.516   5.146  18.830  0.00  0.00    +0.000 N 
ATOM     17  N   UNL     1       5.455   5.379  19.769  0.00  0.00    +0.000 NA
ATOM     18  N   UNL     1       6.640   5.198  19.200  0.00  0.00    +0.000 NA
ATOM     19  C   UNL     1       6.437   4.869  17.886  0.00  0.00    +0.000 A 
ATOM     20  C   UNL     1       7.350   4.564  16.868  0.00  0.00    +0.000 A 
ATOM     21  C   UNL     1       6.854   4.260  15.593  0.00  0.00    +0.000 A 
ATOM     22  C   UNL     1       5.481   4.274  15.336  0.00  0.00    +0.000 A 
ATOM     23  C   UNL     1       4.556   4.581  16.340  0.00  0.00    +0.000 A 
ATOM     24  C   UNL     1       5.073   4.859  17.611  0.00  0.00    +0.000 A 
ENDBRANCH  15  16
ENDBRANCH   4  15
TORSDOF 3
ENDMDL
MODEL 6
REMARK VINA RESULT:      -8.2      2.534      3.460
REMARK  Name = 
REMARK  3 active torsions:
REMARK  status: ('A' for Active; 'I' for Inactive)
REMARK    1  A    between atoms: C_8  and  C_9
REMARK    2  A    between atoms: C_12  and  C_13
REMARK    3  A    between atoms: C_13  and  N_14
REMARK                            x       y       z     vdW  Elec       q    Type
REMARK                         _______ _______ _______ _____ _____    ______ ____
ROOT
ATOM      1  C   UNL     1       0.916   9.249  20.198  0.00  0.00    +0.000 A 
ATOM      2  C   UNL     1       1.453   8.061  20.688  0.00  0.00    +0.000 A 
ATOM      3  C   UNL     1       2.251   7.271  19.862  0.00  0.00    +0.000 A 
ATOM      4  C   UNL     1       2.520   7.682  18.556  0.00  0.00    +0.000 A 
ATOM      5  C   UNL     1       1.987   8.901  18.159  0.00  0.00    +0.000 A 
ATOM      6  N   UNL     1       1.196   9.677  18.940  0.00  0.00    +0.000 NA
ENDROOT
BRANCH   1  14
ATOM      7  F   UNL     1       0.356   8.882  23.003  0.00  0.00    +0.000 F 
ATOM      8  C   UNL     1      -0.215   9.912  22.360  0.00  0.00    +0.000 A 
ATOM      9  C   UNL     1      -1.060  10.735  23.104  0.00  0.00    +0.000 A 
ATOM     10  C   UNL     1      -1.699  11.797  22.481  0.00  0.00    +0.000 A 
ATOM     11 CL   UNL     1      -2.744  12.817  23.389  0.00  0.00    +0.000 Cl
ATOM     12  C   UNL     1      -1.500  12.037  21.126  0.00  0.00    +0.000 A 
ATOM     13  C   UNL     1      -0.650  11.204  20.389  0.00  0.00    +0.000 A 
ATOM     14  C   UNL     1       0.022  10.121  20.990  0.00  0.00    +0.000 A 
ENDBRANCH   1  14
BRANCH   4  15
ATOM     15  C   UNL     1       3.370   6.862  17.628  0.00  0.00    +0.000 C 
BRANCH  15  16
ATOM     16  N   UNL     1       3.727   5.589  18.221  0.00  0.00    +0.000 N 
ATOM     17  N   UNL     1       4.973   5.399  18.700  0.00  0.00    +0.000 NA
ATOM     18  N   UNL     1       5.015   4.182  19.228  0.00  0.00    +0.000 NA
ATOM     19  C   UNL     1       3.788   3.601  19.057  0.00  0.00    +0.000 A 
ATOM     20  C   UNL     1       3.310   2.341  19.446  0.00  0.00    +0.000 A 
ATOM     21  C   UNL     1       1.987   2.002  19.134  0.00  0.00    +0.000 A 
ATOM     22  C   UNL     1       1.164   2.890  18.437  0.00  0.00    +0.000 A 
ATOM     23  C   UNL     1       1.626   4.150  18.038  0.00  0.00    +0.000 A 
ATOM     24  C   UNL     1       2.944   4.475  18.381  0.00  0.00    +0.000 A 
ENDBRANCH  15  16
ENDBRANCH   4  15
TORSDOF 3
ENDMDL
MODEL 7
REMARK VINA RESULT:      -8.2      1.954      2.680
REMARK  Name = 
REMARK  3 active torsions:
REMARK  status: ('A' for Active; 'I' for Inactive)
REMARK    1  A    between atoms: C_8  and  C_9
REMARK    2  A    between atoms: C_12  and  C_13
REMARK    3  A    between atoms: C_13  and  N_14
REMARK                            x       y       z     vdW  Elec       q    Type
REMARK                         _______ _______ _______ _____ _____    ______ ____
ROOT
ATOM      1  C   UNL     1       2.813   7.060  18.405  0.00  0.00    +0.000 A 
ATOM      2  C   UNL     1       3.932   7.416  17.655  0.00  0.00    +0.000 A 
ATOM      3  C   UNL     1       4.704   6.423  17.052  0.00  0.00    +0.000 A 
ATOM      4  C   UNL     1       4.342   5.083  17.188  0.00  0.00    +0.000 A 
ATOM      5  C   UNL     1       3.187   4.815  17.911  0.00  0.00    +0.000 A 
ATOM      6  N   UNL     1       2.432   5.762  18.519  0.00  0.00    +0.000 NA
ENDROOT
BRANCH   1  14
ATOM      7  F   UNL     1       1.742   9.453  17.203  0.00  0.00    +0.000 F 
ATOM      8  C   UNL     1       1.458   9.193  18.489  0.00  0.00    +0.000 A 
ATOM      9  C   UNL     1       0.665  10.120  19.164  0.00  0.00    +0.000 A 
ATOM     10  C   UNL     1       0.366   9.915  20.503  0.00  0.00    +0.000 A 
ATOM     11 CL   UNL     1      -0.611  11.053  21.344  0.00  0.00    +0.000 Cl
ATOM     12  C   UNL     1       0.857   8.796  21.167  0.00  0.00    +0.000 A 
ATOM     13  C   UNL     1       1.653   7.872  20.480  0.00  0.00    +0.000 A 
ATOM     14  C   UNL     1       1.970   8.044  19.116  0.00  0.00    +0.000 A 
ENDBRANCH   1  14
BRANCH   4  15
ATOM     15  C   UNL     1       5.145   3.980  16.560  0.00  0.00    +0.000 C 
BRANCH  15  16
ATOM     16  N   UNL     1       6.089   4.496  15.590  0.00  0.00    +0.000 N 
ATOM     17  N   UNL     1       7.058   5.346  15.983  0.00  0.00    +0.000 NA
ATOM     18  N   UNL     1       7.804   5.618  14.921  0.00  0.00    +0.000 NA
ATOM     19  C   UNL     1       7.282   4.945  13.849  0.00  0.00    +0.000 A 
ATOM     20  C   UNL     1       7.705   4.882  12.514  0.00  0.00    +0.000 A 
ATOM     21  C   UNL     1       6.967   4.102  11.614  0.00  0.00    +0.000 A 
ATOM     22  C   UNL     1       5.825   3.413  12.032  0.00  0.00    +0.000 A 
ATOM     23  C   UNL     1       5.387   3.468  13.360  0.00  0.00    +0.000 A 
ATOM     24  C   UNL     1       6.153   4.236  14.245  0.00  0.00    +0.000 A 
ENDBRANCH  15  16
ENDBRANCH   4  15
TORSDOF 3
ENDMDL
MODEL 8
REMARK VINA RESULT:      -8.2      1.272      1.441
REMARK  Name = 
REMARK  3 active torsions:
REMARK  status: ('A' for Active; 'I' for Inactive)
REMARK    1  A    between atoms: C_8  and  C_9
REMARK    2  A    between atoms: C_12  and  C_13
REMARK    3  A    between atoms: C_13  and  N_14
REMARK                            x       y       z     vdW  Elec       q    Type
REMARK                         _______ _______ _______ _____ _____    ______ ____
ROOT
ATOM      1  C   UNL     1       1.524   8.497  19.502  0.00  0.00    +0.000 A 
ATOM      2  C   UNL     1       2.275   8.141  18.383  0.00  0.00    +0.000 A 
ATOM      3  C   UNL     1       2.948   6.920  18.362  0.00  0.00    +0.000 A 
ATOM      4  C   UNL     1       2.853   6.056  19.453  0.00  0.00    +0.000 A 
ATOM      5  C   UNL     1       2.047   6.463  20.508  0.00  0.00    +0.000 A 
ATOM      6  N   UNL     1       1.397   7.651  20.556  0.00  0.00    +0.000 NA
ENDROOT
BRANCH   1  14
ATOM      7  F   UNL     1      -0.280   9.561  17.520  0.00  0.00    +0.000 F 
ATOM      8  C   UNL     1      -0.061  10.268  18.640  0.00  0.00    +0.000 A 
ATOM      9  C   UNL     1      -0.722  11.490  18.759  0.00  0.00    +0.000 A 
ATOM     10  C   UNL     1      -0.508  12.274  19.883  0.00  0.00    +0.000 A 
ATOM     11 CL   UNL     1      -1.319  13.782  20.040  0.00  0.00    +0.000 Cl
ATOM     12  C   UNL     1       0.360  11.845  20.881  0.00  0.00    +0.000 A 
ATOM     13  C   UNL     1       1.019  10.617  20.751  0.00  0.00    +0.000 A 
ATOM     14  C   UNL     1       0.820   9.790  19.626  0.00  0.00    +0.000 A 
ENDBRANCH   1  14
BRANCH   4  15
ATOM     15  C   UNL     1       3.564   4.733  19.477  0.00  0.00    +0.000 C 
BRANCH  15  16
ATOM     16  N   UNL     1       4.900   4.838  18.927  0.00  0.00    +0.000 N 
ATOM     17  N   UNL     1       5.934   5.157  19.731  0.00  0.00    +0.000 NA
ATOM     18  N   UNL     1       7.035   5.135  18.992  0.00  0.00    +0.000 NA
ATOM     19  C   UNL     1       6.681   4.818  17.708  0.00  0.00    +0.000 A 
ATOM     20  C   UNL     1       7.464   4.651  16.557  0.00  0.00    +0.000 A 
ATOM     21  C   UNL     1       6.825   4.322  15.355  0.00  0.00    +0.000 A 
ATOM     22  C   UNL     1       5.437   4.179  15.297  0.00  0.00    +0.000 A 
ATOM     23  C   UNL     1       4.639   4.346  16.435  0.00  0.00    +0.000 A 
ATOM     24  C   UNL     1       5.302   4.651  17.629  0.00  0.00    +0.000 A 
ENDBRANCH  15  16
ENDBRANCH   4  15
TORSDOF 3
ENDMDL
MODEL 9
REMARK VINA RESULT:      -8.2      2.118      2.988
REMARK  Name = 
REMARK  3 active torsions:
REMARK  status: ('A' for Active; 'I' for Inactive)
REMARK    1  A    between atoms: C_8  and  C_9
REMARK    2  A    between atoms: C_12  and  C_13
REMARK    3  A    between atoms: C_13  and  N_14
REMARK                            x       y       z     vdW  Elec       q    Type
REMARK                         _______ _______ _______ _____ _____    ______ ____
ROOT
ATOM      1  C   UNL     1       2.728   7.143  18.201  0.00  0.00    +0.000 A 
ATOM      2  C   UNL     1       3.886   7.465  17.497  0.00  0.00    +0.000 A 
ATOM      3  C   UNL     1       4.683   6.447  16.974  0.00  0.00    +0.000 A 
ATOM      4  C   UNL     1       4.307   5.115  17.144  0.00  0.00    +0.000 A 
ATOM      5  C   UNL     1       3.115   4.879  17.816  0.00  0.00    +0.000 A 
ATOM      6  N   UNL     1       2.334   5.852  18.346  0.00  0.00    +0.000 NA
ENDROOT
BRANCH   1  14
ATOM      7  F   UNL     1       1.945   7.121  20.976  0.00  0.00    +0.000 F 
ATOM      8  C   UNL     1       1.505   8.115  20.189  0.00  0.00    +0.000 A 
ATOM      9  C   UNL     1       0.679   9.072  20.777  0.00  0.00    +0.000 A 
ATOM     10  C   UNL     1       0.172  10.104  20.001  0.00  0.00    +0.000 A 
ATOM     11 CL   UNL     1      -0.848  11.289  20.716  0.00  0.00    +0.000 Cl
ATOM     12  C   UNL     1       0.484  10.182  18.648  0.00  0.00    +0.000 A 
ATOM     13  C   UNL     1       1.314   9.215  18.068  0.00  0.00    +0.000 A 
ATOM     14  C   UNL     1       1.854   8.157  18.828  0.00  0.00    +0.000 A 
ENDBRANCH   1  14
BRANCH   4  15
ATOM     15  C   UNL     1       5.136   3.984  16.603  0.00  0.00    +0.000 C 
BRANCH  15  16
ATOM     16  N   UNL     1       6.078   4.447  15.605  0.00  0.00    +0.000 N 
ATOM     17  N   UNL     1       7.088   5.265  15.963  0.00  0.00    +0.000 NA
ATOM     18  N   UNL     1       7.821   5.491  14.881  0.00  0.00    +0.000 NA
ATOM     19  C   UNL     1       7.250   4.822  13.832  0.00  0.00    +0.000 A 
ATOM     20  C   UNL     1       7.641   4.721  12.489  0.00  0.00    +0.000 A 
ATOM     21  C   UNL     1       6.854   3.957  11.619  0.00  0.00    +0.000 A 
ATOM     22  C   UNL     1       5.696   3.320  12.071  0.00  0.00    +0.000 A 
ATOM     23  C   UNL     1       5.288   3.414  13.407  0.00  0.00    +0.000 A 
ATOM     24  C   UNL     1       6.103   4.164  14.263  0.00  0.00    +0.000 A 
ENDBRANCH  15  16
ENDBRANCH   4  15
TORSDOF 3
ENDMDL
