MODEL 1
REMARK VINA RESULT:      -9.2      0.000      0.000
REMARK  Name = 
REMARK  6 active torsions:
REMARK  status: ('A' for Active; 'I' for Inactive)
REMARK    1  A    between atoms: N_4  and  S_5
REMARK    2  A    between atoms: S_5  and  C_8
REMARK    3  A    between atoms: C_11  and  N_12
REMARK    4  A    between atoms: N_12  and  C_13
REMARK    5  A    between atoms: C_14  and  C_15
REMARK    6  A    between atoms: C_15  and  C_17
REMARK                            x       y       z     vdW  Elec       q    Type
REMARK                         _______ _______ _______ _____ _____    ______ ____
ROOT
ATOM      1  C   UNL     1       1.061   9.559  19.918  0.00  0.00    +0.000 A 
ATOM      2  C   UNL     1       0.977   8.724  21.032  0.00  0.00    +0.000 A 
ATOM      3  C   UNL     1       1.536   7.444  20.974  0.00  0.00    +0.000 A 
ATOM      4  C   UNL     1       2.176   6.977  19.813  0.00  0.00    +0.000 A 
ATOM      5  C   UNL     1       2.226   7.825  18.701  0.00  0.00    +0.000 A 
ATOM      6  C   UNL     1       1.678   9.112  18.748  0.00  0.00    +0.000 A 
ENDROOT
BRANCH   1   7
ATOM      7  S   UNL     1       0.319  11.173  19.970  0.00  0.00    +0.000 S 
ATOM      8  O   UNL     1       1.382  12.154  20.012  0.00  0.00    +0.000 OA
ATOM      9  O   UNL     1      -0.736  11.156  20.969  0.00  0.00    +0.000 OA
BRANCH   7  13
ATOM     10  N   UNL     1      -1.872  11.961  16.919  0.00  0.00    +0.000 NA
ATOM     11  C   UNL     1      -1.223  12.251  17.978  0.00  0.00    +0.000 C 
ATOM     12  N   UNL     1      -1.264  13.419  18.636  0.00  0.00    +0.000 N 
ATOM     13  N   UNL     1      -0.390  11.277  18.477  0.00  0.00    +0.000 N 
ATOM     14  H   UNL     1      -2.465  12.749  16.662  0.00  0.00    +0.000 HD
ATOM     15  H   UNL     1      -1.626  14.213  18.125  0.00  0.00    +0.000 HD
ATOM     16  H   UNL     1      -0.408  13.644  19.143  0.00  0.00    +0.000 HD
ATOM     17  H   UNL     1      -0.331  10.423  17.928  0.00  0.00    +0.000 HD
ENDBRANCH   7  13
ENDBRANCH   1   7
BRANCH   4  18
ATOM     18  N   UNL     1       2.645   5.655  19.795  0.00  0.00    +0.000 N 
ATOM     19  H   UNL     1       3.156   5.344  20.625  0.00  0.00    +0.000 HD
BRANCH  18  20
ATOM     20  C   UNL     1       2.520   4.705  18.817  0.00  0.00    +0.000 C 
ATOM     21  C   UNL     1       3.470   4.245  17.987  0.00  0.00    +0.000 C 
BRANCH  21  22
ATOM     22  C   UNL     1       4.868   4.764  18.013  0.00  0.00    +0.000 C 
ATOM     23  O   UNL     1       5.399   5.079  19.080  0.00  0.00    +0.000 OA
BRANCH  22  24
ATOM     24  C   UNL     1       5.583   4.959  16.713  0.00  0.00    +0.000 A 
ATOM     25  C   UNL     1       5.202   4.159  15.702  0.00  0.00    +0.000 A 
ATOM     26  C   UNL     1       5.860   4.235  14.409  0.00  0.00    +0.000 A 
ATOM     27  C   UNL     1       5.400   3.540  13.289  0.00  0.00    +0.000 A 
ATOM     28  C   UNL     1       6.117   3.598  12.090  0.00  0.00    +0.000 A 
ATOM     29  C   UNL     1       7.305   4.328  12.011  0.00  0.00    +0.000 A 
ATOM     30  C   UNL     1       7.762   5.034  13.122  0.00  0.00    +0.000 A 
ATOM     31  C   UNL     1       7.019   4.997  14.299  0.00  0.00    +0.000 A 
ATOM     32  O   UNL     1       7.446   5.802  15.366  0.00  0.00    +0.000 OA
ATOM     33  C   UNL     1       6.633   5.977  16.483  0.00  0.00    +0.000 A 
ATOM     34  O   UNL     1       6.814   6.921  17.244  0.00  0.00    +0.000 OA
ENDBRANCH  22  24
ENDBRANCH  21  22
ENDBRANCH  18  20
ENDBRANCH   4  18
TORSDOF 6
ENDMDL
MODEL 2
REMARK VINA RESULT:      -9.2      1.368      1.488
REMARK  Name = 
REMARK  6 active torsions:
REMARK  status: ('A' for Active; 'I' for Inactive)
REMARK    1  A    between atoms: N_4  and  S_5
REMARK    2  A    between atoms: S_5  and  C_8
REMARK    3  A    between atoms: C_11  and  N_12
REMARK    4  A    between atoms: N_12  and  C_13
REMARK    5  A    between atoms: C_14  and  C_15
REMARK    6  A    between atoms: C_15  and  C_17
REMARK                            x       y       z     vdW  Elec       q    Type
REMARK                         _______ _______ _______ _____ _____    ______ ____
ROOT
ATOM      1  C   UNL     1       1.397   8.806  19.498  0.00  0.00    +0.000 A 
ATOM      2  C   UNL     1       1.266   8.088  20.687  0.00  0.00    +0.000 A 
ATOM      3  C   UNL     1       1.874   6.834  20.803  0.00  0.00    +0.000 A 
ATOM      4  C   UNL     1       2.610   6.278  19.743  0.00  0.00    +0.000 A 
ATOM      5  C   UNL     1       2.707   7.008  18.552  0.00  0.00    +0.000 A 
ATOM      6  C   UNL     1       2.110   8.267  18.426  0.00  0.00    +0.000 A 
ENDROOT
BRANCH   1   7
ATOM      7  S   UNL     1       0.595  10.382  19.329  0.00  0.00    +0.000 S 
ATOM      8  O   UNL     1       0.524  10.992  20.639  0.00  0.00    +0.000 OA
ATOM      9  O   UNL     1      -0.593  10.203  18.511  0.00  0.00    +0.000 OA
BRANCH   7  13
ATOM     10  N   UNL     1       2.618  13.040  17.437  0.00  0.00    +0.000 NA
ATOM     11  C   UNL     1       1.919  12.598  18.409  0.00  0.00    +0.000 C 
ATOM     12  N   UNL     1       1.395  13.330  19.403  0.00  0.00    +0.000 N 
ATOM     13  N   UNL     1       1.702  11.241  18.444  0.00  0.00    +0.000 N 
ATOM     14  H   UNL     1       2.690  14.054  17.509  0.00  0.00    +0.000 HD
ATOM     15  H   UNL     1       1.790  14.249  19.544  0.00  0.00    +0.000 HD
ATOM     16  H   UNL     1       1.278  12.821  20.280  0.00  0.00    +0.000 HD
ATOM     17  H   UNL     1       2.159  10.701  17.713  0.00  0.00    +0.000 HD
ENDBRANCH   7  13
ENDBRANCH   1   7
BRANCH   4  18
ATOM     18  N   UNL     1       3.127   4.983  19.896  0.00  0.00    +0.000 N 
ATOM     19  H   UNL     1       3.576   4.778  20.793  0.00  0.00    +0.000 HD
BRANCH  18  20
ATOM     20  C   UNL     1       3.121   3.937  19.013  0.00  0.00    +0.000 C 
ATOM     21  C   UNL     1       4.117   3.528  18.213  0.00  0.00    +0.000 C 
BRANCH  21  22
ATOM     22  C   UNL     1       5.437   4.222  18.166  0.00  0.00    +0.000 C 
ATOM     23  O   UNL     1       6.018   4.531  19.208  0.00  0.00    +0.000 OA
BRANCH  22  24
ATOM     24  C   UNL     1       6.003   4.596  16.832  0.00  0.00    +0.000 A 
ATOM     25  C   UNL     1       5.608   3.843  15.790  0.00  0.00    +0.000 A 
ATOM     26  C   UNL     1       6.130   4.093  14.456  0.00  0.00    +0.000 A 
ATOM     27  C   UNL     1       5.636   3.444  13.323  0.00  0.00    +0.000 A 
ATOM     28  C   UNL     1       6.226   3.674  12.076  0.00  0.00    +0.000 A 
ATOM     29  C   UNL     1       7.323   4.531  11.961  0.00  0.00    +0.000 A 
ATOM     30  C   UNL     1       7.812   5.191  13.088  0.00  0.00    +0.000 A 
ATOM     31  C   UNL     1       7.191   4.980  14.316  0.00  0.00    +0.000 A 
ATOM     32  O   UNL     1       7.635   5.738  15.410  0.00  0.00    +0.000 OA
ATOM     33  C   UNL     1       6.919   5.735  16.605  0.00  0.00    +0.000 A 
ATOM     34  O   UNL     1       7.077   6.629  17.428  0.00  0.00    +0.000 OA
ENDBRANCH  22  24
ENDBRANCH  21  22
ENDBRANCH  18  20
ENDBRANCH   4  18
TORSDOF 6
ENDMDL
MODEL 3
REMARK VINA RESULT:      -9.2      0.815      1.235
REMARK  Name = 
REMARK  6 active torsions:
REMARK  status: ('A' for Active; 'I' for Inactive)
REMARK    1  A    between atoms: N_4  and  S_5
REMARK    2  A    between atoms: S_5  and  C_8
REMARK    3  A    between atoms: C_11  and  N_12
REMARK    4  A    between atoms: N_12  and  C_13
REMARK    5  A    between atoms: C_14  and  C_15
REMARK    6  A    between atoms: C_15  and  C_17
REMARK                            x       y       z     vdW  Elec       q    Type
REMARK                         _______ _______ _______ _____ _____    ______ ____
ROOT
ATOM      1  C   UNL     1       1.090   9.799  19.405  0.00  0.00    +0.000 A 
ATOM      2  C   UNL     1       1.637   9.750  18.123  0.00  0.00    +0.000 A 
ATOM      3  C   UNL     1       2.320   8.601  17.712  0.00  0.00    +0.000 A 
ATOM      4  C   UNL     1       2.473   7.496  18.566  0.00  0.00    +0.000 A 
ATOM      5  C   UNL     1       1.935   7.580  19.856  0.00  0.00    +0.000 A 
ATOM      6  C   UNL     1       1.242   8.720  20.277  0.00  0.00    +0.000 A 
ENDROOT
BRANCH   1   7
ATOM      7  S   UNL     1       0.254  11.270  19.948  0.00  0.00    +0.000 S 
ATOM      8  O   UNL     1       1.094  12.406  19.634  0.00  0.00    +0.000 OA
ATOM      9  O   UNL     1      -0.238  11.042  21.296  0.00  0.00    +0.000 OA
BRANCH   7  13
ATOM     10  N   UNL     1      -3.134  11.848  18.240  0.00  0.00    +0.000 NA
ATOM     11  C   UNL     1      -2.118  12.190  18.932  0.00  0.00    +0.000 C 
ATOM     12  N   UNL     1      -1.991  13.321  19.643  0.00  0.00    +0.000 N 
ATOM     13  N   UNL     1      -1.051  11.324  18.929  0.00  0.00    +0.000 N 
ATOM     14  H   UNL     1      -3.862  12.556  18.338  0.00  0.00    +0.000 HD
ATOM     15  H   UNL     1      -2.625  14.073  19.414  0.00  0.00    +0.000 HD
ATOM     16  H   UNL     1      -1.028  13.643  19.745  0.00  0.00    +0.000 HD
ATOM     17  H   UNL     1      -1.149  10.504  18.335  0.00  0.00    +0.000 HD
ENDBRANCH   7  13
ENDBRANCH   1   7
BRANCH   4  18
ATOM     18  N   UNL     1       3.237   6.407  18.120  0.00  0.00    +0.000 N 
ATOM     19  H   UNL     1       4.153   6.629  17.721  0.00  0.00    +0.000 HD
BRANCH  18  20
ATOM     20  C   UNL     1       2.935   5.072  18.139  0.00  0.00    +0.000 C 
ATOM     21  C   UNL     1       3.786   4.034  18.125  0.00  0.00    +0.000 C 
BRANCH  21  22
ATOM     22  C   UNL     1       5.265   4.218  18.060  0.00  0.00    +0.000 C 
ATOM     23  O   UNL     1       5.953   4.118  19.078  0.00  0.00    +0.000 OA
BRANCH  22  24
ATOM     24  C   UNL     1       5.883   4.594  16.751  0.00  0.00    +0.000 A 
ATOM     25  C   UNL     1       5.551   3.827  15.698  0.00  0.00    +0.000 A 
ATOM     26  C   UNL     1       6.127   4.078  14.387  0.00  0.00    +0.000 A 
ATOM     27  C   UNL     1       5.698   3.412  13.238  0.00  0.00    +0.000 A 
ATOM     28  C   UNL     1       6.339   3.646  12.017  0.00  0.00    +0.000 A 
ATOM     29  C   UNL     1       7.424   4.523  11.945  0.00  0.00    +0.000 A 
ATOM     30  C   UNL     1       7.848   5.200  13.087  0.00  0.00    +0.000 A 
ATOM     31  C   UNL     1       7.176   4.985  14.288  0.00  0.00    +0.000 A 
ATOM     32  O   UNL     1       7.556   5.760  15.395  0.00  0.00    +0.000 OA
ATOM     33  C   UNL     1       6.786   5.750  16.556  0.00  0.00    +0.000 A 
ATOM     34  O   UNL     1       6.889   6.653  17.379  0.00  0.00    +0.000 OA
ENDBRANCH  22  24
ENDBRANCH  21  22
ENDBRANCH  18  20
ENDBRANCH   4  18
TORSDOF 6
ENDMDL
MODEL 4
REMARK VINA RESULT:      -9.2      2.502      3.312
REMARK  Name = 
REMARK  6 active torsions:
REMARK  status: ('A' for Active; 'I' for Inactive)
REMARK    1  A    between atoms: N_4  and  S_5
REMARK    2  A    between atoms: S_5  and  C_8
REMARK    3  A    between atoms: C_11  and  N_12
REMARK    4  A    between atoms: N_12  and  C_13
REMARK    5  A    between atoms: C_14  and  C_15
REMARK    6  A    between atoms: C_15  and  C_17
REMARK                            x       y       z     vdW  Elec       q    Type
REMARK                         _______ _______ _______ _____ _____    ______ ____
ROOT
ATOM      1  C   UNL     1       1.369   9.654  19.577  0.00  0.00    +0.000 A 
ATOM      2  C   UNL     1       0.915   9.231  20.826  0.00  0.00    +0.000 A 
ATOM      3  C   UNL     1       1.134   7.909  21.224  0.00  0.00    +0.000 A 
ATOM      4  C   UNL     1       1.797   6.994  20.390  0.00  0.00    +0.000 A 
ATOM      5  C   UNL     1       2.224   7.437  19.132  0.00  0.00    +0.000 A 
ATOM      6  C   UNL     1       2.018   8.760  18.724  0.00  0.00    +0.000 A 
ENDROOT
BRANCH   1   7
ATOM      7  S   UNL     1       1.061  11.322  19.048  0.00  0.00    +0.000 S 
ATOM      8  O   UNL     1       2.058  11.670  18.057  0.00  0.00    +0.000 OA
ATOM      9  O   UNL     1       0.848  12.142  20.228  0.00  0.00    +0.000 OA
BRANCH   7  13
ATOM     10  N   UNL     1      -2.426  11.791  17.514  0.00  0.00    +0.000 NA
ATOM     11  C   UNL     1      -1.244  12.158  17.824  0.00  0.00    +0.000 C 
ATOM     12  N   UNL     1      -0.757  13.406  17.748  0.00  0.00    +0.000 N 
ATOM     13  N   UNL     1      -0.388  11.173  18.259  0.00  0.00    +0.000 N 
ATOM     14  H   UNL     1      -2.967  12.607  17.229  0.00  0.00    +0.000 HD
ATOM     15  H   UNL     1      -1.266  14.055  17.164  0.00  0.00    +0.000 HD
ATOM     16  H   UNL     1       0.250  13.452  17.590  0.00  0.00    +0.000 HD
ATOM     17  H   UNL     1      -0.762  10.228  18.251  0.00  0.00    +0.000 HD
ENDBRANCH   7  13
ENDBRANCH   1   7
BRANCH   4  18
ATOM     18  N   UNL     1       1.915   5.663  20.817  0.00  0.00    +0.000 N 
ATOM     19  H   UNL     1       2.657   5.468  21.494  0.00  0.00    +0.000 HD
BRANCH  18  20
ATOM     20  C   UNL     1       1.173   4.569  20.457  0.00  0.00    +0.000 C 
ATOM     21  C   UNL     1       1.617   3.371  20.049  0.00  0.00    +0.000 C 
BRANCH  21  22
ATOM     22  C   UNL     1       3.071   3.067  19.903  0.00  0.00    +0.000 C 
ATOM     23  O   UNL     1       3.586   2.150  20.547  0.00  0.00    +0.000 OA
BRANCH  22  24
ATOM     24  C   UNL     1       3.900   3.942  19.017  0.00  0.00    +0.000 A 
ATOM     25  C   UNL     1       5.035   4.422  19.554  0.00  0.00    +0.000 A 
ATOM     26  C   UNL     1       5.894   5.316  18.795  0.00  0.00    +0.000 A 
ATOM     27  C   UNL     1       7.152   5.714  19.249  0.00  0.00    +0.000 A 
ATOM     28  C   UNL     1       7.903   6.631  18.507  0.00  0.00    +0.000 A 
ATOM     29  C   UNL     1       7.390   7.172  17.325  0.00  0.00    +0.000 A 
ATOM     30  C   UNL     1       6.139   6.768  16.861  0.00  0.00    +0.000 A 
ATOM     31  C   UNL     1       5.420   5.826  17.592  0.00  0.00    +0.000 A 
ATOM     32  O   UNL     1       4.214   5.359  17.046  0.00  0.00    +0.000 OA
ATOM     33  C   UNL     1       3.561   4.268  17.614  0.00  0.00    +0.000 A 
ATOM     34  O   UNL     1       2.727   3.638  16.973  0.00  0.00    +0.000 OA
ENDBRANCH  22  24
ENDBRANCH  21  22
ENDBRANCH  18  20
ENDBRANCH   4  18
TORSDOF 6
ENDMDL
MODEL 5
REMARK VINA RESULT:      -9.1      4.227      8.667
REMARK  Name = 
REMARK  6 active torsions:
REMARK  status: ('A' for Active; 'I' for Inactive)
REMARK    1  A    between atoms: N_4  and  S_5
REMARK    2  A    between atoms: S_5  and  C_8
REMARK    3  A    between atoms: C_11  and  N_12
REMARK    4  A    between atoms: N_12  and  C_13
REMARK    5  A    between atoms: C_14  and  C_15
REMARK    6  A    between atoms: C_15  and  C_17
REMARK                            x       y       z     vdW  Elec       q    Type
REMARK                         _______ _______ _______ _____ _____    ______ ____
ROOT
ATOM      1  C   UNL     1       5.535   4.271  17.210  0.00  0.00    +0.000 A 
ATOM      2  C   UNL     1       4.383   3.857  16.541  0.00  0.00    +0.000 A 
ATOM      3  C   UNL     1       3.322   3.315  17.273  0.00  0.00    +0.000 A 
ATOM      4  C   UNL     1       3.394   3.171  18.668  0.00  0.00    +0.000 A 
ATOM      5  C   UNL     1       4.570   3.573  19.313  0.00  0.00    +0.000 A 
ATOM      6  C   UNL     1       5.636   4.124  18.595  0.00  0.00    +0.000 A 
ENDROOT
BRANCH   1   7
ATOM      7  S   UNL     1       6.903   4.925  16.284  0.00  0.00    +0.000 S 
ATOM      8  O   UNL     1       8.126   4.432  16.881  0.00  0.00    +0.000 OA
ATOM      9  O   UNL     1       6.678   6.347  16.083  0.00  0.00    +0.000 OA
BRANCH   7  13
ATOM     10  N   UNL     1       6.605   3.976  12.577  0.00  0.00    +0.000 NA
ATOM     11  C   UNL     1       7.112   4.592  13.572  0.00  0.00    +0.000 C 
ATOM     12  N   UNL     1       7.997   5.599  13.512  0.00  0.00    +0.000 N 
ATOM     13  N   UNL     1       6.726   4.167  14.822  0.00  0.00    +0.000 N 
ATOM     14  H   UNL     1       6.949   4.393  11.713  0.00  0.00    +0.000 HD
ATOM     15  H   UNL     1       8.496   5.711  12.641  0.00  0.00    +0.000 HD
ATOM     16  H   UNL     1       8.613   5.663  14.322  0.00  0.00    +0.000 HD
ATOM     17  H   UNL     1       6.102   3.365  14.842  0.00  0.00    +0.000 HD
ENDBRANCH   7  13
ENDBRANCH   1   7
BRANCH   4  18
ATOM     18  N   UNL     1       2.327   2.548  19.331  0.00  0.00    +0.000 N 
ATOM     19  H   UNL     1       2.511   1.614  19.708  0.00  0.00    +0.000 HD
BRANCH  18  20
ATOM     20  C   UNL     1       1.056   3.008  19.554  0.00  0.00    +0.000 C 
ATOM     21  C   UNL     1       0.685   4.116  20.214  0.00  0.00    +0.000 C 
BRANCH  21  22
ATOM     22  C   UNL     1       1.675   5.033  20.850  0.00  0.00    +0.000 C 
ATOM     23  O   UNL     1       2.502   4.599  21.654  0.00  0.00    +0.000 OA
BRANCH  22  24
ATOM     24  C   UNL     1       1.595   6.496  20.546  0.00  0.00    +0.000 A 
ATOM     25  C   UNL     1       0.874   7.240  21.404  0.00  0.00    +0.000 A 
ATOM     26  C   UNL     1       0.696   8.665  21.180  0.00  0.00    +0.000 A 
ATOM     27  C   UNL     1       0.091   9.503  22.118  0.00  0.00    +0.000 A 
ATOM     28  C   UNL     1      -0.115  10.853  21.816  0.00  0.00    +0.000 A 
ATOM     29  C   UNL     1       0.258  11.362  20.570  0.00  0.00    +0.000 A 
ATOM     30  C   UNL     1       0.873  10.533  19.634  0.00  0.00    +0.000 A 
ATOM     31  C   UNL     1       1.105   9.200  19.963  0.00  0.00    +0.000 A 
ATOM     32  O   UNL     1       1.822   8.416  19.045  0.00  0.00    +0.000 OA
ATOM     33  C   UNL     1       2.273   7.149  19.405  0.00  0.00    +0.000 A 
ATOM     34  O   UNL     1       3.173   6.606  18.774  0.00  0.00    +0.000 OA
ENDBRANCH  22  24
ENDBRANCH  21  22
ENDBRANCH  18  20
ENDBRANCH   4  18
TORSDOF 6
ENDMDL
MODEL 6
REMARK VINA RESULT:      -9.0      2.753      3.413
REMARK  Name = 
REMARK  6 active torsions:
REMARK  status: ('A' for Active; 'I' for Inactive)
REMARK    1  A    between atoms: N_4  and  S_5
REMARK    2  A    between atoms: S_5  and  C_8
REMARK    3  A    between atoms: C_11  and  N_12
REMARK    4  A    between atoms: N_12  and  C_13
REMARK    5  A    between atoms: C_14  and  C_15
REMARK    6  A    between atoms: C_15  and  C_17
REMARK                            x       y       z     vdW  Elec       q    Type
REMARK                         _______ _______ _______ _____ _____    ______ ____
ROOT
ATOM      1  C   UNL     1       1.194   9.711  19.653  0.00  0.00    +0.000 A 
ATOM      2  C   UNL     1       1.830   8.875  18.737  0.00  0.00    +0.000 A 
ATOM      3  C   UNL     1       2.086   7.544  19.083  0.00  0.00    +0.000 A 
ATOM      4  C   UNL     1       1.721   7.033  20.340  0.00  0.00    +0.000 A 
ATOM      5  C   UNL     1       1.105   7.899  21.251  0.00  0.00    +0.000 A 
ATOM      6  C   UNL     1       0.836   9.230  20.914  0.00  0.00    +0.000 A 
ENDROOT
BRANCH   1   7
ATOM      7  S   UNL     1       0.900  11.413  19.236  0.00  0.00    +0.000 S 
ATOM      8  O   UNL     1       2.004  11.872  18.421  0.00  0.00    +0.000 OA
ATOM      9  O   UNL     1       0.507  12.117  20.444  0.00  0.00    +0.000 OA
BRANCH   7  13
ATOM     10  N   UNL     1      -2.413  11.899  17.360  0.00  0.00    +0.000 NA
ATOM     11  C   UNL     1      -1.314  12.287  17.878  0.00  0.00    +0.000 C 
ATOM     12  N   UNL     1      -0.937  13.560  18.073  0.00  0.00    +0.000 N 
ATOM     13  N   UNL     1      -0.428  11.304  18.251  0.00  0.00    +0.000 N 
ATOM     14  H   UNL     1      -2.989  12.712  17.146  0.00  0.00    +0.000 HD
ATOM     15  H   UNL     1      -1.432  14.264  17.544  0.00  0.00    +0.000 HD
ATOM     16  H   UNL     1       0.073  13.704  18.058  0.00  0.00    +0.000 HD
ATOM     17  H   UNL     1      -0.711  10.350  18.038  0.00  0.00    +0.000 HD
ENDBRANCH   7  13
ENDBRANCH   1   7
BRANCH   4  18
ATOM     18  N   UNL     1       2.077   5.713  20.653  0.00  0.00    +0.000 N 
ATOM     19  H   UNL     1       3.053   5.558  20.918  0.00  0.00    +0.000 HD
BRANCH  18  20
ATOM     20  C   UNL     1       1.302   4.584  20.657  0.00  0.00    +0.000 C 
ATOM     21  C   UNL     1       1.265   3.606  19.739  0.00  0.00    +0.000 C 
BRANCH  21  22
ATOM     22  C   UNL     1       2.103   3.640  18.506  0.00  0.00    +0.000 C 
ATOM     23  O   UNL     1       1.656   3.225  17.434  0.00  0.00    +0.000 OA
BRANCH  22  24
ATOM     24  C   UNL     1       3.516   4.120  18.612  0.00  0.00    +0.000 A 
ATOM     25  C   UNL     1       3.814   5.237  17.926  0.00  0.00    +0.000 A 
ATOM     26  C   UNL     1       5.168   5.768  17.926  0.00  0.00    +0.000 A 
ATOM     27  C   UNL     1       5.491   7.002  17.359  0.00  0.00    +0.000 A 
ATOM     28  C   UNL     1       6.823   7.427  17.328  0.00  0.00    +0.000 A 
ATOM     29  C   UNL     1       7.836   6.612  17.837  0.00  0.00    +0.000 A 
ATOM     30  C   UNL     1       7.518   5.384  18.415  0.00  0.00    +0.000 A 
ATOM     31  C   UNL     1       6.183   4.991  18.472  0.00  0.00    +0.000 A 
ATOM     32  O   UNL     1       5.882   3.802  19.154  0.00  0.00    +0.000 OA
ATOM     33  C   UNL     1       4.560   3.468  19.435  0.00  0.00    +0.000 A 
ATOM     34  O   UNL     1       4.296   2.648  20.306  0.00  0.00    +0.000 OA
ENDBRANCH  22  24
ENDBRANCH  21  22
ENDBRANCH  18  20
ENDBRANCH   4  18
TORSDOF 6
ENDMDL
MODEL 7
REMARK VINA RESULT:      -8.8      2.049      3.067
REMARK  Name = 
REMARK  6 active torsions:
REMARK  status: ('A' for Active; 'I' for Inactive)
REMARK    1  A    between atoms: N_4  and  S_5
REMARK    2  A    between atoms: S_5  and  C_8
REMARK    3  A    between atoms: C_11  and  N_12
REMARK    4  A    between atoms: N_12  and  C_13
REMARK    5  A    between atoms: C_14  and  C_15
REMARK    6  A    between atoms: C_15  and  C_17
REMARK                            x       y       z     vdW  Elec       q    Type
REMARK                         _______ _______ _______ _____ _____    ______ ____
ROOT
ATOM      1  C   UNL     1       1.204   9.412  19.530  0.00  0.00    +0.000 A 
ATOM      2  C   UNL     1       0.935   8.861  20.782  0.00  0.00    +0.000 A 
ATOM      3  C   UNL     1       1.417   7.584  21.087  0.00  0.00    +0.000 A 
ATOM      4  C   UNL     1       2.161   6.841  20.155  0.00  0.00    +0.000 A 
ATOM      5  C   UNL     1       2.396   7.407  18.897  0.00  0.00    +0.000 A 
ATOM      6  C   UNL     1       1.927   8.687  18.581  0.00  0.00    +0.000 A 
ENDROOT
BRANCH   1   7
ATOM      7  S   UNL     1       0.563  11.018  19.120  0.00  0.00    +0.000 S 
ATOM      8  O   UNL     1       1.642  11.802  18.559  0.00  0.00    +0.000 OA
ATOM      9  O   UNL     1      -0.214  11.500  20.250  0.00  0.00    +0.000 OA
BRANCH   7  13
ATOM     10  N   UNL     1      -2.314  10.891  16.583  0.00  0.00    +0.000 NA
ATOM     11  C   UNL     1      -1.436  11.474  17.302  0.00  0.00    +0.000 C 
ATOM     12  N   UNL     1      -1.342  12.794  17.522  0.00  0.00    +0.000 N 
ATOM     13  N   UNL     1      -0.487  10.668  17.888  0.00  0.00    +0.000 N 
ATOM     14  H   UNL     1      -2.969  11.586  16.224  0.00  0.00    +0.000 HD
ATOM     15  H   UNL     1      -1.833  13.396  16.875  0.00  0.00    +0.000 HD
ATOM     16  H   UNL     1      -0.394  13.119  17.711  0.00  0.00    +0.000 HD
ATOM     17  H   UNL     1      -0.544   9.680  17.657  0.00  0.00    +0.000 HD
ENDBRANCH   7  13
ENDBRANCH   1   7
BRANCH   4  18
ATOM     18  N   UNL     1       2.546   5.536  20.496  0.00  0.00    +0.000 N 
ATOM     19  H   UNL     1       3.537   5.310  20.374  0.00  0.00    +0.000 HD
BRANCH  18  20
ATOM     20  C   UNL     1       1.784   4.504  20.975  0.00  0.00    +0.000 C 
ATOM     21  C   UNL     1       2.109   3.204  21.049  0.00  0.00    +0.000 C 
BRANCH  21  22
ATOM     22  C   UNL     1       3.420   2.683  20.564  0.00  0.00    +0.000 C 
ATOM     23  O   UNL     1       4.124   1.985  21.297  0.00  0.00    +0.000 OA
BRANCH  22  24
ATOM     24  C   UNL     1       3.891   3.082  19.202  0.00  0.00    +0.000 A 
ATOM     25  C   UNL     1       5.042   3.775  19.153  0.00  0.00    +0.000 A 
ATOM     26  C   UNL     1       5.568   4.249  17.884  0.00  0.00    +0.000 A 
ATOM     27  C   UNL     1       6.830   4.834  17.765  0.00  0.00    +0.000 A 
ATOM     28  C   UNL     1       7.253   5.334  16.530  0.00  0.00    +0.000 A 
ATOM     29  C   UNL     1       6.409   5.275  15.418  0.00  0.00    +0.000 A 
ATOM     30  C   UNL     1       5.153   4.681  15.528  0.00  0.00    +0.000 A 
ATOM     31  C   UNL     1       4.761   4.154  16.756  0.00  0.00    +0.000 A 
ATOM     32  O   UNL     1       3.538   3.468  16.810  0.00  0.00    +0.000 OA
ATOM     33  C   UNL     1       3.193   2.735  17.943  0.00  0.00    +0.000 A 
ATOM     34  O   UNL     1       2.328   1.869  17.885  0.00  0.00    +0.000 OA
ENDBRANCH  22  24
ENDBRANCH  21  22
ENDBRANCH  18  20
ENDBRANCH   4  18
TORSDOF 6
ENDMDL
MODEL 8
REMARK VINA RESULT:      -8.8      2.762      3.295
REMARK  Name = 
REMARK  6 active torsions:
REMARK  status: ('A' for Active; 'I' for Inactive)
REMARK    1  A    between atoms: N_4  and  S_5
REMARK    2  A    between atoms: S_5  and  C_8
REMARK    3  A    between atoms: C_11  and  N_12
REMARK    4  A    between atoms: N_12  and  C_13
REMARK    5  A    between atoms: C_14  and  C_15
REMARK    6  A    between atoms: C_15  and  C_17
REMARK                            x       y       z     vdW  Elec       q    Type
REMARK                         _______ _______ _______ _____ _____    ______ ____
ROOT
ATOM      1  C   UNL     1       0.648   9.874  19.814  0.00  0.00    +0.000 A 
ATOM      2  C   UNL     1       0.279   9.220  20.989  0.00  0.00    +0.000 A 
ATOM      3  C   UNL     1       0.759   7.930  21.238  0.00  0.00    +0.000 A 
ATOM      4  C   UNL     1       1.600   7.274  20.324  0.00  0.00    +0.000 A 
ATOM      5  C   UNL     1       1.938   7.943  19.140  0.00  0.00    +0.000 A 
ATOM      6  C   UNL     1       1.471   9.237  18.883  0.00  0.00    +0.000 A 
ENDROOT
BRANCH   1   7
ATOM      7  S   UNL     1       0.013  11.497  19.473  0.00  0.00    +0.000 S 
ATOM      8  O   UNL     1       1.134  12.406  19.370  0.00  0.00    +0.000 OA
ATOM      9  O   UNL     1      -1.089  11.755  20.384  0.00  0.00    +0.000 OA
BRANCH   7  13
ATOM     10  N   UNL     1      -2.206  11.085  16.368  0.00  0.00    +0.000 NA
ATOM     11  C   UNL     1      -1.882  11.586  17.496  0.00  0.00    +0.000 C 
ATOM     12  N   UNL     1      -2.656  12.367  18.265  0.00  0.00    +0.000 N 
ATOM     13  N   UNL     1      -0.614  11.312  17.951  0.00  0.00    +0.000 N 
ATOM     14  H   UNL     1      -3.169  11.339  16.151  0.00  0.00    +0.000 HD
ATOM     15  H   UNL     1      -3.446  12.805  17.813  0.00  0.00    +0.000 HD
ATOM     16  H   UNL     1      -2.136  13.019  18.854  0.00  0.00    +0.000 HD
ATOM     17  H   UNL     1      -0.027  10.768  17.323  0.00  0.00    +0.000 HD
ENDBRANCH   7  13
ENDBRANCH   1   7
BRANCH   4  18
ATOM     18  N   UNL     1       1.982   5.953  20.596  0.00  0.00    +0.000 N 
ATOM     19  H   UNL     1       2.971   5.801  20.811  0.00  0.00    +0.000 HD
BRANCH  18  20
ATOM     20  C   UNL     1       1.217   4.817  20.617  0.00  0.00    +0.000 C 
ATOM     21  C   UNL     1       1.178   3.832  19.707  0.00  0.00    +0.000 C 
BRANCH  21  22
ATOM     22  C   UNL     1       2.001   3.864  18.463  0.00  0.00    +0.000 C 
ATOM     23  O   UNL     1       1.522   3.503  17.386  0.00  0.00    +0.000 OA
BRANCH  22  24
ATOM     24  C   UNL     1       3.436   4.276  18.564  0.00  0.00    +0.000 A 
ATOM     25  C   UNL     1       3.781   5.389  17.892  0.00  0.00    +0.000 A 
ATOM     26  C   UNL     1       5.158   5.855  17.887  0.00  0.00    +0.000 A 
ATOM     27  C   UNL     1       5.534   7.081  17.337  0.00  0.00    +0.000 A 
ATOM     28  C   UNL     1       6.884   7.443  17.300  0.00  0.00    +0.000 A 
ATOM     29  C   UNL     1       7.862   6.573  17.787  0.00  0.00    +0.000 A 
ATOM     30  C   UNL     1       7.491   5.353  18.349  0.00  0.00    +0.000 A 
ATOM     31  C   UNL     1       6.140   5.022  18.412  0.00  0.00    +0.000 A 
ATOM     32  O   UNL     1       5.789   3.838  19.079  0.00  0.00    +0.000 OA
ATOM     33  C   UNL     1       4.454   3.563  19.366  0.00  0.00    +0.000 A 
ATOM     34  O   UNL     1       4.160   2.742  20.228  0.00  0.00    +0.000 OA
ENDBRANCH  22  24
ENDBRANCH  21  22
ENDBRANCH  18  20
ENDBRANCH   4  18
TORSDOF 6
ENDMDL
MODEL 9
REMARK VINA RESULT:      -8.8      1.254      1.383
REMARK  Name = 
REMARK  6 active torsions:
REMARK  status: ('A' for Active; 'I' for Inactive)
REMARK    1  A    between atoms: N_4  and  S_5
REMARK    2  A    between atoms: S_5  and  C_8
REMARK    3  A    between atoms: C_11  and  N_12
REMARK    4  A    between atoms: N_12  and  C_13
REMARK    5  A    between atoms: C_14  and  C_15
REMARK    6  A    between atoms: C_15  and  C_17
REMARK                            x       y       z     vdW  Elec       q    Type
REMARK                         _______ _______ _______ _____ _____    ______ ____
ROOT
ATOM      1  C   UNL     1       0.917   9.721  19.530  0.00  0.00    +0.000 A 
ATOM      2  C   UNL     1       1.219   8.651  20.372  0.00  0.00    +0.000 A 
ATOM      3  C   UNL     1       2.037   7.619  19.903  0.00  0.00    +0.000 A 
ATOM      4  C   UNL     1       2.556   7.632  18.597  0.00  0.00    +0.000 A 
ATOM      5  C   UNL     1       2.218   8.706  17.764  0.00  0.00    +0.000 A 
ATOM      6  C   UNL     1       1.408   9.750  18.223  0.00  0.00    +0.000 A 
ENDROOT
BRANCH   1   7
ATOM      7  S   UNL     1      -0.153  11.018  20.105  0.00  0.00    +0.000 S 
ATOM      8  O   UNL     1      -0.106  11.030  21.551  0.00  0.00    +0.000 OA
ATOM      9  O   UNL     1      -1.414  10.919  19.389  0.00  0.00    +0.000 OA
BRANCH   7  13
ATOM     10  N   UNL     1       0.867  14.519  18.907  0.00  0.00    +0.000 NA
ATOM     11  C   UNL     1       0.236  13.691  19.644  0.00  0.00    +0.000 C 
ATOM     12  N   UNL     1      -0.761  13.988  20.491  0.00  0.00    +0.000 N 
ATOM     13  N   UNL     1       0.632  12.376  19.573  0.00  0.00    +0.000 N 
ATOM     14  H   UNL     1       0.470  15.450  19.031  0.00  0.00    +0.000 HD
ATOM     15  H   UNL     1      -0.850  14.956  20.764  0.00  0.00    +0.000 HD
ATOM     16  H   UNL     1      -0.835  13.353  21.288  0.00  0.00    +0.000 HD
ATOM     17  H   UNL     1       1.429  12.187  18.970  0.00  0.00    +0.000 HD
ENDBRANCH   7  13
ENDBRANCH   1   7
BRANCH   4  18
ATOM     18  N   UNL     1       3.304   6.528  18.164  0.00  0.00    +0.000 N 
ATOM     19  H   UNL     1       4.237   6.729  17.793  0.00  0.00    +0.000 HD
BRANCH  18  20
ATOM     20  C   UNL     1       2.968   5.200  18.163  0.00  0.00    +0.000 C 
ATOM     21  C   UNL     1       3.792   4.141  18.127  0.00  0.00    +0.000 C 
BRANCH  21  22
ATOM     22  C   UNL     1       5.275   4.289  18.055  0.00  0.00    +0.000 C 
ATOM     23  O   UNL     1       5.965   4.175  19.071  0.00  0.00    +0.000 OA
BRANCH  22  24
ATOM     24  C   UNL     1       5.897   4.646  16.742  0.00  0.00    +0.000 A 
ATOM     25  C   UNL     1       5.528   3.895  15.690  0.00  0.00    +0.000 A 
ATOM     26  C   UNL     1       6.104   4.128  14.375  0.00  0.00    +0.000 A 
ATOM     27  C   UNL     1       5.642   3.482  13.227  0.00  0.00    +0.000 A 
ATOM     28  C   UNL     1       6.282   3.695  12.002  0.00  0.00    +0.000 A 
ATOM     29  C   UNL     1       7.397   4.532  11.925  0.00  0.00    +0.000 A 
ATOM     30  C   UNL     1       7.855   5.189  13.065  0.00  0.00    +0.000 A 
ATOM     31  C   UNL     1       7.185   4.996  14.271  0.00  0.00    +0.000 A 
ATOM     32  O   UNL     1       7.602   5.752  15.377  0.00  0.00    +0.000 OA
ATOM     33  C   UNL     1       6.841   5.768  16.544  0.00  0.00    +0.000 A 
ATOM     34  O   UNL     1       6.985   6.663  17.368  0.00  0.00    +0.000 OA
ENDBRANCH  22  24
ENDBRANCH  21  22
ENDBRANCH  18  20
ENDBRANCH   4  18
TORSDOF 6
ENDMDL
