MODEL 1
REMARK VINA RESULT:      -7.7      0.000      0.000
REMARK  Name = 
REMARK  3 active torsions:
REMARK  status: ('A' for Active; 'I' for Inactive)
REMARK    1  A    between atoms: C_1  and  C_2
REMARK    2  A    between atoms: C_10  and  O_11
REMARK    3  A    between atoms: C_15  and  C_16
REMARK                            x       y       z     vdW  Elec       q    Type
REMARK                         _______ _______ _______ _____ _____    ______ ____
ROOT
ATOM      1  C   UNL     1       7.459   4.287  17.803  0.00  0.00    +0.000 C 
ATOM      2  C   UNL     1       6.506   5.233  17.054  0.00  0.00    +0.000 C 
ATOM      3  C   UNL     1       5.982   6.327  17.955  0.00  0.00    +0.000 C 
ATOM      4  C   UNL     1       5.147   5.715  19.079  0.00  0.00    +0.000 C 
ATOM      5  C   UNL     1       3.960   4.881  18.547  0.00  0.00    +0.000 C 
ATOM      6  C   UNL     1       4.302   3.907  17.366  0.00  0.00    +0.000 C 
ATOM      7  C   UNL     1       2.956   3.583  16.672  0.00  0.00    +0.000 C 
ATOM      8  C   UNL     1       1.787   3.419  17.613  0.00  0.00    +0.000 C 
ATOM      9  C   UNL     1       1.768   3.700  18.936  0.00  0.00    +0.000 C 
ATOM     10  C   UNL     1       0.602   3.240  19.797  0.00  0.00    +0.000 C 
ATOM     11  C   UNL     1       0.959   3.009  21.264  0.00  0.00    +0.000 C 
ATOM     12  C   UNL     1       2.401   2.496  21.471  0.00  0.00    +0.000 C 
ATOM     13  C   UNL     1       3.474   3.004  20.450  0.00  0.00    +0.000 C 
ATOM     14  C   UNL     1       3.007   4.254  19.660  0.00  0.00    +0.000 C 
ATOM     15  C   UNL     1       2.773   5.397  20.691  0.00  0.00    +0.000 C 
ATOM     16  C   UNL     1       5.301   4.560  16.363  0.00  0.00    +0.000 C 
ATOM     17  C   UNL     1       5.976   3.765  15.230  0.00  0.00    +0.000 C 
ATOM     18  C   UNL     1       7.041   4.747  14.676  0.00  0.00    +0.000 C 
ATOM     19  C   UNL     1       7.237   5.729  15.810  0.00  0.00    +0.000 C 
ATOM     20  O   UNL     1       7.908   6.739  15.756  0.00  0.00    +0.000 OA
ENDROOT
BRANCH  10  21
ATOM     21  O   UNL     1       0.119   1.986  19.300  0.00  0.00    +0.000 OA
ATOM     22  H   UNL     1      -0.502   2.200  18.582  0.00  0.00    +0.000 HD
ENDBRANCH  10  21
TORSDOF 1
ENDMDL
MODEL 2
REMARK VINA RESULT:      -7.1      4.079      6.196
REMARK  Name = 
REMARK  3 active torsions:
REMARK  status: ('A' for Active; 'I' for Inactive)
REMARK    1  A    between atoms: C_1  and  C_2
REMARK    2  A    between atoms: C_10  and  O_11
REMARK    3  A    between atoms: C_15  and  C_16
REMARK                            x       y       z     vdW  Elec       q    Type
REMARK                         _______ _______ _______ _____ _____    ______ ____
ROOT
ATOM      1  C   UNL     1      -0.206   9.544  17.851  0.00  0.00    +0.000 C 
ATOM      2  C   UNL     1       0.963   9.864  18.797  0.00  0.00    +0.000 C 
ATOM      3  C   UNL     1       2.296   9.760  18.093  0.00  0.00    +0.000 C 
ATOM      4  C   UNL     1       2.527   8.321  17.634  0.00  0.00    +0.000 C 
ATOM      5  C   UNL     1       2.489   7.313  18.805  0.00  0.00    +0.000 C 
ATOM      6  C   UNL     1       1.307   7.507  19.817  0.00  0.00    +0.000 C 
ATOM      7  C   UNL     1       1.733   6.783  21.119  0.00  0.00    +0.000 C 
ATOM      8  C   UNL     1       2.479   5.489  20.903  0.00  0.00    +0.000 C 
ATOM      9  C   UNL     1       2.954   5.015  19.728  0.00  0.00    +0.000 C 
ATOM     10  C   UNL     1       3.452   3.582  19.630  0.00  0.00    +0.000 C 
ATOM     11  C   UNL     1       3.331   2.971  18.235  0.00  0.00    +0.000 C 
ATOM     12  C   UNL     1       2.106   3.482  17.446  0.00  0.00    +0.000 C 
ATOM     13  C   UNL     1       1.670   4.962  17.720  0.00  0.00    +0.000 C 
ATOM     14  C   UNL     1       2.778   5.795  18.414  0.00  0.00    +0.000 C 
ATOM     15  C   UNL     1       3.999   5.843  17.450  0.00  0.00    +0.000 C 
ATOM     16  C   UNL     1       1.032   9.018  20.087  0.00  0.00    +0.000 C 
ATOM     17  C   UNL     1      -0.201   9.509  20.867  0.00  0.00    +0.000 C 
ATOM     18  C   UNL     1      -0.176  11.046  20.663  0.00  0.00    +0.000 C 
ATOM     19  C   UNL     1       0.682  11.223  19.429  0.00  0.00    +0.000 C 
ATOM     20  O   UNL     1       1.056  12.287  18.982  0.00  0.00    +0.000 OA
ENDROOT
BRANCH  10  21
ATOM     21  O   UNL     1       2.673   2.754  20.500  0.00  0.00    +0.000 OA
ATOM     22  H   UNL     1       3.255   2.023  20.773  0.00  0.00    +0.000 HD
ENDBRANCH  10  21
TORSDOF 1
ENDMDL
MODEL 3
REMARK VINA RESULT:      -6.7      9.956     12.742
REMARK  Name = 
REMARK  3 active torsions:
REMARK  status: ('A' for Active; 'I' for Inactive)
REMARK    1  A    between atoms: C_1  and  C_2
REMARK    2  A    between atoms: C_10  and  O_11
REMARK    3  A    between atoms: C_15  and  C_16
REMARK                            x       y       z     vdW  Elec       q    Type
REMARK                         _______ _______ _______ _____ _____    ______ ____
ROOT
ATOM      1  C   UNL     1       6.826  14.665  22.511  0.00  0.00    +0.000 C 
ATOM      2  C   UNL     1       8.003  14.074  23.303  0.00  0.00    +0.000 C 
ATOM      3  C   UNL     1       9.154  15.047  23.404  0.00  0.00    +0.000 C 
ATOM      4  C   UNL     1       9.708  15.339  22.010  0.00  0.00    +0.000 C 
ATOM      5  C   UNL     1      10.184  14.062  21.283  0.00  0.00    +0.000 C 
ATOM      6  C   UNL     1       9.205  12.839  21.368  0.00  0.00    +0.000 C 
ATOM      7  C   UNL     1      10.057  11.584  21.054  0.00  0.00    +0.000 C 
ATOM      8  C   UNL     1      11.096  11.783  19.977  0.00  0.00    +0.000 C 
ATOM      9  C   UNL     1      11.464  12.957  19.414  0.00  0.00    +0.000 C 
ATOM     10  C   UNL     1      12.333  12.966  18.167  0.00  0.00    +0.000 C 
ATOM     11  C   UNL     1      12.141  14.192  17.278  0.00  0.00    +0.000 C 
ATOM     12  C   UNL     1      10.696  14.737  17.289  0.00  0.00    +0.000 C 
ATOM     13  C   UNL     1       9.904  14.582  18.632  0.00  0.00    +0.000 C 
ATOM     14  C   UNL     1      10.828  14.290  19.843  0.00  0.00    +0.000 C 
ATOM     15  C   UNL     1      11.781  15.510  20.007  0.00  0.00    +0.000 C 
ATOM     16  C   UNL     1       8.554  12.729  22.780  0.00  0.00    +0.000 C 
ATOM     17  C   UNL     1       7.398  11.760  23.086  0.00  0.00    +0.000 C 
ATOM     18  C   UNL     1       6.933  12.180  24.505  0.00  0.00    +0.000 C 
ATOM     19  C   UNL     1       7.458  13.591  24.644  0.00  0.00    +0.000 C 
ATOM     20  O   UNL     1       7.414  14.260  25.656  0.00  0.00    +0.000 OA
ENDROOT
BRANCH  10  21
ATOM     21  O   UNL     1      12.006  11.829  17.360  0.00  0.00    +0.000 OA
ATOM     22  H   UNL     1      12.721  11.746  16.705  0.00  0.00    +0.000 HD
ENDBRANCH  10  21
TORSDOF 1
ENDMDL
MODEL 4
REMARK VINA RESULT:      -6.6      1.031      1.115
REMARK  Name = 
REMARK  3 active torsions:
REMARK  status: ('A' for Active; 'I' for Inactive)
REMARK    1  A    between atoms: C_1  and  C_2
REMARK    2  A    between atoms: C_10  and  O_11
REMARK    3  A    between atoms: C_15  and  C_16
REMARK                            x       y       z     vdW  Elec       q    Type
REMARK                         _______ _______ _______ _____ _____    ______ ____
ROOT
ATOM      1  C   UNL     1       7.409   4.402  16.854  0.00  0.00    +0.000 C 
ATOM      2  C   UNL     1       6.364   5.052  15.932  0.00  0.00    +0.000 C 
ATOM      3  C   UNL     1       5.887   6.379  16.476  0.00  0.00    +0.000 C 
ATOM      4  C   UNL     1       5.175   6.165  17.811  0.00  0.00    +0.000 C 
ATOM      5  C   UNL     1       3.973   5.201  17.693  0.00  0.00    +0.000 C 
ATOM      6  C   UNL     1       4.240   3.897  16.864  0.00  0.00    +0.000 C 
ATOM      7  C   UNL     1       2.848   3.363  16.443  0.00  0.00    +0.000 C 
ATOM      8  C   UNL     1       1.774   3.512  17.493  0.00  0.00    +0.000 C 
ATOM      9  C   UNL     1       1.863   4.209  18.649  0.00  0.00    +0.000 C 
ATOM     10  C   UNL     1       0.794   4.052  19.719  0.00  0.00    +0.000 C 
ATOM     11  C   UNL     1       1.288   4.312  21.141  0.00  0.00    +0.000 C 
ATOM     12  C   UNL     1       2.758   3.896  21.365  0.00  0.00    +0.000 C 
ATOM     13  C   UNL     1       3.719   4.045  20.138  0.00  0.00    +0.000 C 
ATOM     14  C   UNL     1       3.143   4.970  19.034  0.00  0.00    +0.000 C 
ATOM     15  C   UNL     1       2.965   6.385  19.657  0.00  0.00    +0.000 C 
ATOM     16  C   UNL     1       5.123   4.189  15.614  0.00  0.00    +0.000 C 
ATOM     17  C   UNL     1       5.720   3.069  14.741  0.00  0.00    +0.000 C 
ATOM     18  C   UNL     1       6.700   3.819  13.801  0.00  0.00    +0.000 C 
ATOM     19  C   UNL     1       6.964   5.117  14.531  0.00  0.00    +0.000 C 
ATOM     20  O   UNL     1       7.595   6.054  14.090  0.00  0.00    +0.000 OA
ENDROOT
BRANCH  10  21
ATOM     21  O   UNL     1       0.309   2.704  19.702  0.00  0.00    +0.000 OA
ATOM     22  H   UNL     1       1.095   2.133  19.642  0.00  0.00    +0.000 HD
ENDBRANCH  10  21
TORSDOF 1
ENDMDL
MODEL 5
REMARK VINA RESULT:      -6.6      9.291     11.989
REMARK  Name = 
REMARK  3 active torsions:
REMARK  status: ('A' for Active; 'I' for Inactive)
REMARK    1  A    between atoms: C_1  and  C_2
REMARK    2  A    between atoms: C_10  and  O_11
REMARK    3  A    between atoms: C_15  and  C_16
REMARK                            x       y       z     vdW  Elec       q    Type
REMARK                         _______ _______ _______ _____ _____    ______ ____
ROOT
ATOM      1  C   UNL     1       8.328  13.964  24.333  0.00  0.00    +0.000 C 
ATOM      2  C   UNL     1       7.116  13.578  23.471  0.00  0.00    +0.000 C 
ATOM      3  C   UNL     1       7.102  12.101  23.154  0.00  0.00    +0.000 C 
ATOM      4  C   UNL     1       8.329  11.741  22.315  0.00  0.00    +0.000 C 
ATOM      5  C   UNL     1       8.400  12.544  20.998  0.00  0.00    +0.000 C 
ATOM      6  C   UNL     1       8.114  14.080  21.133  0.00  0.00    +0.000 C 
ATOM      7  C   UNL     1       7.731  14.573  19.715  0.00  0.00    +0.000 C 
ATOM      8  C   UNL     1       8.520  13.939  18.596  0.00  0.00    +0.000 C 
ATOM      9  C   UNL     1       9.367  12.889  18.696  0.00  0.00    +0.000 C 
ATOM     10  C   UNL     1      10.281  12.532  17.535  0.00  0.00    +0.000 C 
ATOM     11  C   UNL     1      11.576  11.834  17.948  0.00  0.00    +0.000 C 
ATOM     12  C   UNL     1      12.113  12.301  19.318  0.00  0.00    +0.000 C 
ATOM     13  C   UNL     1      11.041  12.710  20.384  0.00  0.00    +0.000 C 
ATOM     14  C   UNL     1       9.623  12.186  20.040  0.00  0.00    +0.000 C 
ATOM     15  C   UNL     1       9.690  10.631  20.024  0.00  0.00    +0.000 C 
ATOM     16  C   UNL     1       6.961  14.356  22.146  0.00  0.00    +0.000 C 
ATOM     17  C   UNL     1       6.611  15.773  22.637  0.00  0.00    +0.000 C 
ATOM     18  C   UNL     1       5.601  15.523  23.788  0.00  0.00    +0.000 C 
ATOM     19  C   UNL     1       5.866  14.087  24.183  0.00  0.00    +0.000 C 
ATOM     20  O   UNL     1       5.211  13.446  24.978  0.00  0.00    +0.000 OA
ENDROOT
BRANCH  10  21
ATOM     21  O   UNL     1      10.670  13.733  16.859  0.00  0.00    +0.000 OA
ATOM     22  H   UNL     1      10.218  14.462  17.318  0.00  0.00    +0.000 HD
ENDBRANCH  10  21
TORSDOF 1
ENDMDL
MODEL 6
REMARK VINA RESULT:      -6.0      8.748     10.933
REMARK  Name = 
REMARK  3 active torsions:
REMARK  status: ('A' for Active; 'I' for Inactive)
REMARK    1  A    between atoms: C_1  and  C_2
REMARK    2  A    between atoms: C_10  and  O_11
REMARK    3  A    between atoms: C_15  and  C_16
REMARK                            x       y       z     vdW  Elec       q    Type
REMARK                         _______ _______ _______ _____ _____    ______ ____
ROOT
ATOM      1  C   UNL     1      -0.864  10.589  19.160  0.00  0.00    +0.000 C 
ATOM      2  C   UNL     1       0.514  10.624  19.840  0.00  0.00    +0.000 C 
ATOM      3  C   UNL     1       0.479  11.400  21.136  0.00  0.00    +0.000 C 
ATOM      4  C   UNL     1       0.128  12.861  20.853  0.00  0.00    +0.000 C 
ATOM      5  C   UNL     1       1.126  13.532  19.884  0.00  0.00    +0.000 C 
ATOM      6  C   UNL     1       1.507  12.683  18.621  0.00  0.00    +0.000 C 
ATOM      7  C   UNL     1       2.839  13.273  18.093  0.00  0.00    +0.000 C 
ATOM      8  C   UNL     1       2.940  14.776  18.183  0.00  0.00    +0.000 C 
ATOM      9  C   UNL     1       2.089  15.608  18.827  0.00  0.00    +0.000 C 
ATOM     10  C   UNL     1       2.180  17.110  18.610  0.00  0.00    +0.000 C 
ATOM     11  C   UNL     1       0.860  17.853  18.811  0.00  0.00    +0.000 C 
ATOM     12  C   UNL     1      -0.377  17.026  18.399  0.00  0.00    +0.000 C 
ATOM     13  C   UNL     1      -0.283  15.477  18.615  0.00  0.00    +0.000 C 
ATOM     14  C   UNL     1       0.860  15.075  19.583  0.00  0.00    +0.000 C 
ATOM     15  C   UNL     1       0.547  15.715  20.967  0.00  0.00    +0.000 C 
ATOM     16  C   UNL     1       1.672  11.175  18.979  0.00  0.00    +0.000 C 
ATOM     17  C   UNL     1       1.832  10.082  17.907  0.00  0.00    +0.000 C 
ATOM     18  C   UNL     1       1.708   8.760  18.709  0.00  0.00    +0.000 C 
ATOM     19  C   UNL     1       0.996   9.182  19.975  0.00  0.00    +0.000 C 
ATOM     20  O   UNL     1       0.796   8.472  20.938  0.00  0.00    +0.000 OA
ENDROOT
BRANCH  10  21
ATOM     21  O   UNL     1       2.583  17.365  17.260  0.00  0.00    +0.000 OA
ATOM     22  H   UNL     1       3.036  18.227  17.270  0.00  0.00    +0.000 HD
ENDBRANCH  10  21
TORSDOF 1
ENDMDL
MODEL 7
REMARK VINA RESULT:      -6.0     10.536     12.595
REMARK  Name = 
REMARK  3 active torsions:
REMARK  status: ('A' for Active; 'I' for Inactive)
REMARK    1  A    between atoms: C_1  and  C_2
REMARK    2  A    between atoms: C_10  and  O_11
REMARK    3  A    between atoms: C_15  and  C_16
REMARK                            x       y       z     vdW  Elec       q    Type
REMARK                         _______ _______ _______ _____ _____    ______ ____
ROOT
ATOM      1  C   UNL     1       5.189  14.994  18.425  0.00  0.00    +0.000 C 
ATOM      2  C   UNL     1       5.928  15.967  19.358  0.00  0.00    +0.000 C 
ATOM      3  C   UNL     1       6.948  16.794  18.610  0.00  0.00    +0.000 C 
ATOM      4  C   UNL     1       8.031  15.882  18.035  0.00  0.00    +0.000 C 
ATOM      5  C   UNL     1       8.747  15.054  19.125  0.00  0.00    +0.000 C 
ATOM      6  C   UNL     1       7.804  14.382  20.183  0.00  0.00    +0.000 C 
ATOM      7  C   UNL     1       8.692  14.067  21.413  0.00  0.00    +0.000 C 
ATOM      8  C   UNL     1      10.085  13.593  21.076  0.00  0.00    +0.000 C 
ATOM      9  C   UNL     1      10.668  13.595  19.855  0.00  0.00    +0.000 C 
ATOM     10  C   UNL     1      11.974  12.850  19.632  0.00  0.00    +0.000 C 
ATOM     11  C   UNL     1      12.182  12.364  18.198  0.00  0.00    +0.000 C 
ATOM     12  C   UNL     1      10.868  11.973  17.487  0.00  0.00    +0.000 C 
ATOM     13  C   UNL     1       9.591  12.788  17.886  0.00  0.00    +0.000 C 
ATOM     14  C   UNL     1       9.929  14.117  18.611  0.00  0.00    +0.000 C 
ATOM     15  C   UNL     1      10.747  14.995  17.618  0.00  0.00    +0.000 C 
ATOM     16  C   UNL     1       6.628  15.326  20.576  0.00  0.00    +0.000 C 
ATOM     17  C   UNL     1       5.435  14.854  21.428  0.00  0.00    +0.000 C 
ATOM     18  C   UNL     1       4.432  16.034  21.342  0.00  0.00    +0.000 C 
ATOM     19  C   UNL     1       4.872  16.780  20.102  0.00  0.00    +0.000 C 
ATOM     20  O   UNL     1       4.424  17.844  19.727  0.00  0.00    +0.000 OA
ENDROOT
BRANCH  10  21
ATOM     21  O   UNL     1      11.993  11.680  20.458  0.00  0.00    +0.000 OA
ATOM     22  H   UNL     1      11.809  10.928  19.869  0.00  0.00    +0.000 HD
ENDBRANCH  10  21
TORSDOF 1
ENDMDL
MODEL 8
REMARK VINA RESULT:      -6.0     10.648     13.534
REMARK  Name = 
REMARK  3 active torsions:
REMARK  status: ('A' for Active; 'I' for Inactive)
REMARK    1  A    between atoms: C_1  and  C_2
REMARK    2  A    between atoms: C_10  and  O_11
REMARK    3  A    between atoms: C_15  and  C_16
REMARK                            x       y       z     vdW  Elec       q    Type
REMARK                         _______ _______ _______ _____ _____    ______ ____
ROOT
ATOM      1  C   UNL     1      -5.239  15.092  23.849  0.00  0.00    +0.000 C 
ATOM      2  C   UNL     1      -5.732  13.697  23.432  0.00  0.00    +0.000 C 
ATOM      3  C   UNL     1      -4.996  12.601  24.167  0.00  0.00    +0.000 C 
ATOM      4  C   UNL     1      -3.514  12.635  23.796  0.00  0.00    +0.000 C 
ATOM      5  C   UNL     1      -3.281  12.476  22.277  0.00  0.00    +0.000 C 
ATOM      6  C   UNL     1      -4.217  13.340  21.362  0.00  0.00    +0.000 C 
ATOM      7  C   UNL     1      -4.185  12.673  19.963  0.00  0.00    +0.000 C 
ATOM      8  C   UNL     1      -2.835  12.137  19.553  0.00  0.00    +0.000 C 
ATOM      9  C   UNL     1      -1.738  12.022  20.336  0.00  0.00    +0.000 C 
ATOM     10  C   UNL     1      -0.387  11.708  19.715  0.00  0.00    +0.000 C 
ATOM     11  C   UNL     1       0.807  12.237  20.508  0.00  0.00    +0.000 C 
ATOM     12  C   UNL     1       0.516  13.565  21.241  0.00  0.00    +0.000 C 
ATOM     13  C   UNL     1      -0.950  13.770  21.754  0.00  0.00    +0.000 C 
ATOM     14  C   UNL     1      -1.756  12.446  21.815  0.00  0.00    +0.000 C 
ATOM     15  C   UNL     1      -1.037  11.508  22.829  0.00  0.00    +0.000 C 
ATOM     16  C   UNL     1      -5.671  13.388  21.921  0.00  0.00    +0.000 C 
ATOM     17  C   UNL     1      -6.747  14.331  21.350  0.00  0.00    +0.000 C 
ATOM     18  C   UNL     1      -7.917  14.207  22.362  0.00  0.00    +0.000 C 
ATOM     19  C   UNL     1      -7.248  13.675  23.610  0.00  0.00    +0.000 C 
ATOM     20  O   UNL     1      -7.823  13.322  24.618  0.00  0.00    +0.000 OA
ENDROOT
BRANCH  10  21
ATOM     21  O   UNL     1      -0.312  12.320  18.422  0.00  0.00    +0.000 OA
ATOM     22  H   UNL     1       0.635  12.424  18.225  0.00  0.00    +0.000 HD
ENDBRANCH  10  21
TORSDOF 1
ENDMDL
MODEL 9
REMARK VINA RESULT:      -5.9      9.924     11.459
REMARK  Name = 
REMARK  3 active torsions:
REMARK  status: ('A' for Active; 'I' for Inactive)
REMARK    1  A    between atoms: C_1  and  C_2
REMARK    2  A    between atoms: C_10  and  O_11
REMARK    3  A    between atoms: C_15  and  C_16
REMARK                            x       y       z     vdW  Elec       q    Type
REMARK                         _______ _______ _______ _____ _____    ______ ____
ROOT
ATOM      1  C   UNL     1       8.948  12.675  18.312  0.00  0.00    +0.000 C 
ATOM      2  C   UNL     1      10.263  12.696  19.109  0.00  0.00    +0.000 C 
ATOM      3  C   UNL     1      10.375  11.506  20.035  0.00  0.00    +0.000 C 
ATOM      4  C   UNL     1       9.264  11.560  21.083  0.00  0.00    +0.000 C 
ATOM      5  C   UNL     1       9.301  12.860  21.917  0.00  0.00    +0.000 C 
ATOM      6  C   UNL     1       9.503  14.179  21.092  0.00  0.00    +0.000 C 
ATOM      7  C   UNL     1      10.016  15.241  22.099  0.00  0.00    +0.000 C 
ATOM      8  C   UNL     1       9.380  15.168  23.466  0.00  0.00    +0.000 C 
ATOM      9  C   UNL     1       8.575  14.186  23.933  0.00  0.00    +0.000 C 
ATOM     10  C   UNL     1       7.809  14.382  25.232  0.00  0.00    +0.000 C 
ATOM     11  C   UNL     1       6.509  13.585  25.318  0.00  0.00    +0.000 C 
ATOM     12  C   UNL     1       5.806  13.409  23.955  0.00  0.00    +0.000 C 
ATOM     13  C   UNL     1       6.737  13.300  22.700  0.00  0.00    +0.000 C 
ATOM     14  C   UNL     1       8.206  12.968  23.070  0.00  0.00    +0.000 C 
ATOM     15  C   UNL     1       8.208  11.577  23.770  0.00  0.00    +0.000 C 
ATOM     16  C   UNL     1      10.526  13.974  19.934  0.00  0.00    +0.000 C 
ATOM     17  C   UNL     1      10.758  15.030  18.837  0.00  0.00    +0.000 C 
ATOM     18  C   UNL     1      11.647  14.292  17.802  0.00  0.00    +0.000 C 
ATOM     19  C   UNL     1      11.405  12.831  18.106  0.00  0.00    +0.000 C 
ATOM     20  O   UNL     1      11.997  11.901  17.599  0.00  0.00    +0.000 OA
ENDROOT
BRANCH  10  21
ATOM     21  O   UNL     1       7.443  15.761  25.356  0.00  0.00    +0.000 OA
ATOM     22  H   UNL     1       7.520  16.145  24.465  0.00  0.00    +0.000 HD
ENDBRANCH  10  21
TORSDOF 1
ENDMDL
