MODEL 1
REMARK VINA RESULT:      -6.2      0.000      0.000
REMARK  Name = 
REMARK  12 active torsions:
REMARK  status: ('A' for Active; 'I' for Inactive)
REMARK    1  A    between atoms: N_1  and  C_2
REMARK    2  A    between atoms: N_10  and  C_11
REMARK    3  A    between atoms: C_11  and  C_12
REMARK    4  A    between atoms: C_11  and  O_19
REMARK    5  A    between atoms: C_12  and  O_13
REMARK    6  A    between atoms: O_13  and  C_14
REMARK    7  A    between atoms: C_14  and  P_15
REMARK    8  A    between atoms: P_15  and  O_17
REMARK    9  A    between atoms: P_15  and  O_18
REMARK   10  A    between atoms: O_19  and  C_20
REMARK   11  A    between atoms: C_20  and  C_21
REMARK   12  A    between atoms: C_21  and  O_22
REMARK                            x       y       z     vdW  Elec       q    Type
REMARK                         _______ _______ _______ _____ _____    ______ ____
ROOT
ATOM      1  C   UNL     1       2.829   6.203  18.177  0.00  0.00    +0.000 C 
ENDROOT
BRANCH   1  10
ATOM      2  C   UNL     1       7.330   4.637  17.300  0.00  0.00    +0.000 A 
ATOM      3  N   UNL     1       7.306   4.910  15.976  0.00  0.00    +0.000 NA
ATOM      4  C   UNL     1       6.163   5.407  15.448  0.00  0.00    +0.000 A 
ATOM      5  N   UNL     1       4.997   5.689  16.069  0.00  0.00    +0.000 NA
ATOM      6  C   UNL     1       5.068   5.373  17.373  0.00  0.00    +0.000 A 
ATOM      7  C   UNL     1       6.155   4.832  18.044  0.00  0.00    +0.000 A 
ATOM      8  N   UNL     1       5.845   4.581  19.363  0.00  0.00    +0.000 NA
ATOM      9  C   UNL     1       4.603   4.991  19.500  0.00  0.00    +0.000 A 
ATOM     10  N   UNL     1       4.109   5.526  18.336  0.00  0.00    +0.000 N 
BRANCH   2  11
ATOM     11  N   UNL     1       8.509   4.173  17.866  0.00  0.00    +0.000 N 
ATOM     12  H   UNL     1       8.363   3.435  18.541  0.00  0.00    +0.000 HD
ATOM     13  H   UNL     1       9.173   4.906  18.090  0.00  0.00    +0.000 HD
ENDBRANCH   2  11
ENDBRANCH   1  10
BRANCH   1  14
ATOM     14  C   UNL     1       1.700   5.168  17.987  0.00  0.00    +0.000 C 
BRANCH  14  15
ATOM     15  O   UNL     1       2.066   4.147  17.041  0.00  0.00    +0.000 OA
BRANCH  15  16
ATOM     16  C   UNL     1       2.052   2.839  17.662  0.00  0.00    +0.000 C 
BRANCH  16  17
ATOM     17  P   UNL     1       1.305   2.912  19.331  0.00  0.00    +0.000 P 
ATOM     18  O   UNL     1       0.236   1.880  18.955  0.00  0.00    +0.000 OA
BRANCH  17  19
ATOM     19  O   UNL     1       2.539   2.042  19.968  0.00  0.00    +0.000 OA
ATOM     20  H   UNL     1       3.245   2.660  20.250  0.00  0.00    +0.000 HD
ENDBRANCH  17  19
BRANCH  17  21
ATOM     21  O   UNL     1       0.598   2.981  20.909  0.00  0.00    +0.000 OA
ATOM     22  H   UNL     1       1.336   3.250  21.492  0.00  0.00    +0.000 HD
ENDBRANCH  17  21
ENDBRANCH  16  17
ENDBRANCH  15  16
ENDBRANCH  14  15
ENDBRANCH   1  14
BRANCH   1  23
ATOM     23  O   UNL     1       2.557   6.995  19.357  0.00  0.00    +0.000 OA
BRANCH  23  24
ATOM     24  C   UNL     1       1.954   8.267  19.060  0.00  0.00    +0.000 C 
BRANCH  24  25
ATOM     25  C   UNL     1       2.468   8.747  17.705  0.00  0.00    +0.000 C 
BRANCH  25  26
ATOM     26  O   UNL     1       1.860   9.991  17.365  0.00  0.00    +0.000 OA
ATOM     27  H   UNL     1       2.305  10.658  17.920  0.00  0.00    +0.000 HD
ENDBRANCH  25  26
ENDBRANCH  24  25
ENDBRANCH  23  24
ENDBRANCH   1  23
TORSDOF 12
ENDMDL
MODEL 2
REMARK VINA RESULT:      -6.2      3.432      5.297
REMARK  Name = 
REMARK  12 active torsions:
REMARK  status: ('A' for Active; 'I' for Inactive)
REMARK    1  A    between atoms: N_1  and  C_2
REMARK    2  A    between atoms: N_10  and  C_11
REMARK    3  A    between atoms: C_11  and  C_12
REMARK    4  A    between atoms: C_11  and  O_19
REMARK    5  A    between atoms: C_12  and  O_13
REMARK    6  A    between atoms: O_13  and  C_14
REMARK    7  A    between atoms: C_14  and  P_15
REMARK    8  A    between atoms: P_15  and  O_17
REMARK    9  A    between atoms: P_15  and  O_18
REMARK   10  A    between atoms: O_19  and  C_20
REMARK   11  A    between atoms: C_20  and  C_21
REMARK   12  A    between atoms: C_21  and  O_22
REMARK                            x       y       z     vdW  Elec       q    Type
REMARK                         _______ _______ _______ _____ _____    ______ ____
ROOT
ATOM      1  C   UNL     1       3.839   6.675  17.710  0.00  0.00    +0.000 C 
ENDROOT
BRANCH   1  10
ATOM      2  C   UNL     1       1.594   2.666  19.250  0.00  0.00    +0.000 A 
ATOM      3  N   UNL     1       1.079   3.228  20.366  0.00  0.00    +0.000 NA
ATOM      4  C   UNL     1       1.384   4.519  20.630  0.00  0.00    +0.000 A 
ATOM      5  N   UNL     1       2.153   5.370  19.915  0.00  0.00    +0.000 NA
ATOM      6  C   UNL     1       2.660   4.752  18.835  0.00  0.00    +0.000 A 
ATOM      7  C   UNL     1       2.460   3.434  18.454  0.00  0.00    +0.000 A 
ATOM      8  N   UNL     1       3.188   3.130  17.325  0.00  0.00    +0.000 NA
ATOM      9  C   UNL     1       3.795   4.253  17.006  0.00  0.00    +0.000 A 
ATOM     10  N   UNL     1       3.465   5.275  17.860  0.00  0.00    +0.000 N 
BRANCH   2  11
ATOM     11  N   UNL     1       1.251   1.358  18.940  0.00  0.00    +0.000 N 
ATOM     12  H   UNL     1       0.828   1.262  18.028  0.00  0.00    +0.000 HD
ATOM     13  H   UNL     1       0.845   0.846  19.716  0.00  0.00    +0.000 HD
ENDBRANCH   2  11
ENDBRANCH   1  10
BRANCH   1  14
ATOM     14  C   UNL     1       4.826   6.837  16.535  0.00  0.00    +0.000 C 
BRANCH  14  15
ATOM     15  O   UNL     1       6.129   7.247  16.986  0.00  0.00    +0.000 OA
BRANCH  15  16
ATOM     16  C   UNL     1       7.021   6.111  17.091  0.00  0.00    +0.000 C 
BRANCH  16  17
ATOM     17  P   UNL     1       7.417   5.746  18.840  0.00  0.00    +0.000 P 
ATOM     18  O   UNL     1       8.261   4.528  18.450  0.00  0.00    +0.000 OA
BRANCH  17  19
ATOM     19  O   UNL     1       8.470   6.999  18.907  0.00  0.00    +0.000 OA
ATOM     20  H   UNL     1       8.218   7.658  18.228  0.00  0.00    +0.000 HD
ENDBRANCH  17  19
BRANCH  17  21
ATOM     21  O   UNL     1       7.791   5.401  20.494  0.00  0.00    +0.000 OA
ATOM     22  H   UNL     1       6.920   5.389  20.940  0.00  0.00    +0.000 HD
ENDBRANCH  17  21
ENDBRANCH  16  17
ENDBRANCH  15  16
ENDBRANCH  14  15
ENDBRANCH   1  14
BRANCH   1  23
ATOM     23  O   UNL     1       2.653   7.461  17.450  0.00  0.00    +0.000 OA
BRANCH  23  24
ATOM     24  C   UNL     1       2.639   8.717  18.152  0.00  0.00    +0.000 C 
BRANCH  24  25
ATOM     25  C   UNL     1       1.517   8.685  19.186  0.00  0.00    +0.000 C 
BRANCH  25  26
ATOM     26  O   UNL     1       1.998   8.134  20.411  0.00  0.00    +0.000 OA
ATOM     27  H   UNL     1       2.966   8.239  20.380  0.00  0.00    +0.000 HD
ENDBRANCH  25  26
ENDBRANCH  24  25
ENDBRANCH  23  24
ENDBRANCH   1  23
TORSDOF 12
ENDMDL
MODEL 3
REMARK VINA RESULT:      -6.1      3.963      6.023
REMARK  Name = 
REMARK  12 active torsions:
REMARK  status: ('A' for Active; 'I' for Inactive)
REMARK    1  A    between atoms: N_1  and  C_2
REMARK    2  A    between atoms: N_10  and  C_11
REMARK    3  A    between atoms: C_11  and  C_12
REMARK    4  A    between atoms: C_11  and  O_19
REMARK    5  A    between atoms: C_12  and  O_13
REMARK    6  A    between atoms: O_13  and  C_14
REMARK    7  A    between atoms: C_14  and  P_15
REMARK    8  A    between atoms: P_15  and  O_17
REMARK    9  A    between atoms: P_15  and  O_18
REMARK   10  A    between atoms: O_19  and  C_20
REMARK   11  A    between atoms: C_20  and  C_21
REMARK   12  A    between atoms: C_21  and  O_22
REMARK                            x       y       z     vdW  Elec       q    Type
REMARK                         _______ _______ _______ _____ _____    ______ ____
ROOT
ATOM      1  C   UNL     1       5.289   5.510  17.292  0.00  0.00    +0.000 C 
ENDROOT
BRANCH   1  10
ATOM      2  C   UNL     1       1.549   3.279  19.419  0.00  0.00    +0.000 A 
ATOM      3  N   UNL     1       1.859   2.045  18.961  0.00  0.00    +0.000 NA
ATOM      4  C   UNL     1       2.929   1.917  18.144  0.00  0.00    +0.000 A 
ATOM      5  N   UNL     1       3.776   2.874  17.702  0.00  0.00    +0.000 NA
ATOM      6  C   UNL     1       3.405   4.081  18.163  0.00  0.00    +0.000 A 
ATOM      7  C   UNL     1       2.321   4.367  18.979  0.00  0.00    +0.000 A 
ATOM      8  N   UNL     1       2.214   5.723  19.199  0.00  0.00    +0.000 NA
ATOM      9  C   UNL     1       3.233   6.248  18.555  0.00  0.00    +0.000 A 
ATOM     10  N   UNL     1       4.011   5.289  17.956  0.00  0.00    +0.000 N 
BRANCH   2  11
ATOM     11  N   UNL     1       0.483   3.419  20.296  0.00  0.00    +0.000 N 
ATOM     12  H   UNL     1       0.293   2.582  20.829  0.00  0.00    +0.000 HD
ATOM     13  H   UNL     1      -0.301   3.932  19.908  0.00  0.00    +0.000 HD
ENDBRANCH   2  11
ENDBRANCH   1  10
BRANCH   1  14
ATOM     14  C   UNL     1       5.089   6.380  16.033  0.00  0.00    +0.000 C 
BRANCH  14  15
ATOM     15  O   UNL     1       6.040   6.055  15.004  0.00  0.00    +0.000 OA
BRANCH  15  16
ATOM     16  C   UNL     1       6.560   4.715  15.184  0.00  0.00    +0.000 C 
BRANCH  16  17
ATOM     17  P   UNL     1       6.539   3.785  13.609  0.00  0.00    +0.000 P 
ATOM     18  O   UNL     1       5.048   4.067  13.401  0.00  0.00    +0.000 OA
BRANCH  17  19
ATOM     19  O   UNL     1       7.320   4.998  12.833  0.00  0.00    +0.000 OA
ATOM     20  H   UNL     1       8.214   4.686  12.581  0.00  0.00    +0.000 HD
ENDBRANCH  17  19
BRANCH  17  21
ATOM     21  O   UNL     1       6.520   2.905  12.119  0.00  0.00    +0.000 OA
ATOM     22  H   UNL     1       5.754   3.272  11.633  0.00  0.00    +0.000 HD
ENDBRANCH  17  21
ENDBRANCH  16  17
ENDBRANCH  15  16
ENDBRANCH  14  15
ENDBRANCH   1  14
BRANCH   1  23
ATOM     23  O   UNL     1       6.190   6.183  18.201  0.00  0.00    +0.000 OA
BRANCH  23  24
ATOM     24  C   UNL     1       6.584   5.367  19.319  0.00  0.00    +0.000 C 
BRANCH  24  25
ATOM     25  C   UNL     1       8.026   5.707  19.687  0.00  0.00    +0.000 C 
BRANCH  25  26
ATOM     26  O   UNL     1       8.311   5.257  21.010  0.00  0.00    +0.000 OA
ATOM     27  H   UNL     1       7.445   5.039  21.402  0.00  0.00    +0.000 HD
ENDBRANCH  25  26
ENDBRANCH  24  25
ENDBRANCH  23  24
ENDBRANCH   1  23
TORSDOF 12
ENDMDL
MODEL 4
REMARK VINA RESULT:      -6.1      3.843      5.842
REMARK  Name = 
REMARK  12 active torsions:
REMARK  status: ('A' for Active; 'I' for Inactive)
REMARK    1  A    between atoms: N_1  and  C_2
REMARK    2  A    between atoms: N_10  and  C_11
REMARK    3  A    between atoms: C_11  and  C_12
REMARK    4  A    between atoms: C_11  and  O_19
REMARK    5  A    between atoms: C_12  and  O_13
REMARK    6  A    between atoms: O_13  and  C_14
REMARK    7  A    between atoms: C_14  and  P_15
REMARK    8  A    between atoms: P_15  and  O_17
REMARK    9  A    between atoms: P_15  and  O_18
REMARK   10  A    between atoms: O_19  and  C_20
REMARK   11  A    between atoms: C_20  and  C_21
REMARK   12  A    between atoms: C_21  and  O_22
REMARK                            x       y       z     vdW  Elec       q    Type
REMARK                         _______ _______ _______ _____ _____    ______ ____
ROOT
ATOM      1  C   UNL     1       4.951   5.732  17.698  0.00  0.00    +0.000 C 
ENDROOT
BRANCH   1  10
ATOM      2  C   UNL     1       1.588   2.987  19.853  0.00  0.00    +0.000 A 
ATOM      3  N   UNL     1       1.856   1.871  19.138  0.00  0.00    +0.000 NA
ATOM      4  C   UNL     1       2.805   1.941  18.177  0.00  0.00    +0.000 A 
ATOM      5  N   UNL     1       3.563   2.999  17.811  0.00  0.00    +0.000 NA
ATOM      6  C   UNL     1       3.235   4.085  18.532  0.00  0.00    +0.000 A 
ATOM      7  C   UNL     1       2.269   4.171  19.523  0.00  0.00    +0.000 A 
ATOM      8  N   UNL     1       2.166   5.459  20.002  0.00  0.00    +0.000 NA
ATOM      9  C   UNL     1       3.075   6.137  19.336  0.00  0.00    +0.000 A 
ATOM     10  N   UNL     1       3.782   5.337  18.473  0.00  0.00    +0.000 N 
BRANCH   2  11
ATOM     11  N   UNL     1       0.651   2.919  20.874  0.00  0.00    +0.000 N 
ATOM     12  H   UNL     1      -0.296   3.073  20.557  0.00  0.00    +0.000 HD
ATOM     13  H   UNL     1       0.950   3.365  21.734  0.00  0.00    +0.000 HD
ENDBRANCH   2  11
ENDBRANCH   1  10
BRANCH   1  14
ATOM     14  C   UNL     1       4.573   6.844  16.697  0.00  0.00    +0.000 C 
BRANCH  14  15
ATOM     15  O   UNL     1       5.178   6.630  15.409  0.00  0.00    +0.000 OA
BRANCH  15  16
ATOM     16  C   UNL     1       6.253   5.664  15.497  0.00  0.00    +0.000 C 
BRANCH  16  17
ATOM     17  P   UNL     1       6.078   4.369  14.216  0.00  0.00    +0.000 P 
ATOM     18  O   UNL     1       7.449   4.702  13.617  0.00  0.00    +0.000 OA
BRANCH  17  19
ATOM     19  O   UNL     1       6.362   3.185  15.313  0.00  0.00    +0.000 OA
ATOM     20  H   UNL     1       5.507   2.774  15.559  0.00  0.00    +0.000 HD
ENDBRANCH  17  19
BRANCH  17  21
ATOM     21  O   UNL     1       5.913   3.145  13.004  0.00  0.00    +0.000 OA
ATOM     22  H   UNL     1       5.265   3.517  12.373  0.00  0.00    +0.000 HD
ENDBRANCH  17  21
ENDBRANCH  16  17
ENDBRANCH  15  16
ENDBRANCH  14  15
ENDBRANCH   1  14
BRANCH   1  23
ATOM     23  O   UNL     1       5.975   6.223  18.594  0.00  0.00    +0.000 OA
BRANCH  23  24
ATOM     24  C   UNL     1       6.660   5.174  19.303  0.00  0.00    +0.000 C 
BRANCH  24  25
ATOM     25  C   UNL     1       8.035   5.686  19.722  0.00  0.00    +0.000 C 
BRANCH  25  26
ATOM     26  O   UNL     1       8.345   5.232  21.038  0.00  0.00    +0.000 OA
ATOM     27  H   UNL     1       7.597   5.520  21.594  0.00  0.00    +0.000 HD
ENDBRANCH  25  26
ENDBRANCH  24  25
ENDBRANCH  23  24
ENDBRANCH   1  23
TORSDOF 12
ENDMDL
MODEL 5
REMARK VINA RESULT:      -6.1      4.152      6.239
REMARK  Name = 
REMARK  12 active torsions:
REMARK  status: ('A' for Active; 'I' for Inactive)
REMARK    1  A    between atoms: N_1  and  C_2
REMARK    2  A    between atoms: N_10  and  C_11
REMARK    3  A    between atoms: C_11  and  C_12
REMARK    4  A    between atoms: C_11  and  O_19
REMARK    5  A    between atoms: C_12  and  O_13
REMARK    6  A    between atoms: O_13  and  C_14
REMARK    7  A    between atoms: C_14  and  P_15
REMARK    8  A    between atoms: P_15  and  O_17
REMARK    9  A    between atoms: P_15  and  O_18
REMARK   10  A    between atoms: O_19  and  C_20
REMARK   11  A    between atoms: C_20  and  C_21
REMARK   12  A    between atoms: C_21  and  O_22
REMARK                            x       y       z     vdW  Elec       q    Type
REMARK                         _______ _______ _______ _____ _____    ______ ____
ROOT
ATOM      1  C   UNL     1       6.103   4.749  17.551  0.00  0.00    +0.000 C 
ENDROOT
BRANCH   1  10
ATOM      2  C   UNL     1       2.151   3.635  20.126  0.00  0.00    +0.000 A 
ATOM      3  N   UNL     1       2.729   2.628  20.819  0.00  0.00    +0.000 NA
ATOM      4  C   UNL     1       4.014   2.313  20.536  0.00  0.00    +0.000 A 
ATOM      5  N   UNL     1       4.845   2.880  19.632  0.00  0.00    +0.000 NA
ATOM      6  C   UNL     1       4.211   3.853  18.955  0.00  0.00    +0.000 A 
ATOM      7  C   UNL     1       2.897   4.263  19.114  0.00  0.00    +0.000 A 
ATOM      8  N   UNL     1       2.572   5.246  18.204  0.00  0.00    +0.000 NA
ATOM      9  C   UNL     1       3.679   5.451  17.525  0.00  0.00    +0.000 A 
ATOM     10  N   UNL     1       4.712   4.668  17.978  0.00  0.00    +0.000 N 
BRANCH   2  11
ATOM     11  N   UNL     1       0.850   4.002  20.438  0.00  0.00    +0.000 N 
ATOM     12  H   UNL     1       0.294   4.229  19.626  0.00  0.00    +0.000 HD
ATOM     13  H   UNL     1       0.777   4.600  21.254  0.00  0.00    +0.000 HD
ENDBRANCH   2  11
ENDBRANCH   1  10
BRANCH   1  14
ATOM     14  C   UNL     1       6.284   4.036  16.195  0.00  0.00    +0.000 C 
BRANCH  14  15
ATOM     15  O   UNL     1       7.344   4.623  15.420  0.00  0.00    +0.000 OA
BRANCH  15  16
ATOM     16  C   UNL     1       6.864   5.038  14.118  0.00  0.00    +0.000 C 
BRANCH  16  17
ATOM     17  P   UNL     1       6.480   3.589  13.068  0.00  0.00    +0.000 P 
ATOM     18  O   UNL     1       5.013   4.010  12.932  0.00  0.00    +0.000 OA
BRANCH  17  19
ATOM     19  O   UNL     1       7.244   4.263  11.785  0.00  0.00    +0.000 OA
ATOM     20  H   UNL     1       8.049   4.720  12.103  0.00  0.00    +0.000 HD
ENDBRANCH  17  19
BRANCH  17  21
ATOM     21  O   UNL     1       6.117   2.219  12.076  0.00  0.00    +0.000 OA
ATOM     22  H   UNL     1       5.145   2.249  11.970  0.00  0.00    +0.000 HD
ENDBRANCH  17  21
ENDBRANCH  16  17
ENDBRANCH  15  16
ENDBRANCH  14  15
ENDBRANCH   1  14
BRANCH   1  23
ATOM     23  O   UNL     1       6.482   6.138  17.415  0.00  0.00    +0.000 OA
BRANCH  23  24
ATOM     24  C   UNL     1       7.546   6.526  18.303  0.00  0.00    +0.000 C 
BRANCH  24  25
ATOM     25  C   UNL     1       7.993   5.300  19.093  0.00  0.00    +0.000 C 
BRANCH  25  26
ATOM     26  O   UNL     1       7.962   5.582  20.491  0.00  0.00    +0.000 OA
ATOM     27  H   UNL     1       8.230   6.516  20.573  0.00  0.00    +0.000 HD
ENDBRANCH  25  26
ENDBRANCH  24  25
ENDBRANCH  23  24
ENDBRANCH   1  23
TORSDOF 12
ENDMDL
MODEL 6
REMARK VINA RESULT:      -6.0      1.929      2.893
REMARK  Name = 
REMARK  12 active torsions:
REMARK  status: ('A' for Active; 'I' for Inactive)
REMARK    1  A    between atoms: N_1  and  C_2
REMARK    2  A    between atoms: N_10  and  C_11
REMARK    3  A    between atoms: C_11  and  C_12
REMARK    4  A    between atoms: C_11  and  O_19
REMARK    5  A    between atoms: C_12  and  O_13
REMARK    6  A    between atoms: O_13  and  C_14
REMARK    7  A    between atoms: C_14  and  P_15
REMARK    8  A    between atoms: P_15  and  O_17
REMARK    9  A    between atoms: P_15  and  O_18
REMARK   10  A    between atoms: O_19  and  C_20
REMARK   11  A    between atoms: C_20  and  C_21
REMARK   12  A    between atoms: C_21  and  O_22
REMARK                            x       y       z     vdW  Elec       q    Type
REMARK                         _______ _______ _______ _____ _____    ______ ____
ROOT
ATOM      1  C   UNL     1       4.728   4.909  18.070  0.00  0.00    +0.000 C 
ENDROOT
BRANCH   1  10
ATOM      2  C   UNL     1       7.336   5.109  13.990  0.00  0.00    +0.000 A 
ATOM      3  N   UNL     1       6.599   4.193  13.322  0.00  0.00    +0.000 NA
ATOM      4  C   UNL     1       5.571   3.601  13.973  0.00  0.00    +0.000 A 
ATOM      5  N   UNL     1       5.148   3.799  15.242  0.00  0.00    +0.000 NA
ATOM      6  C   UNL     1       5.932   4.694  15.866  0.00  0.00    +0.000 A 
ATOM      7  C   UNL     1       7.031   5.356  15.339  0.00  0.00    +0.000 A 
ATOM      8  N   UNL     1       7.629   6.154  16.289  0.00  0.00    +0.000 NA
ATOM      9  C   UNL     1       6.889   6.005  17.366  0.00  0.00    +0.000 A 
ATOM     10  N   UNL     1       5.821   5.172  17.143  0.00  0.00    +0.000 N 
BRANCH   2  11
ATOM     11  N   UNL     1       8.362   5.759  13.321  0.00  0.00    +0.000 N 
ATOM     12  H   UNL     1       8.695   6.582  13.804  0.00  0.00    +0.000 HD
ATOM     13  H   UNL     1       8.228   5.811  12.317  0.00  0.00    +0.000 HD
ENDBRANCH   2  11
ENDBRANCH   1  10
BRANCH   1  14
ATOM     14  C   UNL     1       5.169   3.881  19.133  0.00  0.00    +0.000 C 
BRANCH  14  15
ATOM     15  O   UNL     1       4.334   2.710  19.121  0.00  0.00    +0.000 OA
BRANCH  15  16
ATOM     16  C   UNL     1       3.230   2.853  20.048  0.00  0.00    +0.000 C 
BRANCH  16  17
ATOM     17  P   UNL     1       1.634   2.497  19.228  0.00  0.00    +0.000 P 
ATOM     18  O   UNL     1       1.435   3.970  18.857  0.00  0.00    +0.000 OA
BRANCH  17  19
ATOM     19  O   UNL     1       2.396   1.827  17.941  0.00  0.00    +0.000 OA
ATOM     20  H   UNL     1       2.013   0.940  17.777  0.00  0.00    +0.000 HD
ENDBRANCH  17  19
BRANCH  17  21
ATOM     21  O   UNL     1       0.124   2.160  18.452  0.00  0.00    +0.000 OA
ATOM     22  H   UNL     1      -0.544   2.305  19.152  0.00  0.00    +0.000 HD
ENDBRANCH  17  21
ENDBRANCH  16  17
ENDBRANCH  15  16
ENDBRANCH  14  15
ENDBRANCH   1  14
BRANCH   1  23
ATOM     23  O   UNL     1       4.349   6.142  18.725  0.00  0.00    +0.000 OA
BRANCH  23  24
ATOM     24  C   UNL     1       3.310   6.857  18.033  0.00  0.00    +0.000 C 
BRANCH  24  25
ATOM     25  C   UNL     1       2.294   7.354  19.057  0.00  0.00    +0.000 C 
BRANCH  25  26
ATOM     26  O   UNL     1       2.365   6.561  20.240  0.00  0.00    +0.000 OA
ATOM     27  H   UNL     1       2.155   5.652  19.955  0.00  0.00    +0.000 HD
ENDBRANCH  25  26
ENDBRANCH  24  25
ENDBRANCH  23  24
ENDBRANCH   1  23
TORSDOF 12
ENDMDL
MODEL 7
REMARK VINA RESULT:      -6.0      2.184      4.903
REMARK  Name = 
REMARK  12 active torsions:
REMARK  status: ('A' for Active; 'I' for Inactive)
REMARK    1  A    between atoms: N_1  and  C_2
REMARK    2  A    between atoms: N_10  and  C_11
REMARK    3  A    between atoms: C_11  and  C_12
REMARK    4  A    between atoms: C_11  and  O_19
REMARK    5  A    between atoms: C_12  and  O_13
REMARK    6  A    between atoms: O_13  and  C_14
REMARK    7  A    between atoms: C_14  and  P_15
REMARK    8  A    between atoms: P_15  and  O_17
REMARK    9  A    between atoms: P_15  and  O_18
REMARK   10  A    between atoms: O_19  and  C_20
REMARK   11  A    between atoms: C_20  and  C_21
REMARK   12  A    between atoms: C_21  and  O_22
REMARK                            x       y       z     vdW  Elec       q    Type
REMARK                         _______ _______ _______ _____ _____    ______ ____
ROOT
ATOM      1  C   UNL     1       2.886   4.870  19.577  0.00  0.00    +0.000 C 
ENDROOT
BRANCH   1  10
ATOM      2  C   UNL     1       7.137   4.714  17.256  0.00  0.00    +0.000 A 
ATOM      3  N   UNL     1       7.869   5.175  18.295  0.00  0.00    +0.000 NA
ATOM      4  C   UNL     1       7.219   5.512  19.433  0.00  0.00    +0.000 A 
ATOM      5  N   UNL     1       5.896   5.451  19.702  0.00  0.00    +0.000 NA
ATOM      6  C   UNL     1       5.216   5.015  18.627  0.00  0.00    +0.000 A 
ATOM      7  C   UNL     1       5.740   4.662  17.393  0.00  0.00    +0.000 A 
ATOM      8  N   UNL     1       4.738   4.321  16.510  0.00  0.00    +0.000 NA
ATOM      9  C   UNL     1       3.628   4.434  17.206  0.00  0.00    +0.000 A 
ATOM     10  N   UNL     1       3.871   4.801  18.505  0.00  0.00    +0.000 N 
BRANCH   2  11
ATOM     11  N   UNL     1       7.794   4.318  16.099  0.00  0.00    +0.000 N 
ATOM     12  H   UNL     1       7.175   4.202  15.309  0.00  0.00    +0.000 HD
ATOM     13  H   UNL     1       8.512   3.620  16.254  0.00  0.00    +0.000 HD
ENDBRANCH   2  11
ENDBRANCH   1  10
BRANCH   1  14
ATOM     14  C   UNL     1       2.408   6.325  19.765  0.00  0.00    +0.000 C 
BRANCH  14  15
ATOM     15  O   UNL     1       1.897   6.882  18.541  0.00  0.00    +0.000 OA
BRANCH  15  16
ATOM     16  C   UNL     1       2.475   8.185  18.286  0.00  0.00    +0.000 C 
BRANCH  16  17
ATOM     17  P   UNL     1       1.171   9.457  18.106  0.00  0.00    +0.000 P 
ATOM     18  O   UNL     1       1.139   9.713  19.616  0.00  0.00    +0.000 OA
BRANCH  17  19
ATOM     19  O   UNL     1       2.247  10.537  17.507  0.00  0.00    +0.000 OA
ATOM     20  H   UNL     1       1.779  11.137  16.890  0.00  0.00    +0.000 HD
ENDBRANCH  17  19
BRANCH  17  21
ATOM     21  O   UNL     1      -0.062  10.659  17.936  0.00  0.00    +0.000 OA
ATOM     22  H   UNL     1      -0.897  10.149  17.937  0.00  0.00    +0.000 HD
ENDBRANCH  17  21
ENDBRANCH  16  17
ENDBRANCH  15  16
ENDBRANCH  14  15
ENDBRANCH   1  14
BRANCH   1  23
ATOM     23  O   UNL     1       1.755   4.034  19.242  0.00  0.00    +0.000 OA
BRANCH  23  24
ATOM     24  C   UNL     1       1.818   2.727  19.839  0.00  0.00    +0.000 C 
BRANCH  24  25
ATOM     25  C   UNL     1       1.468   2.848  21.320  0.00  0.00    +0.000 C 
BRANCH  25  26
ATOM     26  O   UNL     1       2.609   2.539  22.118  0.00  0.00    +0.000 OA
ATOM     27  H   UNL     1       2.299   1.886  22.772  0.00  0.00    +0.000 HD
ENDBRANCH  25  26
ENDBRANCH  24  25
ENDBRANCH  23  24
ENDBRANCH   1  23
TORSDOF 12
ENDMDL
MODEL 8
REMARK VINA RESULT:      -6.0      1.609      2.516
REMARK  Name = 
REMARK  12 active torsions:
REMARK  status: ('A' for Active; 'I' for Inactive)
REMARK    1  A    between atoms: N_1  and  C_2
REMARK    2  A    between atoms: N_10  and  C_11
REMARK    3  A    between atoms: C_11  and  C_12
REMARK    4  A    between atoms: C_11  and  O_19
REMARK    5  A    between atoms: C_12  and  O_13
REMARK    6  A    between atoms: O_13  and  C_14
REMARK    7  A    between atoms: C_14  and  P_15
REMARK    8  A    between atoms: P_15  and  O_17
REMARK    9  A    between atoms: P_15  and  O_18
REMARK   10  A    between atoms: O_19  and  C_20
REMARK   11  A    between atoms: C_20  and  C_21
REMARK   12  A    between atoms: C_21  and  O_22
REMARK                            x       y       z     vdW  Elec       q    Type
REMARK                         _______ _______ _______ _____ _____    ______ ____
ROOT
ATOM      1  C   UNL     1       4.508   5.236  17.906  0.00  0.00    +0.000 C 
ENDROOT
BRANCH   1  10
ATOM      2  C   UNL     1       7.411   5.182  14.027  0.00  0.00    +0.000 A 
ATOM      3  N   UNL     1       6.701   4.253  13.347  0.00  0.00    +0.000 NA
ATOM      4  C   UNL     1       5.614   3.717  13.947  0.00  0.00    +0.000 A 
ATOM      5  N   UNL     1       5.104   3.983  15.171  0.00  0.00    +0.000 NA
ATOM      6  C   UNL     1       5.864   4.889  15.810  0.00  0.00    +0.000 A 
ATOM      7  C   UNL     1       7.015   5.499  15.336  0.00  0.00    +0.000 A 
ATOM      8  N   UNL     1       7.563   6.328  16.291  0.00  0.00    +0.000 NA
ATOM      9  C   UNL     1       6.743   6.247  17.315  0.00  0.00    +0.000 A 
ATOM     10  N   UNL     1       5.673   5.429  17.052  0.00  0.00    +0.000 N 
BRANCH   2  11
ATOM     11  N   UNL     1       8.501   5.776  13.406  0.00  0.00    +0.000 N 
ATOM     12  H   UNL     1       8.725   5.362  12.512  0.00  0.00    +0.000 HD
ATOM     13  H   UNL     1       9.262   5.998  14.039  0.00  0.00    +0.000 HD
ENDBRANCH   2  11
ENDBRANCH   1  10
BRANCH   1  14
ATOM     14  C   UNL     1       4.886   4.379  19.133  0.00  0.00    +0.000 C 
BRANCH  14  15
ATOM     15  O   UNL     1       4.520   3.000  18.954  0.00  0.00    +0.000 OA
BRANCH  15  16
ATOM     16  C   UNL     1       3.371   2.879  18.080  0.00  0.00    +0.000 C 
BRANCH  16  17
ATOM     17  P   UNL     1       1.811   2.939  19.034  0.00  0.00    +0.000 P 
ATOM     18  O   UNL     1       1.045   3.529  17.845  0.00  0.00    +0.000 OA
BRANCH  17  19
ATOM     19  O   UNL     1       1.621   1.317  18.908  0.00  0.00    +0.000 OA
ATOM     20  H   UNL     1       1.030   1.128  18.150  0.00  0.00    +0.000 HD
ENDBRANCH  17  19
BRANCH  17  21
ATOM     21  O   UNL     1       0.335   2.996  19.936  0.00  0.00    +0.000 OA
ATOM     22  H   UNL     1       0.475   3.719  20.581  0.00  0.00    +0.000 HD
ENDBRANCH  17  21
ENDBRANCH  16  17
ENDBRANCH  15  16
ENDBRANCH  14  15
ENDBRANCH   1  14
BRANCH   1  23
ATOM     23  O   UNL     1       4.023   6.523  18.353  0.00  0.00    +0.000 OA
BRANCH  23  24
ATOM     24  C   UNL     1       2.625   6.729  18.082  0.00  0.00    +0.000 C 
BRANCH  24  25
ATOM     25  C   UNL     1       2.250   8.147  18.502  0.00  0.00    +0.000 C 
BRANCH  25  26
ATOM     26  O   UNL     1       2.187   8.995  17.357  0.00  0.00    +0.000 OA
ATOM     27  H   UNL     1       2.034   8.399  16.601  0.00  0.00    +0.000 HD
ENDBRANCH  25  26
ENDBRANCH  24  25
ENDBRANCH  23  24
ENDBRANCH   1  23
TORSDOF 12
ENDMDL
MODEL 9
REMARK VINA RESULT:      -6.0      0.971      1.223
REMARK  Name = 
REMARK  12 active torsions:
REMARK  status: ('A' for Active; 'I' for Inactive)
REMARK    1  A    between atoms: N_1  and  C_2
REMARK    2  A    between atoms: N_10  and  C_11
REMARK    3  A    between atoms: C_11  and  C_12
REMARK    4  A    between atoms: C_11  and  O_19
REMARK    5  A    between atoms: C_12  and  O_13
REMARK    6  A    between atoms: O_13  and  C_14
REMARK    7  A    between atoms: C_14  and  P_15
REMARK    8  A    between atoms: P_15  and  O_17
REMARK    9  A    between atoms: P_15  and  O_18
REMARK   10  A    between atoms: O_19  and  C_20
REMARK   11  A    between atoms: C_20  and  C_21
REMARK   12  A    between atoms: C_21  and  O_22
REMARK                            x       y       z     vdW  Elec       q    Type
REMARK                         _______ _______ _______ _____ _____    ______ ____
ROOT
ATOM      1  C   UNL     1       2.799   5.768  18.029  0.00  0.00    +0.000 C 
ENDROOT
BRANCH   1  10
ATOM      2  C   UNL     1       7.438   4.564  17.316  0.00  0.00    +0.000 A 
ATOM      3  N   UNL     1       7.394   4.672  15.969  0.00  0.00    +0.000 NA
ATOM      4  C   UNL     1       6.211   4.986  15.393  0.00  0.00    +0.000 A 
ATOM      5  N   UNL     1       5.018   5.224  15.983  0.00  0.00    +0.000 NA
ATOM      6  C   UNL     1       5.114   5.074  17.316  0.00  0.00    +0.000 A 
ATOM      7  C   UNL     1       6.245   4.728  18.039  0.00  0.00    +0.000 A 
ATOM      8  N   UNL     1       5.955   4.607  19.381  0.00  0.00    +0.000 NA
ATOM      9  C   UNL     1       4.678   4.905  19.475  0.00  0.00    +0.000 A 
ATOM     10  N   UNL     1       4.139   5.245  18.259  0.00  0.00    +0.000 N 
BRANCH   2  11
ATOM     11  N   UNL     1       8.654   4.289  17.925  0.00  0.00    +0.000 N 
ATOM     12  H   UNL     1       8.827   3.300  18.044  0.00  0.00    +0.000 HD
ATOM     13  H   UNL     1       8.878   4.912  18.694  0.00  0.00    +0.000 HD
ENDBRANCH   2  11
ENDBRANCH   1  10
BRANCH   1  14
ATOM     14  C   UNL     1       1.871   4.645  17.521  0.00  0.00    +0.000 C 
BRANCH  14  15
ATOM     15  O   UNL     1       0.934   4.229  18.530  0.00  0.00    +0.000 OA
BRANCH  15  16
ATOM     16  C   UNL     1       1.148   2.844  18.895  0.00  0.00    +0.000 C 
BRANCH  16  17
ATOM     17  P   UNL     1       1.421   2.674  20.696  0.00  0.00    +0.000 P 
ATOM     18  O   UNL     1       2.921   2.432  20.499  0.00  0.00    +0.000 OA
BRANCH  17  19
ATOM     19  O   UNL     1       1.269   4.290  20.915  0.00  0.00    +0.000 OA
ATOM     20  H   UNL     1       0.885   4.682  20.104  0.00  0.00    +0.000 HD
ENDBRANCH  17  19
BRANCH  17  21
ATOM     21  O   UNL     1       1.679   2.513  22.400  0.00  0.00    +0.000 OA
ATOM     22  H   UNL     1       2.462   1.931  22.470  0.00  0.00    +0.000 HD
ENDBRANCH  17  21
ENDBRANCH  16  17
ENDBRANCH  15  16
ENDBRANCH  14  15
ENDBRANCH   1  14
BRANCH   1  23
ATOM     23  O   UNL     1       2.273   6.300  19.268  0.00  0.00    +0.000 OA
BRANCH  23  24
ATOM     24  C   UNL     1       2.216   7.737  19.290  0.00  0.00    +0.000 C 
BRANCH  24  25
ATOM     25  C   UNL     1       1.718   8.226  17.932  0.00  0.00    +0.000 C 
BRANCH  25  26
ATOM     26  O   UNL     1       2.428   9.402  17.547  0.00  0.00    +0.000 OA
ATOM     27  H   UNL     1       3.029   9.119  16.833  0.00  0.00    +0.000 HD
ENDBRANCH  25  26
ENDBRANCH  24  25
ENDBRANCH  23  24
ENDBRANCH   1  23
TORSDOF 12
ENDMDL
