MODEL 1
REMARK VINA RESULT:      -4.6      0.000      0.000
REMARK  Name = 
REMARK  3 active torsions:
REMARK  status: ('A' for Active; 'I' for Inactive)
REMARK    1  A    between atoms: C_1  and  O_2
REMARK    2  A    between atoms: O_2  and  C_3
REMARK    3  A    between atoms: C_3  and  C_5
REMARK                            x       y       z     vdW  Elec       q    Type
REMARK                         _______ _______ _______ _____ _____    ______ ____
ROOT
ATOM      1  C   UNL     1       6.712   5.116  16.109  0.00  0.00    +0.000 C 
ATOM      2  C   UNL     1       5.954   3.863  15.710  0.00  0.00    +0.000 C 
ATOM      3  C   UNL     1       5.780   4.029  14.212  0.00  0.00    +0.000 C 
ATOM      4  C   UNL     1       6.985   4.850  13.772  0.00  0.00    +0.000 C 
ATOM      5  N   UNL     1       7.676   5.256  14.994  0.00  0.00    +0.000 NA
ATOM      6  H   UNL     1       8.017   6.214  14.939  0.00  0.00    +0.000 HD
ENDROOT
BRANCH   1   7
ATOM      7  C   UNL     1       7.388   4.960  17.470  0.00  0.00    +0.000 C 
ATOM      8  O   UNL     1       8.259   4.128  17.710  0.00  0.00    +0.000 OA
BRANCH   7  10
ATOM      9  C   UNL     1       5.862   5.175  19.227  0.00  0.00    +0.000 C 
ATOM     10  O   UNL     1       6.850   5.796  18.404  0.00  0.00    +0.000 OA
ENDBRANCH   7  10
ENDBRANCH   1   7
TORSDOF 2
ENDMDL
MODEL 2
REMARK VINA RESULT:      -4.5      2.130      3.874
REMARK  Name = 
REMARK  3 active torsions:
REMARK  status: ('A' for Active; 'I' for Inactive)
REMARK    1  A    between atoms: C_1  and  O_2
REMARK    2  A    between atoms: O_2  and  C_3
REMARK    3  A    between atoms: C_3  and  C_5
REMARK                            x       y       z     vdW  Elec       q    Type
REMARK                         _______ _______ _______ _____ _____    ______ ____
ROOT
ATOM      1  C   UNL     1       5.882   4.490  18.105  0.00  0.00    +0.000 C 
ATOM      2  C   UNL     1       5.180   5.643  18.799  0.00  0.00    +0.000 C 
ATOM      3  C   UNL     1       3.831   5.054  19.166  0.00  0.00    +0.000 C 
ATOM      4  C   UNL     1       4.099   3.568  19.362  0.00  0.00    +0.000 C 
ATOM      5  N   UNL     1       5.482   3.340  18.948  0.00  0.00    +0.000 NA
ATOM      6  H   UNL     1       5.586   2.469  18.430  0.00  0.00    +0.000 HD
ENDROOT
BRANCH   1   7
ATOM      7  C   UNL     1       7.394   4.696  18.051  0.00  0.00    +0.000 C 
ATOM      8  O   UNL     1       8.064   5.100  18.999  0.00  0.00    +0.000 OA
BRANCH   7  10
ATOM      9  C   UNL     1       6.913   4.526  15.770  0.00  0.00    +0.000 C 
ATOM     10  O   UNL     1       7.896   4.460  16.805  0.00  0.00    +0.000 OA
ENDBRANCH   7  10
ENDBRANCH   1   7
TORSDOF 2
ENDMDL
MODEL 3
REMARK VINA RESULT:      -4.5      1.934      3.700
REMARK  Name = 
REMARK  3 active torsions:
REMARK  status: ('A' for Active; 'I' for Inactive)
REMARK    1  A    between atoms: C_1  and  O_2
REMARK    2  A    between atoms: O_2  and  C_3
REMARK    3  A    between atoms: C_3  and  C_5
REMARK                            x       y       z     vdW  Elec       q    Type
REMARK                         _______ _______ _______ _____ _____    ______ ____
ROOT
ATOM      1  C   UNL     1       5.847   4.872  17.384  0.00  0.00    +0.000 C 
ATOM      2  C   UNL     1       5.864   5.387  18.811  0.00  0.00    +0.000 C 
ATOM      3  C   UNL     1       4.506   4.971  19.343  0.00  0.00    +0.000 C 
ATOM      4  C   UNL     1       4.156   3.709  18.566  0.00  0.00    +0.000 C 
ATOM      5  N   UNL     1       5.190   3.555  17.543  0.00  0.00    +0.000 NA
ATOM      6  H   UNL     1       4.803   3.242  16.655  0.00  0.00    +0.000 HD
ENDROOT
BRANCH   1   7
ATOM      7  C   UNL     1       7.255   4.773  16.800  0.00  0.00    +0.000 C 
ATOM      8  O   UNL     1       8.184   4.187  17.350  0.00  0.00    +0.000 OA
BRANCH   7  10
ATOM      9  C   UNL     1       6.843   4.808  14.499  0.00  0.00    +0.000 C 
ATOM     10  O   UNL     1       7.376   5.482  15.641  0.00  0.00    +0.000 OA
ENDBRANCH   7  10
ENDBRANCH   1   7
TORSDOF 2
ENDMDL
MODEL 4
REMARK VINA RESULT:      -4.5      3.644      4.211
REMARK  Name = 
REMARK  3 active torsions:
REMARK  status: ('A' for Active; 'I' for Inactive)
REMARK    1  A    between atoms: C_1  and  O_2
REMARK    2  A    between atoms: O_2  and  C_3
REMARK    3  A    between atoms: C_3  and  C_5
REMARK                            x       y       z     vdW  Elec       q    Type
REMARK                         _______ _______ _______ _____ _____    ______ ____
ROOT
ATOM      1  C   UNL     1       4.545   3.781  18.996  0.00  0.00    +0.000 C 
ATOM      2  C   UNL     1       3.921   3.581  17.627  0.00  0.00    +0.000 C 
ATOM      3  C   UNL     1       4.726   4.514  16.743  0.00  0.00    +0.000 C 
ATOM      4  C   UNL     1       6.099   4.578  17.397  0.00  0.00    +0.000 C 
ATOM      5  N   UNL     1       5.985   3.859  18.665  0.00  0.00    +0.000 NA
ATOM      6  H   UNL     1       6.496   4.324  19.413  0.00  0.00    +0.000 HD
ENDROOT
BRANCH   1   7
ATOM      7  C   UNL     1       4.209   2.633  19.946  0.00  0.00    +0.000 C 
ATOM      8  O   UNL     1       5.048   1.875  20.427  0.00  0.00    +0.000 OA
BRANCH   7  10
ATOM      9  C   UNL     1       2.440   2.738  21.470  0.00  0.00    +0.000 C 
ATOM     10  O   UNL     1       2.863   2.499  20.127  0.00  0.00    +0.000 OA
ENDBRANCH   7  10
ENDBRANCH   1   7
TORSDOF 2
ENDMDL
MODEL 5
REMARK VINA RESULT:      -4.5      2.500      3.281
REMARK  Name = 
REMARK  3 active torsions:
REMARK  status: ('A' for Active; 'I' for Inactive)
REMARK    1  A    between atoms: C_1  and  O_2
REMARK    2  A    between atoms: O_2  and  C_3
REMARK    3  A    between atoms: C_3  and  C_5
REMARK                            x       y       z     vdW  Elec       q    Type
REMARK                         _______ _______ _______ _____ _____    ______ ____
ROOT
ATOM      1  C   UNL     1       5.696   4.122  17.345  0.00  0.00    +0.000 C 
ATOM      2  C   UNL     1       4.700   5.260  17.227  0.00  0.00    +0.000 C 
ATOM      3  C   UNL     1       3.432   4.672  17.817  0.00  0.00    +0.000 C 
ATOM      4  C   UNL     1       3.919   3.653  18.839  0.00  0.00    +0.000 C 
ATOM      5  N   UNL     1       5.370   3.570  18.680  0.00  0.00    +0.000 NA
ATOM      6  H   UNL     1       5.707   2.612  18.760  0.00  0.00    +0.000 HD
ENDROOT
BRANCH   1   7
ATOM      7  C   UNL     1       7.137   4.615  17.237  0.00  0.00    +0.000 C 
ATOM      8  O   UNL     1       7.703   4.848  16.172  0.00  0.00    +0.000 OA
BRANCH   7  10
ATOM      9  C   UNL     1       7.884   6.019  18.951  0.00  0.00    +0.000 C 
ATOM     10  O   UNL     1       7.744   4.686  18.457  0.00  0.00    +0.000 OA
ENDBRANCH   7  10
ENDBRANCH   1   7
TORSDOF 2
ENDMDL
MODEL 6
REMARK VINA RESULT:      -4.4      2.299      4.001
REMARK  Name = 
REMARK  3 active torsions:
REMARK  status: ('A' for Active; 'I' for Inactive)
REMARK    1  A    between atoms: C_1  and  O_2
REMARK    2  A    between atoms: O_2  and  C_3
REMARK    3  A    between atoms: C_3  and  C_5
REMARK                            x       y       z     vdW  Elec       q    Type
REMARK                         _______ _______ _______ _____ _____    ______ ____
ROOT
ATOM      1  C   UNL     1       6.909   5.127  16.696  0.00  0.00    +0.000 C 
ATOM      2  C   UNL     1       7.317   6.552  17.019  0.00  0.00    +0.000 C 
ATOM      3  C   UNL     1       7.528   6.518  18.521  0.00  0.00    +0.000 C 
ATOM      4  C   UNL     1       7.960   5.089  18.818  0.00  0.00    +0.000 C 
ATOM      5  N   UNL     1       7.817   4.346  17.567  0.00  0.00    +0.000 NA
ATOM      6  H   UNL     1       7.444   3.411  17.720  0.00  0.00    +0.000 HD
ENDROOT
BRANCH   1   7
ATOM      7  C   UNL     1       7.083   4.810  15.212  0.00  0.00    +0.000 C 
ATOM      8  O   UNL     1       7.792   5.463  14.451  0.00  0.00    +0.000 OA
BRANCH   7  10
ATOM      9  C   UNL     1       6.065   3.724  13.410  0.00  0.00    +0.000 C 
ATOM     10  O   UNL     1       6.294   3.768  14.819  0.00  0.00    +0.000 OA
ENDBRANCH   7  10
ENDBRANCH   1   7
TORSDOF 2
ENDMDL
MODEL 7
REMARK VINA RESULT:      -4.4      2.369      3.350
REMARK  Name = 
REMARK  3 active torsions:
REMARK  status: ('A' for Active; 'I' for Inactive)
REMARK    1  A    between atoms: C_1  and  O_2
REMARK    2  A    between atoms: O_2  and  C_3
REMARK    3  A    between atoms: C_3  and  C_5
REMARK                            x       y       z     vdW  Elec       q    Type
REMARK                         _______ _______ _______ _____ _____    ______ ____
ROOT
ATOM      1  C   UNL     1       5.622   4.327  17.190  0.00  0.00    +0.000 C 
ATOM      2  C   UNL     1       4.441   5.280  17.212  0.00  0.00    +0.000 C 
ATOM      3  C   UNL     1       3.422   4.547  18.063  0.00  0.00    +0.000 C 
ATOM      4  C   UNL     1       4.253   3.702  19.018  0.00  0.00    +0.000 C 
ATOM      5  N   UNL     1       5.643   3.837  18.587  0.00  0.00    +0.000 NA
ATOM      6  H   UNL     1       6.147   2.954  18.645  0.00  0.00    +0.000 HD
ENDROOT
BRANCH   1   7
ATOM      7  C   UNL     1       6.913   5.033  16.782  0.00  0.00    +0.000 C 
ATOM      8  O   UNL     1       8.005   4.475  16.712  0.00  0.00    +0.000 OA
BRANCH   7  10
ATOM      9  C   UNL     1       7.502   7.192  17.457  0.00  0.00    +0.000 C 
ATOM     10  O   UNL     1       6.722   6.370  16.587  0.00  0.00    +0.000 OA
ENDBRANCH   7  10
ENDBRANCH   1   7
TORSDOF 2
ENDMDL
MODEL 8
REMARK VINA RESULT:      -4.4      2.059      3.709
REMARK  Name = 
REMARK  3 active torsions:
REMARK  status: ('A' for Active; 'I' for Inactive)
REMARK    1  A    between atoms: C_1  and  O_2
REMARK    2  A    between atoms: O_2  and  C_3
REMARK    3  A    between atoms: C_3  and  C_5
REMARK                            x       y       z     vdW  Elec       q    Type
REMARK                         _______ _______ _______ _____ _____    ______ ____
ROOT
ATOM      1  C   UNL     1       5.884   4.819  17.020  0.00  0.00    +0.000 C 
ATOM      2  C   UNL     1       4.836   5.824  17.460  0.00  0.00    +0.000 C 
ATOM      3  C   UNL     1       4.041   5.059  18.502  0.00  0.00    +0.000 C 
ATOM      4  C   UNL     1       5.038   4.079  19.104  0.00  0.00    +0.000 C 
ATOM      5  N   UNL     1       6.257   4.187  18.305  0.00  0.00    +0.000 NA
ATOM      6  H   UNL     1       6.687   3.278  18.141  0.00  0.00    +0.000 HD
ENDROOT
BRANCH   1   7
ATOM      7  C   UNL     1       7.061   5.496  16.321  0.00  0.00    +0.000 C 
ATOM      8  O   UNL     1       7.508   6.594  16.642  0.00  0.00    +0.000 OA
BRANCH   7  10
ATOM      9  C   UNL     1       6.446   4.165  14.500  0.00  0.00    +0.000 C 
ATOM     10  O   UNL     1       7.498   4.776  15.248  0.00  0.00    +0.000 OA
ENDBRANCH   7  10
ENDBRANCH   1   7
TORSDOF 2
ENDMDL
MODEL 9
REMARK VINA RESULT:      -4.4      0.943      1.163
REMARK  Name = 
REMARK  3 active torsions:
REMARK  status: ('A' for Active; 'I' for Inactive)
REMARK    1  A    between atoms: C_1  and  O_2
REMARK    2  A    between atoms: O_2  and  C_3
REMARK    3  A    between atoms: C_3  and  C_5
REMARK                            x       y       z     vdW  Elec       q    Type
REMARK                         _______ _______ _______ _____ _____    ______ ____
ROOT
ATOM      1  C   UNL     1       6.663   5.294  16.155  0.00  0.00    +0.000 C 
ATOM      2  C   UNL     1       5.938   3.991  15.872  0.00  0.00    +0.000 C 
ATOM      3  C   UNL     1       5.801   3.995  14.361  0.00  0.00    +0.000 C 
ATOM      4  C   UNL     1       7.002   4.789  13.866  0.00  0.00    +0.000 C 
ATOM      5  N   UNL     1       7.653   5.336  15.055  0.00  0.00    +0.000 NA
ATOM      6  H   UNL     1       7.978   6.290  14.907  0.00  0.00    +0.000 HD
ENDROOT
BRANCH   1   7
ATOM      7  C   UNL     1       7.306   5.295  17.540  0.00  0.00    +0.000 C 
ATOM      8  O   UNL     1       7.955   4.357  17.995  0.00  0.00    +0.000 OA
BRANCH   7  10
ATOM      9  C   UNL     1       7.762   7.568  17.844  0.00  0.00    +0.000 C 
ATOM     10  O   UNL     1       7.002   6.426  18.241  0.00  0.00    +0.000 OA
ENDBRANCH   7  10
ENDBRANCH   1   7
TORSDOF 2
ENDMDL
