MODEL 1
REMARK VINA RESULT:      -7.9      0.000      0.000
REMARK  Name = 
REMARK  5 active torsions:
REMARK  status: ('A' for Active; 'I' for Inactive)
REMARK    1  A    between atoms: C_2  and  C_3
REMARK    2  A    between atoms: C_3  and  S_4
REMARK    3  A    between atoms: S_4  and  C_5
REMARK    4  A    between atoms: C_9  and  C_10
REMARK    5  A    between atoms: C_16  and  C_18
REMARK                            x       y       z     vdW  Elec       q    Type
REMARK                         _______ _______ _______ _____ _____    ______ ____
ROOT
ATOM      1  O   UNL     1       7.843   6.878  16.724  0.00  0.00    +0.000 OA
ATOM      2  C   UNL     1       6.805   6.225  16.665  0.00  0.00    +0.000 C 
ATOM      3  N   UNL     1       6.394   5.473  15.573  0.00  0.00    +0.000 N 
ATOM      4  C   UNL     1       7.123   5.224  14.422  0.00  0.00    +0.000 C 
ATOM      5  O   UNL     1       8.210   5.722  14.143  0.00  0.00    +0.000 OA
ATOM      6  H   UNL     1       5.496   5.026  15.676  0.00  0.00    +0.000 HD
ENDROOT
BRANCH   4   7
ATOM      7  C   UNL     1       6.471   4.323  13.424  0.00  0.00    +0.000 A 
ATOM      8  C   UNL     1       7.278   3.722  12.445  0.00  0.00    +0.000 A 
ATOM      9  C   UNL     1       6.712   2.909  11.463  0.00  0.00    +0.000 A 
ATOM     10  C   UNL     1       5.338   2.677  11.457  0.00  0.00    +0.000 A 
ATOM     11  C   UNL     1       4.532   3.244  12.443  0.00  0.00    +0.000 A 
ATOM     12  C   UNL     1       5.093   4.058  13.429  0.00  0.00    +0.000 A 
ENDBRANCH   4   7
BRANCH   2  13
ATOM     13  C   UNL     1       5.787   6.310  17.803  0.00  0.00    +0.000 C 
BRANCH  13  14
ATOM     14  S   UNL     1       4.081   6.033  17.204  0.00  0.00    +0.000 S 
BRANCH  14  15
ATOM     15  C   UNL     1       3.582   4.515  18.010  0.00  0.00    +0.000 A 
ATOM     16  C   UNL     1       3.466   3.383  17.191  0.00  0.00    +0.000 A 
ATOM     17  C   UNL     1       2.933   2.190  17.682  0.00  0.00    +0.000 A 
ATOM     18  C   UNL     1       2.504   2.115  19.004  0.00  0.00    +0.000 A 
ATOM     19  C   UNL     1       2.622   3.226  19.851  0.00  0.00    +0.000 A 
ATOM     20  C   UNL     1       3.176   4.422  19.347  0.00  0.00    +0.000 A 
BRANCH  19  21
ATOM     21  C   UNL     1       2.117   3.156  21.273  0.00  0.00    +0.000 C 
ATOM     22  F   UNL     1       0.765   3.008  21.367  0.00  0.00    +0.000 F 
ATOM     23  F   UNL     1       2.655   2.119  21.970  0.00  0.00    +0.000 F 
ATOM     24  F   UNL     1       2.416   4.280  21.983  0.00  0.00    +0.000 F 
ENDBRANCH  19  21
ENDBRANCH  14  15
ENDBRANCH  13  14
ENDBRANCH   2  13
TORSDOF 5
ENDMDL
MODEL 2
REMARK VINA RESULT:      -7.9      1.356      2.054
REMARK  Name = 
REMARK  5 active torsions:
REMARK  status: ('A' for Active; 'I' for Inactive)
REMARK    1  A    between atoms: C_2  and  C_3
REMARK    2  A    between atoms: C_3  and  S_4
REMARK    3  A    between atoms: S_4  and  C_5
REMARK    4  A    between atoms: C_9  and  C_10
REMARK    5  A    between atoms: C_16  and  C_18
REMARK                            x       y       z     vdW  Elec       q    Type
REMARK                         _______ _______ _______ _____ _____    ______ ____
ROOT
ATOM      1  O   UNL     1       7.718   6.771  16.660  0.00  0.00    +0.000 OA
ATOM      2  C   UNL     1       6.714   6.067  16.593  0.00  0.00    +0.000 C 
ATOM      3  N   UNL     1       6.339   5.311  15.491  0.00  0.00    +0.000 N 
ATOM      4  C   UNL     1       7.078   5.116  14.336  0.00  0.00    +0.000 C 
ATOM      5  O   UNL     1       8.136   5.672  14.062  0.00  0.00    +0.000 OA
ATOM      6  H   UNL     1       5.466   4.817  15.589  0.00  0.00    +0.000 HD
ENDROOT
BRANCH   4   7
ATOM      7  C   UNL     1       6.469   4.198  13.325  0.00  0.00    +0.000 A 
ATOM      8  C   UNL     1       7.320   3.572  12.400  0.00  0.00    +0.000 A 
ATOM      9  C   UNL     1       6.797   2.741  11.408  0.00  0.00    +0.000 A 
ATOM     10  C   UNL     1       5.423   2.517  11.339  0.00  0.00    +0.000 A 
ATOM     11  C   UNL     1       4.574   3.109  12.273  0.00  0.00    +0.000 A 
ATOM     12  C   UNL     1       5.091   3.941  13.269  0.00  0.00    +0.000 A 
ENDBRANCH   4   7
BRANCH   2  13
ATOM     13  C   UNL     1       5.696   6.084  17.734  0.00  0.00    +0.000 C 
BRANCH  13  14
ATOM     14  S   UNL     1       4.052   6.645  17.162  0.00  0.00    +0.000 S 
BRANCH  14  15
ATOM     15  C   UNL     1       2.920   5.970  18.373  0.00  0.00    +0.000 A 
ATOM     16  C   UNL     1       2.563   6.816  19.433  0.00  0.00    +0.000 A 
ATOM     17  C   UNL     1       1.816   6.342  20.512  0.00  0.00    +0.000 A 
ATOM     18  C   UNL     1       1.420   5.008  20.549  0.00  0.00    +0.000 A 
ATOM     19  C   UNL     1       1.750   4.142  19.498  0.00  0.00    +0.000 A 
ATOM     20  C   UNL     1       2.492   4.637  18.404  0.00  0.00    +0.000 A 
BRANCH  19  21
ATOM     21  C   UNL     1       1.355   2.685  19.559  0.00  0.00    +0.000 C 
ATOM     22  F   UNL     1       0.973   2.274  20.801  0.00  0.00    +0.000 F 
ATOM     23  F   UNL     1       0.318   2.388  18.730  0.00  0.00    +0.000 F 
ATOM     24  F   UNL     1       2.375   1.859  19.193  0.00  0.00    +0.000 F 
ENDBRANCH  19  21
ENDBRANCH  14  15
ENDBRANCH  13  14
ENDBRANCH   2  13
TORSDOF 5
ENDMDL
MODEL 3
REMARK VINA RESULT:      -7.8      3.460      4.308
REMARK  Name = 
REMARK  5 active torsions:
REMARK  status: ('A' for Active; 'I' for Inactive)
REMARK    1  A    between atoms: C_2  and  C_3
REMARK    2  A    between atoms: C_3  and  S_4
REMARK    3  A    between atoms: S_4  and  C_5
REMARK    4  A    between atoms: C_9  and  C_10
REMARK    5  A    between atoms: C_16  and  C_18
REMARK                            x       y       z     vdW  Elec       q    Type
REMARK                         _______ _______ _______ _____ _____    ______ ____
ROOT
ATOM      1  O   UNL     1       5.998   4.375  18.889  0.00  0.00    +0.000 OA
ATOM      2  C   UNL     1       5.196   4.304  17.962  0.00  0.00    +0.000 C 
ATOM      3  N   UNL     1       5.522   4.381  16.615  0.00  0.00    +0.000 N 
ATOM      4  C   UNL     1       6.797   4.421  16.076  0.00  0.00    +0.000 C 
ATOM      5  O   UNL     1       7.841   4.506  16.716  0.00  0.00    +0.000 OA
ATOM      6  H   UNL     1       4.737   4.341  15.983  0.00  0.00    +0.000 HD
ENDROOT
BRANCH   4   7
ATOM      7  C   UNL     1       6.870   4.434  14.583  0.00  0.00    +0.000 A 
ATOM      8  C   UNL     1       6.043   3.552  13.871  0.00  0.00    +0.000 A 
ATOM      9  C   UNL     1       6.105   3.492  12.478  0.00  0.00    +0.000 A 
ATOM     10  C   UNL     1       6.983   4.322  11.784  0.00  0.00    +0.000 A 
ATOM     11  C   UNL     1       7.787   5.223  12.480  0.00  0.00    +0.000 A 
ATOM     12  C   UNL     1       7.728   5.288  13.875  0.00  0.00    +0.000 A 
ENDBRANCH   4   7
BRANCH   2  13
ATOM     13  C   UNL     1       3.696   4.256  18.256  0.00  0.00    +0.000 C 
BRANCH  13  14
ATOM     14  S   UNL     1       3.305   4.987  19.886  0.00  0.00    +0.000 S 
BRANCH  14  15
ATOM     15  C   UNL     1       2.509   6.538  19.484  0.00  0.00    +0.000 A 
ATOM     16  C   UNL     1       2.743   7.044  18.197  0.00  0.00    +0.000 A 
ATOM     17  C   UNL     1       2.303   8.318  17.833  0.00  0.00    +0.000 A 
ATOM     18  C   UNL     1       1.625   9.108  18.757  0.00  0.00    +0.000 A 
ATOM     19  C   UNL     1       1.363   8.623  20.046  0.00  0.00    +0.000 A 
ATOM     20  C   UNL     1       1.799   7.327  20.397  0.00  0.00    +0.000 A 
BRANCH  19  21
ATOM     21  C   UNL     1       0.665   9.497  21.061  0.00  0.00    +0.000 C 
ATOM     22  F   UNL     1      -0.656   9.701  20.789  0.00  0.00    +0.000 F 
ATOM     23  F   UNL     1       0.712   8.980  22.318  0.00  0.00    +0.000 F 
ATOM     24  F   UNL     1       1.221  10.738  21.144  0.00  0.00    +0.000 F 
ENDBRANCH  19  21
ENDBRANCH  14  15
ENDBRANCH  13  14
ENDBRANCH   2  13
TORSDOF 5
ENDMDL
MODEL 4
REMARK VINA RESULT:      -7.8      1.093      1.479
REMARK  Name = 
REMARK  5 active torsions:
REMARK  status: ('A' for Active; 'I' for Inactive)
REMARK    1  A    between atoms: C_2  and  C_3
REMARK    2  A    between atoms: C_3  and  S_4
REMARK    3  A    between atoms: S_4  and  C_5
REMARK    4  A    between atoms: C_9  and  C_10
REMARK    5  A    between atoms: C_16  and  C_18
REMARK                            x       y       z     vdW  Elec       q    Type
REMARK                         _______ _______ _______ _____ _____    ______ ____
ROOT
ATOM      1  O   UNL     1       7.875   6.240  15.875  0.00  0.00    +0.000 OA
ATOM      2  C   UNL     1       7.245   5.192  15.973  0.00  0.00    +0.000 C 
ATOM      3  N   UNL     1       6.785   4.432  14.907  0.00  0.00    +0.000 N 
ATOM      4  C   UNL     1       7.056   4.646  13.565  0.00  0.00    +0.000 C 
ATOM      5  O   UNL     1       7.659   5.608  13.102  0.00  0.00    +0.000 OA
ATOM      6  H   UNL     1       6.252   3.615  15.163  0.00  0.00    +0.000 HD
ENDROOT
BRANCH   4   7
ATOM      7  C   UNL     1       6.488   3.635  12.621  0.00  0.00    +0.000 A 
ATOM      8  C   UNL     1       7.376   2.770  11.963  0.00  0.00    +0.000 A 
ATOM      9  C   UNL     1       6.903   1.839  11.038  0.00  0.00    +0.000 A 
ATOM     10  C   UNL     1       5.537   1.755  10.771  0.00  0.00    +0.000 A 
ATOM     11  C   UNL     1       4.644   2.589  11.442  0.00  0.00    +0.000 A 
ATOM     12  C   UNL     1       5.113   3.521  12.371  0.00  0.00    +0.000 A 
ENDBRANCH   4   7
BRANCH   2  13
ATOM     13  C   UNL     1       6.793   4.702  17.350  0.00  0.00    +0.000 C 
BRANCH  13  14
ATOM     14  S   UNL     1       5.472   5.759  18.042  0.00  0.00    +0.000 S 
BRANCH  14  15
ATOM     15  C   UNL     1       4.107   4.631  18.300  0.00  0.00    +0.000 A 
ATOM     16  C   UNL     1       3.704   3.875  17.190  0.00  0.00    +0.000 A 
ATOM     17  C   UNL     1       2.555   3.084  17.236  0.00  0.00    +0.000 A 
ATOM     18  C   UNL     1       1.788   3.042  18.397  0.00  0.00    +0.000 A 
ATOM     19  C   UNL     1       2.174   3.776  19.527  0.00  0.00    +0.000 A 
ATOM     20  C   UNL     1       3.347   4.560  19.473  0.00  0.00    +0.000 A 
BRANCH  19  21
ATOM     21  C   UNL     1       1.318   3.763  20.772  0.00  0.00    +0.000 C 
ATOM     22  F   UNL     1       2.029   3.907  21.926  0.00  0.00    +0.000 F 
ATOM     23  F   UNL     1       0.389   4.757  20.779  0.00  0.00    +0.000 F 
ATOM     24  F   UNL     1       0.623   2.600  20.909  0.00  0.00    +0.000 F 
ENDBRANCH  19  21
ENDBRANCH  14  15
ENDBRANCH  13  14
ENDBRANCH   2  13
TORSDOF 5
ENDMDL
MODEL 5
REMARK VINA RESULT:      -7.7      1.184      1.821
REMARK  Name = 
REMARK  5 active torsions:
REMARK  status: ('A' for Active; 'I' for Inactive)
REMARK    1  A    between atoms: C_2  and  C_3
REMARK    2  A    between atoms: C_3  and  S_4
REMARK    3  A    between atoms: S_4  and  C_5
REMARK    4  A    between atoms: C_9  and  C_10
REMARK    5  A    between atoms: C_16  and  C_18
REMARK                            x       y       z     vdW  Elec       q    Type
REMARK                         _______ _______ _______ _____ _____    ______ ____
ROOT
ATOM      1  O   UNL     1       6.574   5.701  18.856  0.00  0.00    +0.000 OA
ATOM      2  C   UNL     1       5.829   6.031  17.937  0.00  0.00    +0.000 C 
ATOM      3  N   UNL     1       6.026   5.723  16.598  0.00  0.00    +0.000 N 
ATOM      4  C   UNL     1       7.009   4.897  16.078  0.00  0.00    +0.000 C 
ATOM      5  O   UNL     1       7.930   4.393  16.714  0.00  0.00    +0.000 OA
ATOM      6  H   UNL     1       5.337   6.102  15.967  0.00  0.00    +0.000 HD
ENDROOT
BRANCH   4   7
ATOM      7  C   UNL     1       6.957   4.679  14.600  0.00  0.00    +0.000 A 
ATOM      8  C   UNL     1       6.060   3.722  14.102  0.00  0.00    +0.000 A 
ATOM      9  C   UNL     1       6.004   3.448  12.735  0.00  0.00    +0.000 A 
ATOM     10  C   UNL     1       6.834   4.137  11.852  0.00  0.00    +0.000 A 
ATOM     11  C   UNL     1       7.707   5.111  12.334  0.00  0.00    +0.000 A 
ATOM     12  C   UNL     1       7.765   5.391  13.701  0.00  0.00    +0.000 A 
ENDBRANCH   4   7
BRANCH   2  13
ATOM     13  C   UNL     1       4.647   6.960  18.213  0.00  0.00    +0.000 C 
BRANCH  13  14
ATOM     14  S   UNL     1       3.104   6.331  17.459  0.00  0.00    +0.000 S 
BRANCH  14  15
ATOM     15  C   UNL     1       2.897   4.710  18.189  0.00  0.00    +0.000 A 
ATOM     16  C   UNL     1       2.724   3.642  17.298  0.00  0.00    +0.000 A 
ATOM     17  C   UNL     1       2.397   2.365  17.758  0.00  0.00    +0.000 A 
ATOM     18  C   UNL     1       2.234   2.141  19.122  0.00  0.00    +0.000 A 
ATOM     19  C   UNL     1       2.415   3.186  20.038  0.00  0.00    +0.000 A 
ATOM     20  C   UNL     1       2.761   4.469  19.562  0.00  0.00    +0.000 A 
BRANCH  19  21
ATOM     21  C   UNL     1       2.196   2.951  21.514  0.00  0.00    +0.000 C 
ATOM     22  F   UNL     1       2.366   4.068  22.277  0.00  0.00    +0.000 F 
ATOM     23  F   UNL     1       0.945   2.495  21.792  0.00  0.00    +0.000 F 
ATOM     24  F   UNL     1       3.055   2.023  22.022  0.00  0.00    +0.000 F 
ENDBRANCH  19  21
ENDBRANCH  14  15
ENDBRANCH  13  14
ENDBRANCH   2  13
TORSDOF 5
ENDMDL
MODEL 6
REMARK VINA RESULT:      -7.7      1.009      1.968
REMARK  Name = 
REMARK  5 active torsions:
REMARK  status: ('A' for Active; 'I' for Inactive)
REMARK    1  A    between atoms: C_2  and  C_3
REMARK    2  A    between atoms: C_3  and  S_4
REMARK    3  A    between atoms: S_4  and  C_5
REMARK    4  A    between atoms: C_9  and  C_10
REMARK    5  A    between atoms: C_16  and  C_18
REMARK                            x       y       z     vdW  Elec       q    Type
REMARK                         _______ _______ _______ _____ _____    ______ ____
ROOT
ATOM      1  O   UNL     1       7.665   6.756  16.540  0.00  0.00    +0.000 OA
ATOM      2  C   UNL     1       6.681   6.029  16.441  0.00  0.00    +0.000 C 
ATOM      3  N   UNL     1       6.357   5.268  15.326  0.00  0.00    +0.000 N 
ATOM      4  C   UNL     1       7.134   5.094  14.193  0.00  0.00    +0.000 C 
ATOM      5  O   UNL     1       8.188   5.675  13.952  0.00  0.00    +0.000 OA
ATOM      6  H   UNL     1       5.493   4.754  15.397  0.00  0.00    +0.000 HD
ENDROOT
BRANCH   4   7
ATOM      7  C   UNL     1       6.578   4.164  13.162  0.00  0.00    +0.000 A 
ATOM      8  C   UNL     1       5.185   4.018  13.084  0.00  0.00    +0.000 A 
ATOM      9  C   UNL     1       4.617   3.130  12.170  0.00  0.00    +0.000 A 
ATOM     10  C   UNL     1       5.434   2.390  11.318  0.00  0.00    +0.000 A 
ATOM     11  C   UNL     1       6.818   2.551  11.367  0.00  0.00    +0.000 A 
ATOM     12  C   UNL     1       7.392   3.440  12.279  0.00  0.00    +0.000 A 
ENDBRANCH   4   7
BRANCH   2  13
ATOM     13  C   UNL     1       5.629   6.018  17.551  0.00  0.00    +0.000 C 
BRANCH  13  14
ATOM     14  S   UNL     1       4.062   5.263  16.987  0.00  0.00    +0.000 S 
BRANCH  14  15
ATOM     15  C   UNL     1       3.075   5.155  18.476  0.00  0.00    +0.000 A 
ATOM     16  C   UNL     1       2.723   6.371  19.081  0.00  0.00    +0.000 A 
ATOM     17  C   UNL     1       2.093   6.400  20.326  0.00  0.00    +0.000 A 
ATOM     18  C   UNL     1       1.810   5.209  20.988  0.00  0.00    +0.000 A 
ATOM     19  C   UNL     1       2.136   3.978  20.402  0.00  0.00    +0.000 A 
ATOM     20  C   UNL     1       2.759   3.961  19.135  0.00  0.00    +0.000 A 
BRANCH  19  21
ATOM     21  C   UNL     1       1.867   2.688  21.140  0.00  0.00    +0.000 C 
ATOM     22  F   UNL     1       1.633   1.626  20.317  0.00  0.00    +0.000 F 
ATOM     23  F   UNL     1       2.901   2.318  21.942  0.00  0.00    +0.000 F 
ATOM     24  F   UNL     1       0.775   2.775  21.950  0.00  0.00    +0.000 F 
ENDBRANCH  19  21
ENDBRANCH  14  15
ENDBRANCH  13  14
ENDBRANCH   2  13
TORSDOF 5
ENDMDL
MODEL 7
REMARK VINA RESULT:      -7.6      1.186      1.850
REMARK  Name = 
REMARK  5 active torsions:
REMARK  status: ('A' for Active; 'I' for Inactive)
REMARK    1  A    between atoms: C_2  and  C_3
REMARK    2  A    between atoms: C_3  and  S_4
REMARK    3  A    between atoms: S_4  and  C_5
REMARK    4  A    between atoms: C_9  and  C_10
REMARK    5  A    between atoms: C_16  and  C_18
REMARK                            x       y       z     vdW  Elec       q    Type
REMARK                         _______ _______ _______ _____ _____    ______ ____
ROOT
ATOM      1  O   UNL     1       7.474   6.295  15.995  0.00  0.00    +0.000 OA
ATOM      2  C   UNL     1       6.739   5.311  15.989  0.00  0.00    +0.000 C 
ATOM      3  N   UNL     1       6.440   4.543  14.873  0.00  0.00    +0.000 N 
ATOM      4  C   UNL     1       7.003   4.665  13.613  0.00  0.00    +0.000 C 
ATOM      5  O   UNL     1       7.779   5.547  13.259  0.00  0.00    +0.000 OA
ATOM      6  H   UNL     1       5.790   3.790  15.034  0.00  0.00    +0.000 HD
ENDROOT
BRANCH   4   7
ATOM      7  C   UNL     1       6.550   3.662  12.600  0.00  0.00    +0.000 A 
ATOM      8  C   UNL     1       5.175   3.554  12.344  0.00  0.00    +0.000 A 
ATOM      9  C   UNL     1       4.696   2.603  11.441  0.00  0.00    +0.000 A 
ATOM     10  C   UNL     1       5.588   1.761  10.778  0.00  0.00    +0.000 A 
ATOM     11  C   UNL     1       6.958   1.883  11.003  0.00  0.00    +0.000 A 
ATOM     12  C   UNL     1       7.443   2.834  11.904  0.00  0.00    +0.000 A 
ENDBRANCH   4   7
BRANCH   2  13
ATOM     13  C   UNL     1       5.966   4.931  17.253  0.00  0.00    +0.000 C 
BRANCH  13  14
ATOM     14  S   UNL     1       5.262   3.248  17.132  0.00  0.00    +0.000 S 
BRANCH  14  15
ATOM     15  C   UNL     1       3.705   3.369  18.006  0.00  0.00    +0.000 A 
ATOM     16  C   UNL     1       2.636   3.940  17.301  0.00  0.00    +0.000 A 
ATOM     17  C   UNL     1       1.426   4.227  17.934  0.00  0.00    +0.000 A 
ATOM     18  C   UNL     1       1.270   3.951  19.289  0.00  0.00    +0.000 A 
ATOM     19  C   UNL     1       2.316   3.366  20.017  0.00  0.00    +0.000 A 
ATOM     20  C   UNL     1       3.529   3.066  19.362  0.00  0.00    +0.000 A 
BRANCH  19  21
ATOM     21  C   UNL     1       2.160   3.105  21.497  0.00  0.00    +0.000 C 
ATOM     22  F   UNL     1       3.001   2.144  21.974  0.00  0.00    +0.000 F 
ATOM     23  F   UNL     1       2.392   4.212  22.252  0.00  0.00    +0.000 F 
ATOM     24  F   UNL     1       0.903   2.689  21.818  0.00  0.00    +0.000 F 
ENDBRANCH  19  21
ENDBRANCH  14  15
ENDBRANCH  13  14
ENDBRANCH   2  13
TORSDOF 5
ENDMDL
MODEL 8
REMARK VINA RESULT:      -7.5      1.677      2.310
REMARK  Name = 
REMARK  5 active torsions:
REMARK  status: ('A' for Active; 'I' for Inactive)
REMARK    1  A    between atoms: C_2  and  C_3
REMARK    2  A    between atoms: C_3  and  S_4
REMARK    3  A    between atoms: S_4  and  C_5
REMARK    4  A    between atoms: C_9  and  C_10
REMARK    5  A    between atoms: C_16  and  C_18
REMARK                            x       y       z     vdW  Elec       q    Type
REMARK                         _______ _______ _______ _____ _____    ______ ____
ROOT
ATOM      1  O   UNL     1       7.757   5.870  16.847  0.00  0.00    +0.000 OA
ATOM      2  C   UNL     1       6.950   4.949  16.767  0.00  0.00    +0.000 C 
ATOM      3  N   UNL     1       6.485   4.394  15.583  0.00  0.00    +0.000 N 
ATOM      4  C   UNL     1       6.932   4.685  14.305  0.00  0.00    +0.000 C 
ATOM      5  O   UNL     1       7.738   5.563  14.012  0.00  0.00    +0.000 OA
ATOM      6  H   UNL     1       5.795   3.667  15.694  0.00  0.00    +0.000 HD
ENDROOT
BRANCH   4   7
ATOM      7  C   UNL     1       6.306   3.892  13.202  0.00  0.00    +0.000 A 
ATOM      8  C   UNL     1       7.143   3.113  12.388  0.00  0.00    +0.000 A 
ATOM      9  C   UNL     1       6.615   2.389  11.318  0.00  0.00    +0.000 A 
ATOM     10  C   UNL     1       5.245   2.427  11.060  0.00  0.00    +0.000 A 
ATOM     11  C   UNL     1       4.402   3.174  11.882  0.00  0.00    +0.000 A 
ATOM     12  C   UNL     1       4.925   3.899  12.955  0.00  0.00    +0.000 A 
ENDBRANCH   4   7
BRANCH   2  13
ATOM     13  C   UNL     1       6.274   4.417  18.031  0.00  0.00    +0.000 C 
BRANCH  13  14
ATOM     14  S   UNL     1       5.508   5.763  19.004  0.00  0.00    +0.000 S 
BRANCH  14  15
ATOM     15  C   UNL     1       3.822   5.215  19.245  0.00  0.00    +0.000 A 
ATOM     16  C   UNL     1       3.027   5.998  20.094  0.00  0.00    +0.000 A 
ATOM     17  C   UNL     1       1.751   5.579  20.476  0.00  0.00    +0.000 A 
ATOM     18  C   UNL     1       1.254   4.363  20.016  0.00  0.00    +0.000 A 
ATOM     19  C   UNL     1       2.020   3.566  19.154  0.00  0.00    +0.000 A 
ATOM     20  C   UNL     1       3.302   4.008  18.762  0.00  0.00    +0.000 A 
BRANCH  19  21
ATOM     21  C   UNL     1       1.497   2.227  18.689  0.00  0.00    +0.000 C 
ATOM     22  F   UNL     1       1.747   1.210  19.561  0.00  0.00    +0.000 F 
ATOM     23  F   UNL     1       0.150   2.230  18.495  0.00  0.00    +0.000 F 
ATOM     24  F   UNL     1       2.046   1.842  17.504  0.00  0.00    +0.000 F 
ENDBRANCH  19  21
ENDBRANCH  14  15
ENDBRANCH  13  14
ENDBRANCH   2  13
TORSDOF 5
ENDMDL
MODEL 9
REMARK VINA RESULT:      -7.5      1.262      2.187
REMARK  Name = 
REMARK  5 active torsions:
REMARK  status: ('A' for Active; 'I' for Inactive)
REMARK    1  A    between atoms: C_2  and  C_3
REMARK    2  A    between atoms: C_3  and  S_4
REMARK    3  A    between atoms: S_4  and  C_5
REMARK    4  A    between atoms: C_9  and  C_10
REMARK    5  A    between atoms: C_16  and  C_18
REMARK                            x       y       z     vdW  Elec       q    Type
REMARK                         _______ _______ _______ _____ _____    ______ ____
ROOT
ATOM      1  O   UNL     1       7.720   6.843  16.407  0.00  0.00    +0.000 OA
ATOM      2  C   UNL     1       6.656   6.243  16.287  0.00  0.00    +0.000 C 
ATOM      3  N   UNL     1       6.299   5.456  15.201  0.00  0.00    +0.000 N 
ATOM      4  C   UNL     1       7.110   5.108  14.134  0.00  0.00    +0.000 C 
ATOM      5  O   UNL     1       8.243   5.533  13.928  0.00  0.00    +0.000 OA
ATOM      6  H   UNL     1       5.372   5.062  15.246  0.00  0.00    +0.000 HD
ENDROOT
BRANCH   4   7
ATOM      7  C   UNL     1       6.496   4.190  13.126  0.00  0.00    +0.000 A 
ATOM      8  C   UNL     1       5.098   4.074  13.099  0.00  0.00    +0.000 A 
ATOM      9  C   UNL     1       4.477   3.197  12.208  0.00  0.00    +0.000 A 
ATOM     10  C   UNL     1       5.247   2.439  11.328  0.00  0.00    +0.000 A 
ATOM     11  C   UNL     1       6.635   2.570  11.325  0.00  0.00    +0.000 A 
ATOM     12  C   UNL     1       7.261   3.448  12.214  0.00  0.00    +0.000 A 
ENDBRANCH   4   7
BRANCH   2  13
ATOM     13  C   UNL     1       5.550   6.442  17.325  0.00  0.00    +0.000 C 
BRANCH  13  14
ATOM     14  S   UNL     1       5.566   5.122  18.590  0.00  0.00    +0.000 S 
BRANCH  14  15
ATOM     15  C   UNL     1       3.882   5.081  19.193  0.00  0.00    +0.000 A 
ATOM     16  C   UNL     1       3.328   6.310  19.579  0.00  0.00    +0.000 A 
ATOM     17  C   UNL     1       2.084   6.374  20.209  0.00  0.00    +0.000 A 
ATOM     18  C   UNL     1       1.378   5.203  20.468  0.00  0.00    +0.000 A 
ATOM     19  C   UNL     1       1.899   3.961  20.081  0.00  0.00    +0.000 A 
ATOM     20  C   UNL     1       3.151   3.911  19.430  0.00  0.00    +0.000 A 
BRANCH  19  21
ATOM     21  C   UNL     1       1.151   2.688  20.400  0.00  0.00    +0.000 C 
ATOM     22  F   UNL     1       0.714   2.619  21.689  0.00  0.00    +0.000 F 
ATOM     23  F   UNL     1       0.047   2.520  19.622  0.00  0.00    +0.000 F 
ATOM     24  F   UNL     1       1.917   1.577  20.209  0.00  0.00    +0.000 F 
ENDBRANCH  19  21
ENDBRANCH  14  15
ENDBRANCH  13  14
ENDBRANCH   2  13
TORSDOF 5
ENDMDL
