MODEL 1
REMARK VINA RESULT:      -6.4      0.000      0.000
REMARK  Name = 
REMARK  5 active torsions:
REMARK  status: ('A' for Active; 'I' for Inactive)
REMARK    1  A    between atoms: C_1  and  O_2
REMARK    2  A    between atoms: O_2  and  C_3
REMARK    3  A    between atoms: C_8  and  N_9
REMARK    4  A    between atoms: N_9  and  C_10
REMARK    5  A    between atoms: C_10  and  N_12
REMARK                            x       y       z     vdW  Elec       q    Type
REMARK                         _______ _______ _______ _____ _____    ______ ____
ROOT
ATOM      1  N   UNL     1       2.862   4.855  17.538  0.00  0.00    +0.000 N 
ATOM      2  H   UNL     1       2.368   4.526  16.717  0.00  0.00    +0.000 HD
ENDROOT
BRANCH   1   8
ATOM      3  C   UNL     1       2.217   2.927  18.916  0.00  0.00    +0.000 A 
ATOM      4  C   UNL     1       1.672   2.425  20.108  0.00  0.00    +0.000 A 
ATOM      5  C   UNL     1       1.320   3.280  21.148  0.00  0.00    +0.000 A 
ATOM      6  C   UNL     1       1.486   4.657  21.000  0.00  0.00    +0.000 A 
ATOM      7  C   UNL     1       1.996   5.169  19.809  0.00  0.00    +0.000 A 
ATOM      8  C   UNL     1       2.383   4.318  18.767  0.00  0.00    +0.000 A 
BRANCH   3  10
ATOM      9  C   UNL     1       3.735   1.283  18.133  0.00  0.00    +0.000 C 
ATOM     10  O   UNL     1       2.615   2.124  17.869  0.00  0.00    +0.000 OA
ENDBRANCH   3  10
ENDBRANCH   1   8
BRANCH   1  11
ATOM     11  C   UNL     1       4.108   5.427  17.296  0.00  0.00    +0.000 C 
ATOM     12  S   UNL     1       4.328   7.096  17.178  0.00  0.00    +0.000 S 
BRANCH  11  13
ATOM     13  N   UNL     1       5.158   4.495  17.240  0.00  0.00    +0.000 N 
ATOM     14  C   UNL     1       6.196   4.388  18.291  0.00  0.00    +0.000 C 
ATOM     15  C   UNL     1       7.497   5.050  17.817  0.00  0.00    +0.000 C 
ATOM     16  O   UNL     1       7.950   4.472  16.581  0.00  0.00    +0.000 OA
ATOM     17  C   UNL     1       6.948   4.599  15.556  0.00  0.00    +0.000 C 
ATOM     18  C   UNL     1       5.641   3.910  15.975  0.00  0.00    +0.000 C 
ENDBRANCH  11  13
ENDBRANCH   1  11
TORSDOF 4
ENDMDL
MODEL 2
REMARK VINA RESULT:      -6.3      1.584      5.520
REMARK  Name = 
REMARK  5 active torsions:
REMARK  status: ('A' for Active; 'I' for Inactive)
REMARK    1  A    between atoms: C_1  and  O_2
REMARK    2  A    between atoms: O_2  and  C_3
REMARK    3  A    between atoms: C_8  and  N_9
REMARK    4  A    between atoms: N_9  and  C_10
REMARK    5  A    between atoms: C_10  and  N_12
REMARK                            x       y       z     vdW  Elec       q    Type
REMARK                         _______ _______ _______ _____ _____    ______ ____
ROOT
ATOM      1  N   UNL     1       4.151   4.575  18.753  0.00  0.00    +0.000 N 
ATOM      2  H   UNL     1       4.197   3.820  19.427  0.00  0.00    +0.000 HD
ENDROOT
BRANCH   1   8
ATOM      3  C   UNL     1       6.456   4.686  17.908  0.00  0.00    +0.000 A 
ATOM      4  C   UNL     1       7.345   4.644  16.824  0.00  0.00    +0.000 A 
ATOM      5  C   UNL     1       6.893   4.362  15.539  0.00  0.00    +0.000 A 
ATOM      6  C   UNL     1       5.534   4.140  15.316  0.00  0.00    +0.000 A 
ATOM      7  C   UNL     1       4.636   4.211  16.378  0.00  0.00    +0.000 A 
ATOM      8  C   UNL     1       5.083   4.463  17.682  0.00  0.00    +0.000 A 
BRANCH   3  10
ATOM      9  C   UNL     1       7.936   5.840  19.356  0.00  0.00    +0.000 C 
ATOM     10  O   UNL     1       6.853   4.926  19.206  0.00  0.00    +0.000 OA
ENDBRANCH   3  10
ENDBRANCH   1   8
BRANCH   1  11
ATOM     11  C   UNL     1       2.982   5.329  18.779  0.00  0.00    +0.000 C 
ATOM     12  S   UNL     1       2.920   6.919  18.215  0.00  0.00    +0.000 S 
BRANCH  11  13
ATOM     13  N   UNL     1       1.861   4.620  19.241  0.00  0.00    +0.000 N 
ATOM     14  C   UNL     1       1.395   4.677  20.645  0.00  0.00    +0.000 C 
ATOM     15  C   UNL     1       1.816   3.404  21.393  0.00  0.00    +0.000 C 
ATOM     16  O   UNL     1       1.322   2.228  20.731  0.00  0.00    +0.000 OA
ATOM     17  C   UNL     1       1.796   2.164  19.374  0.00  0.00    +0.000 C 
ATOM     18  C   UNL     1       1.357   3.402  18.578  0.00  0.00    +0.000 C 
ENDBRANCH  11  13
ENDBRANCH   1  11
TORSDOF 4
ENDMDL
MODEL 3
REMARK VINA RESULT:      -6.2      1.537      1.634
REMARK  Name = 
REMARK  5 active torsions:
REMARK  status: ('A' for Active; 'I' for Inactive)
REMARK    1  A    between atoms: C_1  and  O_2
REMARK    2  A    between atoms: O_2  and  C_3
REMARK    3  A    between atoms: C_8  and  N_9
REMARK    4  A    between atoms: N_9  and  C_10
REMARK    5  A    between atoms: C_10  and  N_12
REMARK                            x       y       z     vdW  Elec       q    Type
REMARK                         _______ _______ _______ _____ _____    ______ ____
ROOT
ATOM      1  N   UNL     1       3.577   3.462  17.924  0.00  0.00    +0.000 N 
ATOM      2  H   UNL     1       3.840   2.593  17.475  0.00  0.00    +0.000 HD
ENDROOT
BRANCH   1   8
ATOM      3  C   UNL     1       3.447   2.747  20.271  0.00  0.00    +0.000 A 
ATOM      4  C   UNL     1       2.677   2.526  21.423  0.00  0.00    +0.000 A 
ATOM      5  C   UNL     1       1.328   2.866  21.457  0.00  0.00    +0.000 A 
ATOM      6  C   UNL     1       0.723   3.413  20.326  0.00  0.00    +0.000 A 
ATOM      7  C   UNL     1       1.469   3.608  19.166  0.00  0.00    +0.000 A 
ATOM      8  C   UNL     1       2.834   3.298  19.129  0.00  0.00    +0.000 A 
BRANCH   3  10
ATOM      9  C   UNL     1       5.208   1.275  20.865  0.00  0.00    +0.000 C 
ATOM     10  O   UNL     1       4.794   2.462  20.193  0.00  0.00    +0.000 OA
ENDBRANCH   3  10
ENDBRANCH   1   8
BRANCH   1  11
ATOM     11  C   UNL     1       4.294   4.584  17.521  0.00  0.00    +0.000 C 
ATOM     12  S   UNL     1       3.688   6.150  17.685  0.00  0.00    +0.000 S 
BRANCH  11  13
ATOM     13  N   UNL     1       5.584   4.291  17.046  0.00  0.00    +0.000 N 
ATOM     14  C   UNL     1       6.811   4.861  17.647  0.00  0.00    +0.000 C 
ATOM     15  C   UNL     1       7.349   6.001  16.770  0.00  0.00    +0.000 C 
ATOM     16  O   UNL     1       7.591   5.550  15.427  0.00  0.00    +0.000 OA
ATOM     17  C   UNL     1       6.391   5.019  14.838  0.00  0.00    +0.000 C 
ATOM     18  C   UNL     1       5.844   3.845  15.664  0.00  0.00    +0.000 C 
ENDBRANCH  11  13
ENDBRANCH   1  11
TORSDOF 4
ENDMDL
MODEL 4
REMARK VINA RESULT:      -6.2      2.146      5.884
REMARK  Name = 
REMARK  5 active torsions:
REMARK  status: ('A' for Active; 'I' for Inactive)
REMARK    1  A    between atoms: C_1  and  O_2
REMARK    2  A    between atoms: O_2  and  C_3
REMARK    3  A    between atoms: C_8  and  N_9
REMARK    4  A    between atoms: N_9  and  C_10
REMARK    5  A    between atoms: C_10  and  N_12
REMARK                            x       y       z     vdW  Elec       q    Type
REMARK                         _______ _______ _______ _____ _____    ______ ____
ROOT
ATOM      1  N   UNL     1       5.168   3.663  18.219  0.00  0.00    +0.000 N 
ATOM      2  H   UNL     1       5.840   3.505  18.961  0.00  0.00    +0.000 HD
ENDROOT
BRANCH   1   8
ATOM      3  C   UNL     1       7.060   4.559  16.933  0.00  0.00    +0.000 A 
ATOM      4  C   UNL     1       7.583   5.007  15.711  0.00  0.00    +0.000 A 
ATOM      5  C   UNL     1       6.830   4.934  14.543  0.00  0.00    +0.000 A 
ATOM      6  C   UNL     1       5.530   4.431  14.586  0.00  0.00    +0.000 A 
ATOM      7  C   UNL     1       4.989   4.013  15.799  0.00  0.00    +0.000 A 
ATOM      8  C   UNL     1       5.746   4.053  16.977  0.00  0.00    +0.000 A 
BRANCH   3  10
ATOM      9  C   UNL     1       7.801   5.828  18.794  0.00  0.00    +0.000 C 
ATOM     10  O   UNL     1       7.773   4.576  18.114  0.00  0.00    +0.000 OA
ENDBRANCH   3  10
ENDBRANCH   1   8
BRANCH   1  11
ATOM     11  C   UNL     1       3.908   3.111  18.426  0.00  0.00    +0.000 C 
ATOM     12  S   UNL     1       3.642   1.445  18.439  0.00  0.00    +0.000 S 
BRANCH  11  13
ATOM     13  N   UNL     1       2.911   4.063  18.697  0.00  0.00    +0.000 N 
ATOM     14  C   UNL     1       3.060   5.114  19.730  0.00  0.00    +0.000 C 
ATOM     15  C   UNL     1       2.264   4.737  20.986  0.00  0.00    +0.000 C 
ATOM     16  O   UNL     1       0.879   4.514  20.672  0.00  0.00    +0.000 OA
ATOM     17  C   UNL     1       0.736   3.476  19.686  0.00  0.00    +0.000 C 
ATOM     18  C   UNL     1       1.485   3.836  18.394  0.00  0.00    +0.000 C 
ENDBRANCH  11  13
ENDBRANCH   1  11
TORSDOF 4
ENDMDL
MODEL 5
REMARK VINA RESULT:      -6.1      2.083      2.667
REMARK  Name = 
REMARK  5 active torsions:
REMARK  status: ('A' for Active; 'I' for Inactive)
REMARK    1  A    between atoms: C_1  and  O_2
REMARK    2  A    between atoms: O_2  and  C_3
REMARK    3  A    between atoms: C_8  and  N_9
REMARK    4  A    between atoms: N_9  and  C_10
REMARK    5  A    between atoms: C_10  and  N_12
REMARK                            x       y       z     vdW  Elec       q    Type
REMARK                         _______ _______ _______ _____ _____    ______ ____
ROOT
ATOM      1  N   UNL     1       5.016   3.450  17.455  0.00  0.00    +0.000 N 
ATOM      2  H   UNL     1       5.700   2.742  17.694  0.00  0.00    +0.000 HD
ENDROOT
BRANCH   1   8
ATOM      3  C   UNL     1       3.725   2.747  19.423  0.00  0.00    +0.000 A 
ATOM      4  C   UNL     1       2.481   2.559  20.045  0.00  0.00    +0.000 A 
ATOM      5  C   UNL     1       1.303   2.954  19.419  0.00  0.00    +0.000 A 
ATOM      6  C   UNL     1       1.351   3.523  18.147  0.00  0.00    +0.000 A 
ATOM      7  C   UNL     1       2.576   3.685  17.506  0.00  0.00    +0.000 A 
ATOM      8  C   UNL     1       3.772   3.320  18.137  0.00  0.00    +0.000 A 
BRANCH   3  10
ATOM      9  C   UNL     1       4.848   1.410  21.026  0.00  0.00    +0.000 C 
ATOM     10  O   UNL     1       4.925   2.406  20.010  0.00  0.00    +0.000 OA
ENDBRANCH   3  10
ENDBRANCH   1   8
BRANCH   1  11
ATOM     11  C   UNL     1       5.526   4.590  16.842  0.00  0.00    +0.000 C 
ATOM     12  S   UNL     1       5.689   4.720  15.167  0.00  0.00    +0.000 S 
BRANCH  11  13
ATOM     13  N   UNL     1       5.813   5.635  17.737  0.00  0.00    +0.000 N 
ATOM     14  C   UNL     1       6.046   7.030  17.298  0.00  0.00    +0.000 C 
ATOM     15  C   UNL     1       7.548   7.345  17.316  0.00  0.00    +0.000 C 
ATOM     16  O   UNL     1       8.110   7.111  18.618  0.00  0.00    +0.000 OA
ATOM     17  C   UNL     1       7.903   5.749  19.030  0.00  0.00    +0.000 C 
ATOM     18  C   UNL     1       6.407   5.406  19.069  0.00  0.00    +0.000 C 
ENDBRANCH  11  13
ENDBRANCH   1  11
TORSDOF 4
ENDMDL
MODEL 6
REMARK VINA RESULT:      -6.1      1.572      2.760
REMARK  Name = 
REMARK  5 active torsions:
REMARK  status: ('A' for Active; 'I' for Inactive)
REMARK    1  A    between atoms: C_1  and  O_2
REMARK    2  A    between atoms: O_2  and  C_3
REMARK    3  A    between atoms: C_8  and  N_9
REMARK    4  A    between atoms: N_9  and  C_10
REMARK    5  A    between atoms: C_10  and  N_12
REMARK                            x       y       z     vdW  Elec       q    Type
REMARK                         _______ _______ _______ _____ _____    ______ ____
ROOT
ATOM      1  N   UNL     1       4.345   5.177  18.773  0.00  0.00    +0.000 N 
ATOM      2  H   UNL     1       4.814   5.289  19.664  0.00  0.00    +0.000 HD
ENDROOT
BRANCH   1   8
ATOM      3  C   UNL     1       2.419   4.082  19.835  0.00  0.00    +0.000 A 
ATOM      4  C   UNL     1       1.475   3.045  19.843  0.00  0.00    +0.000 A 
ATOM      5  C   UNL     1       1.413   2.128  18.798  0.00  0.00    +0.000 A 
ATOM      6  C   UNL     1       2.313   2.225  17.737  0.00  0.00    +0.000 A 
ATOM      7  C   UNL     1       3.276   3.231  17.734  0.00  0.00    +0.000 A 
ATOM      8  C   UNL     1       3.330   4.178  18.765  0.00  0.00    +0.000 A 
BRANCH   3  10
ATOM      9  C   UNL     1       1.532   6.077  20.759  0.00  0.00    +0.000 C 
ATOM     10  O   UNL     1       2.504   5.037  20.827  0.00  0.00    +0.000 OA
ENDBRANCH   3  10
ENDBRANCH   1   8
BRANCH   1  11
ATOM     11  C   UNL     1       4.494   6.236  17.883  0.00  0.00    +0.000 C 
ATOM     12  S   UNL     1       3.333   7.451  17.723  0.00  0.00    +0.000 S 
BRANCH  11  13
ATOM     13  N   UNL     1       5.721   6.234  17.200  0.00  0.00    +0.000 N 
ATOM     14  C   UNL     1       5.888   5.655  15.847  0.00  0.00    +0.000 C 
ATOM     15  C   UNL     1       6.570   4.283  15.941  0.00  0.00    +0.000 C 
ATOM     16  O   UNL     1       7.832   4.379  16.622  0.00  0.00    +0.000 OA
ATOM     17  C   UNL     1       7.663   4.919  17.945  0.00  0.00    +0.000 C 
ATOM     18  C   UNL     1       7.022   6.314  17.892  0.00  0.00    +0.000 C 
ENDBRANCH  11  13
ENDBRANCH   1  11
TORSDOF 4
ENDMDL
MODEL 7
REMARK VINA RESULT:      -6.1      1.586      1.997
REMARK  Name = 
REMARK  5 active torsions:
REMARK  status: ('A' for Active; 'I' for Inactive)
REMARK    1  A    between atoms: C_1  and  O_2
REMARK    2  A    between atoms: O_2  and  C_3
REMARK    3  A    between atoms: C_8  and  N_9
REMARK    4  A    between atoms: N_9  and  C_10
REMARK    5  A    between atoms: C_10  and  N_12
REMARK                            x       y       z     vdW  Elec       q    Type
REMARK                         _______ _______ _______ _____ _____    ______ ____
ROOT
ATOM      1  N   UNL     1       3.454   4.794  17.313  0.00  0.00    +0.000 N 
ATOM      2  H   UNL     1       2.937   4.684  16.448  0.00  0.00    +0.000 HD
ENDROOT
BRANCH   1   8
ATOM      3  C   UNL     1       2.302   3.133  18.710  0.00  0.00    +0.000 A 
ATOM      4  C   UNL     1       1.512   2.842  19.832  0.00  0.00    +0.000 A 
ATOM      5  C   UNL     1       1.156   3.840  20.734  0.00  0.00    +0.000 A 
ATOM      6  C   UNL     1       1.568   5.153  20.512  0.00  0.00    +0.000 A 
ATOM      7  C   UNL     1       2.326   5.461  19.384  0.00  0.00    +0.000 A 
ATOM      8  C   UNL     1       2.716   4.461  18.485  0.00  0.00    +0.000 A 
BRANCH   3  10
ATOM      9  C   UNL     1       3.725   1.290  18.267  0.00  0.00    +0.000 C 
ATOM     10  O   UNL     1       2.712   2.179  17.803  0.00  0.00    +0.000 OA
ENDBRANCH   3  10
ENDBRANCH   1   8
BRANCH   1  11
ATOM     11  C   UNL     1       4.837   4.859  17.177  0.00  0.00    +0.000 C 
ATOM     12  S   UNL     1       5.680   3.927  16.052  0.00  0.00    +0.000 S 
BRANCH  11  13
ATOM     13  N   UNL     1       5.442   5.821  18.004  0.00  0.00    +0.000 N 
ATOM     14  C   UNL     1       5.882   7.146  17.509  0.00  0.00    +0.000 C 
ATOM     15  C   UNL     1       7.405   7.159  17.318  0.00  0.00    +0.000 C 
ATOM     16  O   UNL     1       8.082   6.811  18.538  0.00  0.00    +0.000 OA
ATOM     17  C   UNL     1       7.670   5.514  19.003  0.00  0.00    +0.000 C 
ATOM     18  C   UNL     1       6.154   5.472  19.249  0.00  0.00    +0.000 C 
ENDBRANCH  11  13
ENDBRANCH   1  11
TORSDOF 4
ENDMDL
MODEL 8
REMARK VINA RESULT:      -6.1      1.622      5.441
REMARK  Name = 
REMARK  5 active torsions:
REMARK  status: ('A' for Active; 'I' for Inactive)
REMARK    1  A    between atoms: C_1  and  O_2
REMARK    2  A    between atoms: O_2  and  C_3
REMARK    3  A    between atoms: C_8  and  N_9
REMARK    4  A    between atoms: N_9  and  C_10
REMARK    5  A    between atoms: C_10  and  N_12
REMARK                            x       y       z     vdW  Elec       q    Type
REMARK                         _______ _______ _______ _____ _____    ______ ____
ROOT
ATOM      1  N   UNL     1       4.794   4.842  19.224  0.00  0.00    +0.000 N 
ATOM      2  H   UNL     1       5.351   4.468  19.984  0.00  0.00    +0.000 HD
ENDROOT
BRANCH   1   8
ATOM      3  C   UNL     1       6.747   4.698  17.740  0.00  0.00    +0.000 A 
ATOM      4  C   UNL     1       7.270   4.566  16.445  0.00  0.00    +0.000 A 
ATOM      5  C   UNL     1       6.432   4.348  15.355  0.00  0.00    +0.000 A 
ATOM      6  C   UNL     1       5.052   4.283  15.544  0.00  0.00    +0.000 A 
ATOM      7  C   UNL     1       4.518   4.445  16.820  0.00  0.00    +0.000 A 
ATOM      8  C   UNL     1       5.352   4.634  17.930  0.00  0.00    +0.000 A 
BRANCH   3  10
ATOM      9  C   UNL     1       8.001   6.210  19.068  0.00  0.00    +0.000 C 
ATOM     10  O   UNL     1       7.531   4.880  18.859  0.00  0.00    +0.000 OA
ENDBRANCH   3  10
ENDBRANCH   1   8
BRANCH   1  11
ATOM     11  C   UNL     1       3.466   5.117  19.535  0.00  0.00    +0.000 C 
ATOM     12  S   UNL     1       2.766   6.626  19.253  0.00  0.00    +0.000 S 
BRANCH  11  13
ATOM     13  N   UNL     1       2.758   4.008  20.027  0.00  0.00    +0.000 N 
ATOM     14  C   UNL     1       3.345   2.650  20.108  0.00  0.00    +0.000 C 
ATOM     15  C   UNL     1       2.818   1.778  18.961  0.00  0.00    +0.000 C 
ATOM     16  O   UNL     1       1.382   1.722  18.970  0.00  0.00    +0.000 OA
ATOM     17  C   UNL     1       0.816   3.041  18.867  0.00  0.00    +0.000 C 
ATOM     18  C   UNL     1       1.284   3.934  20.025  0.00  0.00    +0.000 C 
ENDBRANCH  11  13
ENDBRANCH   1  11
TORSDOF 4
ENDMDL
MODEL 9
REMARK VINA RESULT:      -6.0      1.595      5.145
REMARK  Name = 
REMARK  5 active torsions:
REMARK  status: ('A' for Active; 'I' for Inactive)
REMARK    1  A    between atoms: C_1  and  O_2
REMARK    2  A    between atoms: O_2  and  C_3
REMARK    3  A    between atoms: C_8  and  N_9
REMARK    4  A    between atoms: N_9  and  C_10
REMARK    5  A    between atoms: C_10  and  N_12
REMARK                            x       y       z     vdW  Elec       q    Type
REMARK                         _______ _______ _______ _____ _____    ______ ____
ROOT
ATOM      1  N   UNL     1       3.646   4.597  17.843  0.00  0.00    +0.000 N 
ATOM      2  H   UNL     1       3.370   4.053  17.034  0.00  0.00    +0.000 HD
ENDROOT
BRANCH   1   8
ATOM      3  C   UNL     1       5.910   4.455  16.900  0.00  0.00    +0.000 A 
ATOM      4  C   UNL     1       7.296   4.601  17.065  0.00  0.00    +0.000 A 
ATOM      5  C   UNL     1       7.825   5.109  18.247  0.00  0.00    +0.000 A 
ATOM      6  C   UNL     1       6.973   5.458  19.294  0.00  0.00    +0.000 A 
ATOM      7  C   UNL     1       5.598   5.288  19.155  0.00  0.00    +0.000 A 
ATOM      8  C   UNL     1       5.050   4.807  17.959  0.00  0.00    +0.000 A 
BRANCH   3  10
ATOM      9  C   UNL     1       6.182   3.962  14.597  0.00  0.00    +0.000 C 
ATOM     10  O   UNL     1       5.329   3.991  15.739  0.00  0.00    +0.000 OA
ENDBRANCH   3  10
ENDBRANCH   1   8
BRANCH   1  11
ATOM     11  C   UNL     1       2.630   5.338  18.439  0.00  0.00    +0.000 C 
ATOM     12  S   UNL     1       2.526   7.015  18.285  0.00  0.00    +0.000 S 
BRANCH  11  13
ATOM     13  N   UNL     1       1.673   4.554  19.105  0.00  0.00    +0.000 N 
ATOM     14  C   UNL     1       1.349   4.725  20.540  0.00  0.00    +0.000 C 
ATOM     15  C   UNL     1       2.019   3.621  21.368  0.00  0.00    +0.000 C 
ATOM     16  O   UNL     1       1.631   2.317  20.902  0.00  0.00    +0.000 OA
ATOM     17  C   UNL     1       1.968   2.146  19.514  0.00  0.00    +0.000 C 
ATOM     18  C   UNL     1       1.280   3.208  18.644  0.00  0.00    +0.000 C 
ENDBRANCH  11  13
ENDBRANCH   1  11
TORSDOF 4
ENDMDL
