MODEL 1
REMARK VINA RESULT:      -7.7      0.000      0.000
REMARK  Name = 
REMARK  4 active torsions:
REMARK  status: ('A' for Active; 'I' for Inactive)
REMARK    1  A    between atoms: C_1  and  C_2
REMARK    2  A    between atoms: C_6  and  C_7
REMARK    3  A    between atoms: C_12  and  N_13
REMARK    4  A    between atoms: C_14  and  O_15
REMARK                            x       y       z     vdW  Elec       q    Type
REMARK                         _______ _______ _______ _____ _____    ______ ____
ROOT
ATOM      1  C   UNL     1       3.168   5.154  18.013  0.00  0.00    +0.000 C 
ATOM      2  O   UNL     1       2.350   4.230  17.957  0.00  0.00    +0.000 OA
ATOM      3  N   UNL     1       4.497   4.992  17.617  0.00  0.00    +0.000 N 
ATOM      4  C   UNL     1       4.892   3.784  16.906  0.00  0.00    +0.000 C 
ATOM      5  C   UNL     1       5.598   4.156  15.599  0.00  0.00    +0.000 C 
ATOM      6  C   UNL     1       6.788   5.088  15.864  0.00  0.00    +0.000 C 
ATOM      7  C   UNL     1       6.369   6.322  16.709  0.00  0.00    +0.000 C 
ATOM      8  C   UNL     1       5.625   5.867  17.969  0.00  0.00    +0.000 C 
ENDROOT
BRANCH   1  14
ATOM      9  C   UNL     1       0.066  10.809  21.803  0.00  0.00    +0.000 C 
ATOM     10  C   UNL     1       0.748   9.732  21.059  0.00  0.00    +0.000 A 
ATOM     11  C   UNL     1       1.146   8.445  21.366  0.00  0.00    +0.000 A 
ATOM     12  C   UNL     1       1.711   7.900  20.178  0.00  0.00    +0.000 A 
ATOM     13  C   UNL     1       2.268   6.664  19.788  0.00  0.00    +0.000 A 
ATOM     14  C   UNL     1       2.665   6.490  18.447  0.00  0.00    +0.000 A 
ATOM     15  C   UNL     1       2.467   7.525  17.518  0.00  0.00    +0.000 A 
ATOM     16  C   UNL     1       1.989   8.779  17.900  0.00  0.00    +0.000 A 
ATOM     17  C   UNL     1       1.611   8.910  19.230  0.00  0.00    +0.000 A 
ATOM     18  O   UNL     1       1.056  10.023  19.767  0.00  0.00    +0.000 OA
ENDBRANCH   1  14
BRANCH   6  19
ATOM     19  N   UNL     1       7.423   5.519  14.607  0.00  0.00    +0.000 NA
ATOM     20  H   UNL     1       8.275   4.972  14.445  0.00  0.00    +0.000 HD
ATOM     21  H   UNL     1       7.738   6.486  14.692  0.00  0.00    +0.000 HD
ENDBRANCH   6  19
BRANCH   7  22
ATOM     22  O   UNL     1       7.503   7.095  17.102  0.00  0.00    +0.000 OA
ATOM     23  H   UNL     1       7.190   8.011  17.226  0.00  0.00    +0.000 HD
ENDBRANCH   7  22
TORSDOF 3
ENDMDL
MODEL 2
REMARK VINA RESULT:      -7.7      3.447      6.861
REMARK  Name = 
REMARK  4 active torsions:
REMARK  status: ('A' for Active; 'I' for Inactive)
REMARK    1  A    between atoms: C_1  and  C_2
REMARK    2  A    between atoms: C_6  and  C_7
REMARK    3  A    between atoms: C_12  and  N_13
REMARK    4  A    between atoms: C_14  and  O_15
REMARK                            x       y       z     vdW  Elec       q    Type
REMARK                         _______ _______ _______ _____ _____    ______ ____
ROOT
ATOM      1  C   UNL     1       3.940   5.693  19.042  0.00  0.00    +0.000 C 
ATOM      2  O   UNL     1       3.607   6.790  19.502  0.00  0.00    +0.000 OA
ATOM      3  N   UNL     1       3.356   4.500  19.474  0.00  0.00    +0.000 N 
ATOM      4  C   UNL     1       2.168   4.546  20.315  0.00  0.00    +0.000 C 
ATOM      5  C   UNL     1       1.056   3.697  19.693  0.00  0.00    +0.000 C 
ATOM      6  C   UNL     1       1.536   2.260  19.447  0.00  0.00    +0.000 C 
ATOM      7  C   UNL     1       2.858   2.233  18.633  0.00  0.00    +0.000 C 
ATOM      8  C   UNL     1       3.898   3.147  19.289  0.00  0.00    +0.000 C 
ENDROOT
BRANCH   1  14
ATOM      9  C   UNL     1       7.585   4.513  12.617  0.00  0.00    +0.000 C 
ATOM     10  C   UNL     1       6.866   4.824  13.867  0.00  0.00    +0.000 A 
ATOM     11  C   UNL     1       5.567   4.650  14.306  0.00  0.00    +0.000 A 
ATOM     12  C   UNL     1       5.525   5.120  15.650  0.00  0.00    +0.000 A 
ATOM     13  C   UNL     1       4.556   5.207  16.671  0.00  0.00    +0.000 A 
ATOM     14  C   UNL     1       4.943   5.688  17.937  0.00  0.00    +0.000 A 
ATOM     15  C   UNL     1       6.283   6.035  18.175  0.00  0.00    +0.000 A 
ATOM     16  C   UNL     1       7.240   6.028  17.159  0.00  0.00    +0.000 A 
ATOM     17  C   UNL     1       6.817   5.549  15.926  0.00  0.00    +0.000 A 
ATOM     18  O   UNL     1       7.619   5.396  14.844  0.00  0.00    +0.000 OA
ENDBRANCH   1  14
BRANCH   6  19
ATOM     19  N   UNL     1       0.502   1.456  18.773  0.00  0.00    +0.000 NA
ATOM     20  H   UNL     1      -0.048   2.055  18.149  0.00  0.00    +0.000 HD
ATOM     21  H   UNL     1      -0.164   1.102  19.460  0.00  0.00    +0.000 HD
ENDBRANCH   6  19
BRANCH   7  22
ATOM     22  O   UNL     1       3.395   0.913  18.553  0.00  0.00    +0.000 OA
ATOM     23  H   UNL     1       3.748   0.806  17.649  0.00  0.00    +0.000 HD
ENDBRANCH   7  22
TORSDOF 3
ENDMDL
MODEL 3
REMARK VINA RESULT:      -7.5      2.517      6.998
REMARK  Name = 
REMARK  4 active torsions:
REMARK  status: ('A' for Active; 'I' for Inactive)
REMARK    1  A    between atoms: C_1  and  C_2
REMARK    2  A    between atoms: C_6  and  C_7
REMARK    3  A    between atoms: C_12  and  N_13
REMARK    4  A    between atoms: C_14  and  O_15
REMARK                            x       y       z     vdW  Elec       q    Type
REMARK                         _______ _______ _______ _____ _____    ______ ____
ROOT
ATOM      1  C   UNL     1       4.008   3.690  18.640  0.00  0.00    +0.000 C 
ATOM      2  O   UNL     1       4.174   2.566  19.124  0.00  0.00    +0.000 OA
ATOM      3  N   UNL     1       2.965   4.525  19.047  0.00  0.00    +0.000 N 
ATOM      4  C   UNL     1       2.184   4.176  20.226  0.00  0.00    +0.000 C 
ATOM      5  C   UNL     1       2.171   5.350  21.208  0.00  0.00    +0.000 C 
ATOM      6  C   UNL     1       1.655   6.627  20.529  0.00  0.00    +0.000 C 
ATOM      7  C   UNL     1       2.434   6.930  19.220  0.00  0.00    +0.000 C 
ATOM      8  C   UNL     1       2.446   5.691  18.318  0.00  0.00    +0.000 C 
ENDROOT
BRANCH   1  14
ATOM      9  C   UNL     1       7.908   5.055  12.405  0.00  0.00    +0.000 C 
ATOM     10  C   UNL     1       7.126   4.864  13.642  0.00  0.00    +0.000 A 
ATOM     11  C   UNL     1       5.866   4.373  13.924  0.00  0.00    +0.000 A 
ATOM     12  C   UNL     1       5.725   4.406  15.340  0.00  0.00    +0.000 A 
ATOM     13  C   UNL     1       4.736   4.036  16.276  0.00  0.00    +0.000 A 
ATOM     14  C   UNL     1       5.018   4.167  17.651  0.00  0.00    +0.000 A 
ATOM     15  C   UNL     1       6.278   4.623  18.067  0.00  0.00    +0.000 A 
ATOM     16  C   UNL     1       7.241   5.066  17.159  0.00  0.00    +0.000 A 
ATOM     17  C   UNL     1       6.925   4.921  15.815  0.00  0.00    +0.000 A 
ATOM     18  O   UNL     1       7.759   5.223  14.790  0.00  0.00    +0.000 OA
ENDBRANCH   1  14
BRANCH   6  19
ATOM     19  N   UNL     1       1.717   7.782  21.441  0.00  0.00    +0.000 NA
ATOM     20  H   UNL     1       2.519   7.683  22.072  0.00  0.00    +0.000 HD
ATOM     21  H   UNL     1       0.898   7.787  22.049  0.00  0.00    +0.000 HD
ENDBRANCH   6  19
BRANCH   7  22
ATOM     22  O   UNL     1       1.844   8.013  18.501  0.00  0.00    +0.000 OA
ATOM     23  H   UNL     1       1.733   8.745  19.137  0.00  0.00    +0.000 HD
ENDBRANCH   7  22
TORSDOF 3
ENDMDL
MODEL 4
REMARK VINA RESULT:      -7.4      0.971      1.695
REMARK  Name = 
REMARK  4 active torsions:
REMARK  status: ('A' for Active; 'I' for Inactive)
REMARK    1  A    between atoms: C_1  and  C_2
REMARK    2  A    between atoms: C_6  and  C_7
REMARK    3  A    between atoms: C_12  and  N_13
REMARK    4  A    between atoms: C_14  and  O_15
REMARK                            x       y       z     vdW  Elec       q    Type
REMARK                         _______ _______ _______ _____ _____    ______ ____
ROOT
ATOM      1  C   UNL     1       2.991   4.895  18.119  0.00  0.00    +0.000 C 
ATOM      2  O   UNL     1       2.181   3.991  17.894  0.00  0.00    +0.000 OA
ATOM      3  N   UNL     1       4.348   4.768  17.815  0.00  0.00    +0.000 N 
ATOM      4  C   UNL     1       4.800   3.646  17.005  0.00  0.00    +0.000 C 
ATOM      5  C   UNL     1       5.607   4.158  15.808  0.00  0.00    +0.000 C 
ATOM      6  C   UNL     1       6.772   5.044  16.272  0.00  0.00    +0.000 C 
ATOM      7  C   UNL     1       6.285   6.177  17.216  0.00  0.00    +0.000 C 
ATOM      8  C   UNL     1       5.443   5.588  18.352  0.00  0.00    +0.000 C 
ENDROOT
BRANCH   1  14
ATOM      9  C   UNL     1       1.065  12.053  19.128  0.00  0.00    +0.000 C 
ATOM     10  C   UNL     1       1.367  10.622  18.930  0.00  0.00    +0.000 A 
ATOM     11  C   UNL     1       1.805   9.864  17.861  0.00  0.00    +0.000 A 
ATOM     12  C   UNL     1       1.954   8.532  18.341  0.00  0.00    +0.000 A 
ATOM     13  C   UNL     1       2.378   7.297  17.808  0.00  0.00    +0.000 A 
ATOM     14  C   UNL     1       2.454   6.178  18.661  0.00  0.00    +0.000 A 
ATOM     15  C   UNL     1       2.145   6.314  20.024  0.00  0.00    +0.000 A 
ATOM     16  C   UNL     1       1.650   7.507  20.555  0.00  0.00    +0.000 A 
ATOM     17  C   UNL     1       1.590   8.584  19.681  0.00  0.00    +0.000 A 
ATOM     18  O   UNL     1       1.210   9.838  20.029  0.00  0.00    +0.000 OA
ENDBRANCH   1  14
BRANCH   6  19
ATOM     19  N   UNL     1       7.505   5.610  15.127  0.00  0.00    +0.000 NA
ATOM     20  H   UNL     1       7.142   6.544  14.912  0.00  0.00    +0.000 HD
ATOM     21  H   UNL     1       7.323   5.054  14.290  0.00  0.00    +0.000 HD
ENDBRANCH   6  19
BRANCH   7  22
ATOM     22  O   UNL     1       7.383   6.891  17.783  0.00  0.00    +0.000 OA
ATOM     23  H   UNL     1       7.290   7.821  17.502  0.00  0.00    +0.000 HD
ENDBRANCH   7  22
TORSDOF 3
ENDMDL
MODEL 5
REMARK VINA RESULT:      -7.3      3.230      5.984
REMARK  Name = 
REMARK  4 active torsions:
REMARK  status: ('A' for Active; 'I' for Inactive)
REMARK    1  A    between atoms: C_1  and  C_2
REMARK    2  A    between atoms: C_6  and  C_7
REMARK    3  A    between atoms: C_12  and  N_13
REMARK    4  A    between atoms: C_14  and  O_15
REMARK                            x       y       z     vdW  Elec       q    Type
REMARK                         _______ _______ _______ _____ _____    ______ ____
ROOT
ATOM      1  C   UNL     1       4.693   4.419  16.967  0.00  0.00    +0.000 C 
ATOM      2  O   UNL     1       5.016   3.691  16.023  0.00  0.00    +0.000 OA
ATOM      3  N   UNL     1       3.424   4.361  17.546  0.00  0.00    +0.000 N 
ATOM      4  C   UNL     1       2.525   3.270  17.197  0.00  0.00    +0.000 C 
ATOM      5  C   UNL     1       2.038   2.569  18.469  0.00  0.00    +0.000 C 
ATOM      6  C   UNL     1       1.387   3.571  19.432  0.00  0.00    +0.000 C 
ATOM      7  C   UNL     1       2.321   4.779  19.715  0.00  0.00    +0.000 C 
ATOM      8  C   UNL     1       2.805   5.389  18.396  0.00  0.00    +0.000 C 
ENDROOT
BRANCH   1  14
ATOM      9  C   UNL     1       9.298  10.153  18.336  0.00  0.00    +0.000 C 
ATOM     10  C   UNL     1       8.359   9.031  18.139  0.00  0.00    +0.000 A 
ATOM     11  C   UNL     1       7.205   8.853  17.400  0.00  0.00    +0.000 A 
ATOM     12  C   UNL     1       6.799   7.504  17.600  0.00  0.00    +0.000 A 
ATOM     13  C   UNL     1       5.757   6.672  17.138  0.00  0.00    +0.000 A 
ATOM     14  C   UNL     1       5.742   5.319  17.530  0.00  0.00    +0.000 A 
ATOM     15  C   UNL     1       6.774   4.812  18.335  0.00  0.00    +0.000 A 
ATOM     16  C   UNL     1       7.770   5.633  18.865  0.00  0.00    +0.000 A 
ATOM     17  C   UNL     1       7.748   6.960  18.456  0.00  0.00    +0.000 A 
ATOM     18  O   UNL     1       8.674   7.888  18.802  0.00  0.00    +0.000 OA
ENDBRANCH   1  14
BRANCH   6  19
ATOM     19  N   UNL     1       0.991   2.923  20.694  0.00  0.00    +0.000 NA
ATOM     20  H   UNL     1       1.811   2.494  21.135  0.00  0.00    +0.000 HD
ATOM     21  H   UNL     1       0.356   2.149  20.501  0.00  0.00    +0.000 HD
ENDBRANCH   6  19
BRANCH   7  22
ATOM     22  O   UNL     1       1.653   5.790  20.468  0.00  0.00    +0.000 OA
ATOM     23  H   UNL     1       1.436   5.399  21.336  0.00  0.00    +0.000 HD
ENDBRANCH   7  22
TORSDOF 3
ENDMDL
MODEL 6
REMARK VINA RESULT:      -7.2      2.382      3.786
REMARK  Name = 
REMARK  4 active torsions:
REMARK  status: ('A' for Active; 'I' for Inactive)
REMARK    1  A    between atoms: C_1  and  C_2
REMARK    2  A    between atoms: C_6  and  C_7
REMARK    3  A    between atoms: C_12  and  N_13
REMARK    4  A    between atoms: C_14  and  O_15
REMARK                            x       y       z     vdW  Elec       q    Type
REMARK                         _______ _______ _______ _____ _____    ______ ____
ROOT
ATOM      1  C   UNL     1       3.216   6.458  18.089  0.00  0.00    +0.000 C 
ATOM      2  O   UNL     1       4.131   6.753  17.315  0.00  0.00    +0.000 OA
ATOM      3  N   UNL     1       2.975   5.140  18.484  0.00  0.00    +0.000 N 
ATOM      4  C   UNL     1       3.952   4.106  18.169  0.00  0.00    +0.000 C 
ATOM      5  C   UNL     1       4.347   3.358  19.445  0.00  0.00    +0.000 C 
ATOM      6  C   UNL     1       3.109   2.789  20.153  0.00  0.00    +0.000 C 
ATOM      7  C   UNL     1       2.036   3.885  20.391  0.00  0.00    +0.000 C 
ATOM      8  C   UNL     1       1.736   4.621  19.081  0.00  0.00    +0.000 C 
ENDROOT
BRANCH   1  14
ATOM      9  C   UNL     1      -0.893  10.841  22.546  0.00  0.00    +0.000 C 
ATOM     10  C   UNL     1      -0.026  10.033  21.666  0.00  0.00    +0.000 A 
ATOM     11  C   UNL     1       0.744   8.899  21.843  0.00  0.00    +0.000 A 
ATOM     12  C   UNL     1       1.303   8.586  20.572  0.00  0.00    +0.000 A 
ATOM     13  C   UNL     1       2.135   7.576  20.043  0.00  0.00    +0.000 A 
ATOM     14  C   UNL     1       2.414   7.578  18.662  0.00  0.00    +0.000 A 
ATOM     15  C   UNL     1       1.836   8.552  17.833  0.00  0.00    +0.000 A 
ATOM     16  C   UNL     1       1.075   9.603  18.346  0.00  0.00    +0.000 A 
ATOM     17  C   UNL     1       0.824   9.565  19.711  0.00  0.00    +0.000 A 
ATOM     18  O   UNL     1       0.045  10.453  20.376  0.00  0.00    +0.000 OA
ENDBRANCH   1  14
BRANCH   6  19
ATOM     19  N   UNL     1       3.469   2.139  21.424  0.00  0.00    +0.000 NA
ATOM     20  H   UNL     1       4.454   2.327  21.643  0.00  0.00    +0.000 HD
ATOM     21  H   UNL     1       3.407   1.125  21.326  0.00  0.00    +0.000 HD
ENDBRANCH   6  19
BRANCH   7  22
ATOM     22  O   UNL     1       0.821   3.325  20.889  0.00  0.00    +0.000 OA
ATOM     23  H   UNL     1       1.021   2.407  21.154  0.00  0.00    +0.000 HD
ENDBRANCH   7  22
TORSDOF 3
ENDMDL
MODEL 7
REMARK VINA RESULT:      -7.1      2.051      3.715
REMARK  Name = 
REMARK  4 active torsions:
REMARK  status: ('A' for Active; 'I' for Inactive)
REMARK    1  A    between atoms: C_1  and  C_2
REMARK    2  A    between atoms: C_6  and  C_7
REMARK    3  A    between atoms: C_12  and  N_13
REMARK    4  A    between atoms: C_14  and  O_15
REMARK                            x       y       z     vdW  Elec       q    Type
REMARK                         _______ _______ _______ _____ _____    ______ ____
ROOT
ATOM      1  C   UNL     1       3.444   6.516  17.791  0.00  0.00    +0.000 C 
ATOM      2  O   UNL     1       4.500   7.036  17.417  0.00  0.00    +0.000 OA
ATOM      3  N   UNL     1       3.130   5.186  17.503  0.00  0.00    +0.000 N 
ATOM      4  C   UNL     1       4.155   4.310  16.952  0.00  0.00    +0.000 C 
ATOM      5  C   UNL     1       4.277   3.047  17.810  0.00  0.00    +0.000 C 
ATOM      6  C   UNL     1       2.921   2.341  17.943  0.00  0.00    +0.000 C 
ATOM      7  C   UNL     1       1.817   3.315  18.437  0.00  0.00    +0.000 C 
ATOM      8  C   UNL     1       1.796   4.572  17.562  0.00  0.00    +0.000 C 
ENDROOT
BRANCH   1  14
ATOM      9  C   UNL     1      -0.786  12.009  20.601  0.00  0.00    +0.000 C 
ATOM     10  C   UNL     1      -0.017  10.880  20.041  0.00  0.00    +0.000 A 
ATOM     11  C   UNL     1       0.572  10.622  18.818  0.00  0.00    +0.000 A 
ATOM     12  C   UNL     1       1.217   9.358  18.937  0.00  0.00    +0.000 A 
ATOM     13  C   UNL     1       2.005   8.533  18.107  0.00  0.00    +0.000 A 
ATOM     14  C   UNL     1       2.536   7.341  18.640  0.00  0.00    +0.000 A 
ATOM     15  C   UNL     1       2.308   7.014  19.986  0.00  0.00    +0.000 A 
ATOM     16  C   UNL     1       1.470   7.776  20.801  0.00  0.00    +0.000 A 
ATOM     17  C   UNL     1       0.966   8.941  20.238  0.00  0.00    +0.000 A 
ATOM     18  O   UNL     1       0.200   9.845  20.895  0.00  0.00    +0.000 OA
ENDBRANCH   1  14
BRANCH   6  19
ATOM     19  N   UNL     1       3.009   1.172  18.834  0.00  0.00    +0.000 NA
ATOM     20  H   UNL     1       2.076   0.770  18.972  0.00  0.00    +0.000 HD
ATOM     21  H   UNL     1       3.313   1.465  19.762  0.00  0.00    +0.000 HD
ENDBRANCH   6  19
BRANCH   7  22
ATOM     22  O   UNL     1       0.527   2.706  18.394  0.00  0.00    +0.000 OA
ATOM     23  H   UNL     1       0.606   1.845  18.847  0.00  0.00    +0.000 HD
ENDBRANCH   7  22
TORSDOF 3
ENDMDL
MODEL 8
REMARK VINA RESULT:      -7.1      1.989      3.520
REMARK  Name = 
REMARK  4 active torsions:
REMARK  status: ('A' for Active; 'I' for Inactive)
REMARK    1  A    between atoms: C_1  and  C_2
REMARK    2  A    between atoms: C_6  and  C_7
REMARK    3  A    between atoms: C_12  and  N_13
REMARK    4  A    between atoms: C_14  and  O_15
REMARK                            x       y       z     vdW  Elec       q    Type
REMARK                         _______ _______ _______ _____ _____    ______ ____
ROOT
ATOM      1  C   UNL     1       3.603   6.432  17.654  0.00  0.00    +0.000 C 
ATOM      2  O   UNL     1       4.720   6.810  17.286  0.00  0.00    +0.000 OA
ATOM      3  N   UNL     1       3.164   5.120  17.461  0.00  0.00    +0.000 N 
ATOM      4  C   UNL     1       4.112   4.102  17.029  0.00  0.00    +0.000 C 
ATOM      5  C   UNL     1       4.073   2.911  17.991  0.00  0.00    +0.000 C 
ATOM      6  C   UNL     1       2.647   2.357  18.120  0.00  0.00    +0.000 C 
ATOM      7  C   UNL     1       1.633   3.475  18.484  0.00  0.00    +0.000 C 
ATOM      8  C   UNL     1       1.773   4.649  17.510  0.00  0.00    +0.000 C 
ENDROOT
BRANCH   1  14
ATOM      9  C   UNL     1      -0.669   9.886  22.731  0.00  0.00    +0.000 C 
ATOM     10  C   UNL     1       0.227   9.263  21.737  0.00  0.00    +0.000 A 
ATOM     11  C   UNL     1       1.049   8.152  21.738  0.00  0.00    +0.000 A 
ATOM     12  C   UNL     1       1.613   8.064  20.433  0.00  0.00    +0.000 A 
ATOM     13  C   UNL     1       2.486   7.186  19.756  0.00  0.00    +0.000 A 
ATOM     14  C   UNL     1       2.755   7.413  18.392  0.00  0.00    +0.000 A 
ATOM     15  C   UNL     1       2.128   8.475  17.722  0.00  0.00    +0.000 A 
ATOM     16  C   UNL     1       1.323   9.399  18.390  0.00  0.00    +0.000 A 
ATOM     17  C   UNL     1       1.084   9.141  19.733  0.00  0.00    +0.000 A 
ATOM     18  O   UNL     1       0.270   9.879  20.527  0.00  0.00    +0.000 OA
ENDBRANCH   1  14
BRANCH   6  19
ATOM     19  N   UNL     1       2.582   1.265  19.106  0.00  0.00    +0.000 NA
ATOM     20  H   UNL     1       1.858   1.470  19.802  0.00  0.00    +0.000 HD
ATOM     21  H   UNL     1       3.454   1.222  19.633  0.00  0.00    +0.000 HD
ENDBRANCH   6  19
BRANCH   7  22
ATOM     22  O   UNL     1       0.289   2.997  18.433  0.00  0.00    +0.000 OA
ATOM     23  H   UNL     1       0.158   2.439  19.223  0.00  0.00    +0.000 HD
ENDBRANCH   7  22
TORSDOF 3
ENDMDL
MODEL 9
REMARK VINA RESULT:      -6.9      1.261      2.016
REMARK  Name = 
REMARK  4 active torsions:
REMARK  status: ('A' for Active; 'I' for Inactive)
REMARK    1  A    between atoms: C_1  and  C_2
REMARK    2  A    between atoms: C_6  and  C_7
REMARK    3  A    between atoms: C_12  and  N_13
REMARK    4  A    between atoms: C_14  and  O_15
REMARK                            x       y       z     vdW  Elec       q    Type
REMARK                         _______ _______ _______ _____ _____    ______ ____
ROOT
ATOM      1  C   UNL     1       3.243   3.747  17.531  0.00  0.00    +0.000 C 
ATOM      2  O   UNL     1       2.467   2.939  17.011  0.00  0.00    +0.000 OA
ATOM      3  N   UNL     1       4.600   3.789  17.202  0.00  0.00    +0.000 N 
ATOM      4  C   UNL     1       5.084   3.029  16.058  0.00  0.00    +0.000 C 
ATOM      5  C   UNL     1       5.853   3.951  15.108  0.00  0.00    +0.000 C 
ATOM      6  C   UNL     1       6.988   4.675  15.846  0.00  0.00    +0.000 C 
ATOM      7  C   UNL     1       6.470   5.398  17.118  0.00  0.00    +0.000 C 
ATOM      8  C   UNL     1       5.668   4.423  17.987  0.00  0.00    +0.000 C 
ENDROOT
BRANCH   1  14
ATOM      9  C   UNL     1       0.999  10.044  20.888  0.00  0.00    +0.000 C 
ATOM     10  C   UNL     1       1.365   8.779  20.222  0.00  0.00    +0.000 A 
ATOM     11  C   UNL     1       1.800   8.443  18.954  0.00  0.00    +0.000 A 
ATOM     12  C   UNL     1       2.034   7.039  18.963  0.00  0.00    +0.000 A 
ATOM     13  C   UNL     1       2.500   6.076  18.044  0.00  0.00    +0.000 A 
ATOM     14  C   UNL     1       2.662   4.745  18.477  0.00  0.00    +0.000 A 
ATOM     15  C   UNL     1       2.398   4.406  19.813  0.00  0.00    +0.000 A 
ATOM     16  C   UNL     1       1.864   5.325  20.717  0.00  0.00    +0.000 A 
ATOM     17  C   UNL     1       1.717   6.625  20.251  0.00  0.00    +0.000 A 
ATOM     18  O   UNL     1       1.288   7.669  21.002  0.00  0.00    +0.000 OA
ENDBRANCH   1  14
BRANCH   6  19
ATOM     19  N   UNL     1       7.682   5.627  14.962  0.00  0.00    +0.000 NA
ATOM     20  H   UNL     1       7.538   6.583  15.303  0.00  0.00    +0.000 HD
ATOM     21  H   UNL     1       7.261   5.608  14.033  0.00  0.00    +0.000 HD
ENDBRANCH   6  19
BRANCH   7  22
ATOM     22  O   UNL     1       7.547   5.922  17.895  0.00  0.00    +0.000 OA
ATOM     23  H   UNL     1       7.440   6.892  17.906  0.00  0.00    +0.000 HD
ENDBRANCH   7  22
TORSDOF 3
ENDMDL
