MODEL 1
REMARK VINA RESULT:      -7.5      0.000      0.000
REMARK  Name = 
REMARK  10 active torsions:
REMARK  status: ('A' for Active; 'I' for Inactive)
REMARK    1  A    between atoms: C_1  and  O_2
REMARK    2  A    between atoms: O_2  and  C_3
REMARK    3  A    between atoms: C_6  and  C_7
REMARK    4  A    between atoms: C_7  and  C_8
REMARK    5  A    between atoms: C_8  and  N_9
REMARK    6  A    between atoms: N_9  and  C_10
REMARK    7  A    between atoms: C_10  and  C_11
REMARK    8  A    between atoms: C_10  and  C_12
REMARK    9  A    between atoms: C_23  and  O_24
REMARK   10  A    between atoms: O_24  and  C_25
REMARK                            x       y       z     vdW  Elec       q    Type
REMARK                         _______ _______ _______ _____ _____    ______ ____
ROOT
ATOM      1  N   UNL     1       3.789   4.898  19.829  0.00  0.00    +0.000 NA
ATOM      2  H   UNL     1       3.650   4.613  20.801  0.00  0.00    +0.000 HD
ENDROOT
BRANCH   1   3
ATOM      3  C   UNL     1       4.227   3.711  19.063  0.00  0.00    +0.000 C 
ATOM      4  C   UNL     1       3.043   2.925  18.481  0.00  0.00    +0.000 C 
BRANCH   3   5
ATOM      5  C   UNL     1       5.199   4.109  17.953  0.00  0.00    +0.000 A 
ATOM      6  C   UNL     1       6.396   4.810  18.285  0.00  0.00    +0.000 A 
ATOM      7  C   UNL     1       7.311   5.226  17.309  0.00  0.00    +0.000 A 
ATOM      8  C   UNL     1       7.007   4.914  16.005  0.00  0.00    +0.000 A 
ATOM      9  N   UNL     1       7.698   5.206  14.835  0.00  0.00    +0.000 N 
ATOM     10  C   UNL     1       6.984   4.682  13.744  0.00  0.00    +0.000 A 
ATOM     11  O   UNL     1       7.290   4.754  12.570  0.00  0.00    +0.000 OA
ATOM     12  N   UNL     1       5.841   4.058  14.280  0.00  0.00    +0.000 N 
ATOM     13  C   UNL     1       5.853   4.211  15.663  0.00  0.00    +0.000 A 
ATOM     14  C   UNL     1       4.937   3.794  16.604  0.00  0.00    +0.000 A 
ATOM     15  H   UNL     1       8.560   5.718  14.742  0.00  0.00    +0.000 HD
ATOM     16  H   UNL     1       5.141   3.602  13.723  0.00  0.00    +0.000 HD
ENDBRANCH   3   5
ENDBRANCH   1   3
BRANCH   1  17
ATOM     17  C   UNL     1       2.526   5.449  19.310  0.00  0.00    +0.000 C 
BRANCH  17  18
ATOM     18  C   UNL     1       2.719   6.511  18.215  0.00  0.00    +0.000 C 
BRANCH  18  22
ATOM     19  C   UNL     1       0.906  10.225  19.507  0.00  0.00    +0.000 A 
ATOM     20  C   UNL     1       1.409  10.087  18.203  0.00  0.00    +0.000 A 
ATOM     21  C   UNL     1       2.007   8.897  17.782  0.00  0.00    +0.000 A 
ATOM     22  C   UNL     1       2.181   7.843  18.682  0.00  0.00    +0.000 A 
ATOM     23  C   UNL     1       1.776   8.028  20.011  0.00  0.00    +0.000 A 
ATOM     24  C   UNL     1       1.144   9.209  20.443  0.00  0.00    +0.000 A 
BRANCH  19  26
ATOM     25  C   UNL     1      -1.213  11.264  19.589  0.00  0.00    +0.000 C 
ATOM     26  O   UNL     1       0.190  11.343  19.861  0.00  0.00    +0.000 OA
ENDBRANCH  19  26
BRANCH  24  27
ATOM     27  O   UNL     1       0.824   9.145  21.771  0.00  0.00    +0.000 OA
ATOM     28  C   UNL     1      -0.441   8.654  22.172  0.00  0.00    +0.000 C 
ENDBRANCH  24  27
ENDBRANCH  18  22
ENDBRANCH  17  18
ENDBRANCH   1  17
TORSDOF 7
ENDMDL
MODEL 2
REMARK VINA RESULT:      -7.4      1.003      1.959
REMARK  Name = 
REMARK  10 active torsions:
REMARK  status: ('A' for Active; 'I' for Inactive)
REMARK    1  A    between atoms: C_1  and  O_2
REMARK    2  A    between atoms: O_2  and  C_3
REMARK    3  A    between atoms: C_6  and  C_7
REMARK    4  A    between atoms: C_7  and  C_8
REMARK    5  A    between atoms: C_8  and  N_9
REMARK    6  A    between atoms: N_9  and  C_10
REMARK    7  A    between atoms: C_10  and  C_11
REMARK    8  A    between atoms: C_10  and  C_12
REMARK    9  A    between atoms: C_23  and  O_24
REMARK   10  A    between atoms: O_24  and  C_25
REMARK                            x       y       z     vdW  Elec       q    Type
REMARK                         _______ _______ _______ _____ _____    ______ ____
ROOT
ATOM      1  N   UNL     1       3.879   5.456  19.791  0.00  0.00    +0.000 NA
ATOM      2  H   UNL     1       3.759   5.292  20.793  0.00  0.00    +0.000 HD
ENDROOT
BRANCH   1   3
ATOM      3  C   UNL     1       4.410   4.215  19.185  0.00  0.00    +0.000 C 
ATOM      4  C   UNL     1       3.298   3.222  18.822  0.00  0.00    +0.000 C 
BRANCH   3   5
ATOM      5  C   UNL     1       5.262   4.533  17.957  0.00  0.00    +0.000 A 
ATOM      6  C   UNL     1       6.241   5.568  18.029  0.00  0.00    +0.000 A 
ATOM      7  C   UNL     1       7.032   5.923  16.928  0.00  0.00    +0.000 A 
ATOM      8  C   UNL     1       6.829   5.215  15.767  0.00  0.00    +0.000 A 
ATOM      9  N   UNL     1       7.435   5.349  14.524  0.00  0.00    +0.000 N 
ATOM     10  C   UNL     1       6.887   4.398  13.647  0.00  0.00    +0.000 A 
ATOM     11  O   UNL     1       7.176   4.232  12.479  0.00  0.00    +0.000 OA
ATOM     12  N   UNL     1       5.932   3.678  14.390  0.00  0.00    +0.000 N 
ATOM     13  C   UNL     1       5.892   4.187  15.684  0.00  0.00    +0.000 A 
ATOM     14  C   UNL     1       5.101   3.821  16.751  0.00  0.00    +0.000 A 
ATOM     15  H   UNL     1       8.143   6.013  14.254  0.00  0.00    +0.000 HD
ATOM     16  H   UNL     1       5.374   2.934  14.010  0.00  0.00    +0.000 HD
ENDBRANCH   3   5
ENDBRANCH   1   3
BRANCH   1  17
ATOM     17  C   UNL     1       2.578   5.834  19.213  0.00  0.00    +0.000 C 
BRANCH  17  18
ATOM     18  C   UNL     1       2.558   7.248  18.610  0.00  0.00    +0.000 C 
BRANCH  18  22
ATOM     19  C   UNL     1       0.650  10.076  21.278  0.00  0.00    +0.000 A 
ATOM     20  C   UNL     1       0.965   8.778  21.713  0.00  0.00    +0.000 A 
ATOM     21  C   UNL     1       1.570   7.855  20.856  0.00  0.00    +0.000 A 
ATOM     22  C   UNL     1       1.803   8.189  19.519  0.00  0.00    +0.000 A 
ATOM     23  C   UNL     1       1.384   9.446  19.064  0.00  0.00    +0.000 A 
ATOM     24  C   UNL     1       0.804  10.398  19.922  0.00  0.00    +0.000 A 
BRANCH  19  26
ATOM     25  C   UNL     1      -0.913  10.596  22.970  0.00  0.00    +0.000 C 
ATOM     26  O   UNL     1       0.196  11.016  22.169  0.00  0.00    +0.000 OA
ENDBRANCH  19  26
BRANCH  24  27
ATOM     27  O   UNL     1       0.501  11.552  19.254  0.00  0.00    +0.000 OA
ATOM     28  C   UNL     1       1.444  12.605  19.195  0.00  0.00    +0.000 C 
ENDBRANCH  24  27
ENDBRANCH  18  22
ENDBRANCH  17  18
ENDBRANCH   1  17
TORSDOF 7
ENDMDL
MODEL 3
REMARK VINA RESULT:      -7.4      2.939      8.758
REMARK  Name = 
REMARK  10 active torsions:
REMARK  status: ('A' for Active; 'I' for Inactive)
REMARK    1  A    between atoms: C_1  and  O_2
REMARK    2  A    between atoms: O_2  and  C_3
REMARK    3  A    between atoms: C_6  and  C_7
REMARK    4  A    between atoms: C_7  and  C_8
REMARK    5  A    between atoms: C_8  and  N_9
REMARK    6  A    between atoms: N_9  and  C_10
REMARK    7  A    between atoms: C_10  and  C_11
REMARK    8  A    between atoms: C_10  and  C_12
REMARK    9  A    between atoms: C_23  and  O_24
REMARK   10  A    between atoms: O_24  and  C_25
REMARK                            x       y       z     vdW  Elec       q    Type
REMARK                         _______ _______ _______ _____ _____    ______ ____
ROOT
ATOM      1  N   UNL     1       2.066   6.092  20.264  0.00  0.00    +0.000 NA
ATOM      2  H   UNL     1       1.823   6.275  21.241  0.00  0.00    +0.000 HD
ENDROOT
BRANCH   1   3
ATOM      3  C   UNL     1       2.433   7.380  19.637  0.00  0.00    +0.000 C 
ATOM      4  C   UNL     1       2.493   7.286  18.106  0.00  0.00    +0.000 C 
BRANCH   3   5
ATOM      5  C   UNL     1       1.470   8.487  20.066  0.00  0.00    +0.000 A 
ATOM      6  C   UNL     1       1.093   9.493  19.129  0.00  0.00    +0.000 A 
ATOM      7  C   UNL     1       0.236  10.547  19.472  0.00  0.00    +0.000 A 
ATOM      8  C   UNL     1      -0.240  10.562  20.762  0.00  0.00    +0.000 A 
ATOM      9  N   UNL     1      -1.076  11.474  21.393  0.00  0.00    +0.000 N 
ATOM     10  C   UNL     1      -1.275  11.065  22.722  0.00  0.00    +0.000 A 
ATOM     11  O   UNL     1      -1.944  11.627  23.566  0.00  0.00    +0.000 OA
ATOM     12  N   UNL     1      -0.540   9.874  22.884  0.00  0.00    +0.000 N 
ATOM     13  C   UNL     1       0.100   9.575  21.686  0.00  0.00    +0.000 A 
ATOM     14  C   UNL     1       0.942   8.531  21.373  0.00  0.00    +0.000 A 
ATOM     15  H   UNL     1      -1.481  12.310  21.001  0.00  0.00    +0.000 HD
ATOM     16  H   UNL     1      -0.493   9.360  23.745  0.00  0.00    +0.000 HD
ENDBRANCH   3   5
ENDBRANCH   1   3
BRANCH   1  17
ATOM     17  C   UNL     1       3.177   5.127  20.224  0.00  0.00    +0.000 C 
BRANCH  17  18
ATOM     18  C   UNL     1       3.021   4.051  19.137  0.00  0.00    +0.000 C 
BRANCH  18  22
ATOM     19  C   UNL     1       6.386   4.444  16.440  0.00  0.00    +0.000 A 
ATOM     20  C   UNL     1       5.109   4.121  15.952  0.00  0.00    +0.000 A 
ATOM     21  C   UNL     1       4.020   3.981  16.816  0.00  0.00    +0.000 A 
ATOM     22  C   UNL     1       4.203   4.086  18.198  0.00  0.00    +0.000 A 
ATOM     23  C   UNL     1       5.500   4.298  18.683  0.00  0.00    +0.000 A 
ATOM     24  C   UNL     1       6.602   4.474  17.825  0.00  0.00    +0.000 A 
BRANCH  19  26
ATOM     25  C   UNL     1       7.016   4.849  14.200  0.00  0.00    +0.000 C 
ATOM     26  O   UNL     1       7.411   4.726  15.570  0.00  0.00    +0.000 OA
ENDBRANCH  19  26
BRANCH  24  27
ATOM     27  O   UNL     1       7.754   4.688  18.529  0.00  0.00    +0.000 OA
ATOM     28  C   UNL     1       7.900   5.858  19.312  0.00  0.00    +0.000 C 
ENDBRANCH  24  27
ENDBRANCH  18  22
ENDBRANCH  17  18
ENDBRANCH   1  17
TORSDOF 7
ENDMDL
MODEL 4
REMARK VINA RESULT:      -7.2      1.549      2.397
REMARK  Name = 
REMARK  10 active torsions:
REMARK  status: ('A' for Active; 'I' for Inactive)
REMARK    1  A    between atoms: C_1  and  O_2
REMARK    2  A    between atoms: O_2  and  C_3
REMARK    3  A    between atoms: C_6  and  C_7
REMARK    4  A    between atoms: C_7  and  C_8
REMARK    5  A    between atoms: C_8  and  N_9
REMARK    6  A    between atoms: N_9  and  C_10
REMARK    7  A    between atoms: C_10  and  C_11
REMARK    8  A    between atoms: C_10  and  C_12
REMARK    9  A    between atoms: C_23  and  O_24
REMARK   10  A    between atoms: O_24  and  C_25
REMARK                            x       y       z     vdW  Elec       q    Type
REMARK                         _______ _______ _______ _____ _____    ______ ____
ROOT
ATOM      1  N   UNL     1       2.496   3.473  19.116  0.00  0.00    +0.000 NA
ATOM      2  H   UNL     1       2.492   4.082  18.294  0.00  0.00    +0.000 HD
ENDROOT
BRANCH   1   3
ATOM      3  C   UNL     1       3.863   3.479  19.682  0.00  0.00    +0.000 C 
ATOM      4  C   UNL     1       4.320   2.079  20.115  0.00  0.00    +0.000 C 
BRANCH   3   5
ATOM      5  C   UNL     1       4.858   4.081  18.690  0.00  0.00    +0.000 A 
ATOM      6  C   UNL     1       5.850   4.993  19.156  0.00  0.00    +0.000 A 
ATOM      7  C   UNL     1       6.771   5.598  18.289  0.00  0.00    +0.000 A 
ATOM      8  C   UNL     1       6.681   5.262  16.959  0.00  0.00    +0.000 A 
ATOM      9  N   UNL     1       7.428   5.707  15.876  0.00  0.00    +0.000 N 
ATOM     10  C   UNL     1       6.957   5.079  14.711  0.00  0.00    +0.000 A 
ATOM     11  O   UNL     1       7.372   5.235  13.580  0.00  0.00    +0.000 OA
ATOM     12  N   UNL     1       5.904   4.235  15.114  0.00  0.00    +0.000 N 
ATOM     13  C   UNL     1       5.731   4.358  16.489  0.00  0.00    +0.000 A 
ATOM     14  C   UNL     1       4.814   3.751  17.319  0.00  0.00    +0.000 A 
ATOM     15  H   UNL     1       8.180   6.377  15.882  0.00  0.00    +0.000 HD
ATOM     16  H   UNL     1       5.372   3.665  14.481  0.00  0.00    +0.000 HD
ENDBRANCH   3   5
ENDBRANCH   1   3
BRANCH   1  17
ATOM     17  C   UNL     1       1.502   3.970  20.081  0.00  0.00    +0.000 C 
BRANCH  17  18
ATOM     18  C   UNL     1       2.054   5.033  21.044  0.00  0.00    +0.000 C 
BRANCH  18  22
ATOM     19  C   UNL     1       1.364   9.098  19.719  0.00  0.00    +0.000 A 
ATOM     20  C   UNL     1       0.661   8.570  20.815  0.00  0.00    +0.000 A 
ATOM     21  C   UNL     1       0.868   7.256  21.241  0.00  0.00    +0.000 A 
ATOM     22  C   UNL     1       1.731   6.416  20.532  0.00  0.00    +0.000 A 
ATOM     23  C   UNL     1       2.345   6.916  19.376  0.00  0.00    +0.000 A 
ATOM     24  C   UNL     1       2.171   8.246  18.952  0.00  0.00    +0.000 A 
BRANCH  19  26
ATOM     25  C   UNL     1       0.866  11.273  20.493  0.00  0.00    +0.000 C 
ATOM     26  O   UNL     1       1.263  10.431  19.406  0.00  0.00    +0.000 OA
ENDBRANCH  19  26
BRANCH  24  27
ATOM     27  O   UNL     1       2.886   8.504  17.815  0.00  0.00    +0.000 OA
ATOM     28  C   UNL     1       3.727   7.507  17.265  0.00  0.00    +0.000 C 
ENDBRANCH  24  27
ENDBRANCH  18  22
ENDBRANCH  17  18
ENDBRANCH   1  17
TORSDOF 7
ENDMDL
MODEL 5
REMARK VINA RESULT:      -7.2      5.745      7.728
REMARK  Name = 
REMARK  10 active torsions:
REMARK  status: ('A' for Active; 'I' for Inactive)
REMARK    1  A    between atoms: C_1  and  O_2
REMARK    2  A    between atoms: O_2  and  C_3
REMARK    3  A    between atoms: C_6  and  C_7
REMARK    4  A    between atoms: C_7  and  C_8
REMARK    5  A    between atoms: C_8  and  N_9
REMARK    6  A    between atoms: N_9  and  C_10
REMARK    7  A    between atoms: C_10  and  C_11
REMARK    8  A    between atoms: C_10  and  C_12
REMARK    9  A    between atoms: C_23  and  O_24
REMARK   10  A    between atoms: O_24  and  C_25
REMARK                            x       y       z     vdW  Elec       q    Type
REMARK                         _______ _______ _______ _____ _____    ______ ____
ROOT
ATOM      1  N   UNL     1       7.249   7.385  17.436  0.00  0.00    +0.000 NA
ATOM      2  H   UNL     1       7.493   7.395  16.442  0.00  0.00    +0.000 HD
ENDROOT
BRANCH   1   3
ATOM      3  C   UNL     1       7.292   5.981  17.901  0.00  0.00    +0.000 C 
ATOM      4  C   UNL     1       8.049   5.830  19.228  0.00  0.00    +0.000 C 
BRANCH   3   5
ATOM      5  C   UNL     1       5.881   5.408  18.025  0.00  0.00    +0.000 A 
ATOM      6  C   UNL     1       5.294   4.737  16.912  0.00  0.00    +0.000 A 
ATOM      7  C   UNL     1       3.994   4.215  16.957  0.00  0.00    +0.000 A 
ATOM      8  C   UNL     1       3.307   4.370  18.137  0.00  0.00    +0.000 A 
ATOM      9  N   UNL     1       2.015   3.985  18.473  0.00  0.00    +0.000 N 
ATOM     10  C   UNL     1       1.757   4.369  19.799  0.00  0.00    +0.000 A 
ATOM     11  O   UNL     1       0.727   4.198  20.421  0.00  0.00    +0.000 OA
ATOM     12  N   UNL     1       2.928   4.997  20.265  0.00  0.00    +0.000 N 
ATOM     13  C   UNL     1       3.871   5.005  19.242  0.00  0.00    +0.000 A 
ATOM     14  C   UNL     1       5.145   5.527  19.222  0.00  0.00    +0.000 A 
ATOM     15  H   UNL     1       1.341   3.519  17.887  0.00  0.00    +0.000 HD
ATOM     16  H   UNL     1       3.027   5.381  21.188  0.00  0.00    +0.000 HD
ENDBRANCH   3   5
ENDBRANCH   1   3
BRANCH   1  17
ATOM     17  C   UNL     1       8.203   8.233  18.168  0.00  0.00    +0.000 C 
BRANCH  17  18
ATOM     18  C   UNL     1       8.012   9.738  17.915  0.00  0.00    +0.000 C 
BRANCH  18  22
ATOM     19  C   UNL     1      11.205  12.205  19.488  0.00  0.00    +0.000 A 
ATOM     20  C   UNL     1      11.236  11.750  18.159  0.00  0.00    +0.000 A 
ATOM     21  C   UNL     1      10.217  10.944  17.647  0.00  0.00    +0.000 A 
ATOM     22  C   UNL     1       9.180  10.512  18.479  0.00  0.00    +0.000 A 
ATOM     23  C   UNL     1       9.214  10.878  19.830  0.00  0.00    +0.000 A 
ATOM     24  C   UNL     1      10.216  11.716  20.354  0.00  0.00    +0.000 A 
BRANCH  19  26
ATOM     25  C   UNL     1      11.806  14.482  19.659  0.00  0.00    +0.000 C 
ATOM     26  O   UNL     1      12.131  13.116  19.933  0.00  0.00    +0.000 OA
ENDBRANCH  19  26
BRANCH  24  27
ATOM     27  O   UNL     1      10.025  11.948  21.688  0.00  0.00    +0.000 OA
ATOM     28  C   UNL     1       9.032  12.863  22.113  0.00  0.00    +0.000 C 
ENDBRANCH  24  27
ENDBRANCH  18  22
ENDBRANCH  17  18
ENDBRANCH   1  17
TORSDOF 7
ENDMDL
MODEL 6
REMARK VINA RESULT:      -7.2      1.224      2.096
REMARK  Name = 
REMARK  10 active torsions:
REMARK  status: ('A' for Active; 'I' for Inactive)
REMARK    1  A    between atoms: C_1  and  O_2
REMARK    2  A    between atoms: O_2  and  C_3
REMARK    3  A    between atoms: C_6  and  C_7
REMARK    4  A    between atoms: C_7  and  C_8
REMARK    5  A    between atoms: C_8  and  N_9
REMARK    6  A    between atoms: N_9  and  C_10
REMARK    7  A    between atoms: C_10  and  C_11
REMARK    8  A    between atoms: C_10  and  C_12
REMARK    9  A    between atoms: C_23  and  O_24
REMARK   10  A    between atoms: O_24  and  C_25
REMARK                            x       y       z     vdW  Elec       q    Type
REMARK                         _______ _______ _______ _____ _____    ______ ____
ROOT
ATOM      1  N   UNL     1       2.090   4.650  19.080  0.00  0.00    +0.000 NA
ATOM      2  H   UNL     1       2.166   5.051  18.142  0.00  0.00    +0.000 HD
ENDROOT
BRANCH   1   3
ATOM      3  C   UNL     1       3.266   3.779  19.300  0.00  0.00    +0.000 C 
ATOM      4  C   UNL     1       2.936   2.294  19.098  0.00  0.00    +0.000 C 
BRANCH   3   5
ATOM      5  C   UNL     1       4.426   4.195  18.396  0.00  0.00    +0.000 A 
ATOM      6  C   UNL     1       5.623   4.707  18.977  0.00  0.00    +0.000 A 
ATOM      7  C   UNL     1       6.708   5.130  18.198  0.00  0.00    +0.000 A 
ATOM      8  C   UNL     1       6.571   5.017  16.835  0.00  0.00    +0.000 A 
ATOM      9  N   UNL     1       7.452   5.368  15.819  0.00  0.00    +0.000 N 
ATOM     10  C   UNL     1       6.860   5.068  14.581  0.00  0.00    +0.000 A 
ATOM     11  O   UNL     1       7.341   5.247  13.480  0.00  0.00    +0.000 OA
ATOM     12  N   UNL     1       5.594   4.520  14.869  0.00  0.00    +0.000 N 
ATOM     13  C   UNL     1       5.417   4.500  16.249  0.00  0.00    +0.000 A 
ATOM     14  C   UNL     1       4.337   4.080  16.993  0.00  0.00    +0.000 A 
ATOM     15  H   UNL     1       8.364   5.784  15.914  0.00  0.00    +0.000 HD
ATOM     16  H   UNL     1       4.943   4.219  14.167  0.00  0.00    +0.000 HD
ENDBRANCH   3   5
ENDBRANCH   1   3
BRANCH   1  17
ATOM     17  C   UNL     1       2.029   5.745  20.062  0.00  0.00    +0.000 C 
BRANCH  17  18
ATOM     18  C   UNL     1       2.432   7.113  19.487  0.00  0.00    +0.000 C 
BRANCH  18  22
ATOM     19  C   UNL     1       0.235  10.393  21.267  0.00  0.00    +0.000 A 
ATOM     20  C   UNL     1       0.570   9.259  22.024  0.00  0.00    +0.000 A 
ATOM     21  C   UNL     1       1.268   8.190  21.455  0.00  0.00    +0.000 A 
ATOM     22  C   UNL     1       1.580   8.203  20.093  0.00  0.00    +0.000 A 
ATOM     23  C   UNL     1       1.145   9.287  19.320  0.00  0.00    +0.000 A 
ATOM     24  C   UNL     1       0.470  10.386  19.884  0.00  0.00    +0.000 A 
BRANCH  19  26
ATOM     25  C   UNL     1      -1.162  11.203  22.990  0.00  0.00    +0.000 C 
ATOM     26  O   UNL     1      -0.316  11.495  21.873  0.00  0.00    +0.000 OA
ENDBRANCH  19  26
BRANCH  24  27
ATOM     27  O   UNL     1       0.169  11.326  18.938  0.00  0.00    +0.000 OA
ATOM     28  C   UNL     1      -1.094  11.310  18.300  0.00  0.00    +0.000 C 
ENDBRANCH  24  27
ENDBRANCH  18  22
ENDBRANCH  17  18
ENDBRANCH   1  17
TORSDOF 7
ENDMDL
MODEL 7
REMARK VINA RESULT:      -7.2      4.544      9.483
REMARK  Name = 
REMARK  10 active torsions:
REMARK  status: ('A' for Active; 'I' for Inactive)
REMARK    1  A    between atoms: C_1  and  O_2
REMARK    2  A    between atoms: O_2  and  C_3
REMARK    3  A    between atoms: C_6  and  C_7
REMARK    4  A    between atoms: C_7  and  C_8
REMARK    5  A    between atoms: C_8  and  N_9
REMARK    6  A    between atoms: N_9  and  C_10
REMARK    7  A    between atoms: C_10  and  C_11
REMARK    8  A    between atoms: C_10  and  C_12
REMARK    9  A    between atoms: C_23  and  O_24
REMARK   10  A    between atoms: O_24  and  C_25
REMARK                            x       y       z     vdW  Elec       q    Type
REMARK                         _______ _______ _______ _____ _____    ______ ____
ROOT
ATOM      1  N   UNL     1       1.169   9.925  17.767  0.00  0.00    +0.000 NA
ATOM      2  H   UNL     1       0.716   9.993  16.853  0.00  0.00    +0.000 HD
ENDROOT
BRANCH   1   3
ATOM      3  C   UNL     1       0.173  10.283  18.800  0.00  0.00    +0.000 C 
ATOM      4  C   UNL     1       0.584  11.528  19.599  0.00  0.00    +0.000 C 
BRANCH   3   5
ATOM      5  C   UNL     1      -1.208  10.484  18.175  0.00  0.00    +0.000 A 
ATOM      6  C   UNL     1      -1.544   9.791  16.975  0.00  0.00    +0.000 A 
ATOM      7  C   UNL     1      -2.783   9.956  16.341  0.00  0.00    +0.000 A 
ATOM      8  C   UNL     1      -3.673  10.816  16.939  0.00  0.00    +0.000 A 
ATOM      9  N   UNL     1      -4.949  11.194  16.542  0.00  0.00    +0.000 N 
ATOM     10  C   UNL     1      -5.465  12.105  17.480  0.00  0.00    +0.000 A 
ATOM     11  O   UNL     1      -6.552  12.646  17.449  0.00  0.00    +0.000 OA
ATOM     12  N   UNL     1      -4.469  12.268  18.463  0.00  0.00    +0.000 N 
ATOM     13  C   UNL     1      -3.370  11.486  18.123  0.00  0.00    +0.000 A 
ATOM     14  C   UNL     1      -2.159  11.342  18.764  0.00  0.00    +0.000 A 
ATOM     15  H   UNL     1      -5.450  10.899  15.720  0.00  0.00    +0.000 HD
ATOM     16  H   UNL     1      -4.564  12.874  19.258  0.00  0.00    +0.000 HD
ENDBRANCH   3   5
ENDBRANCH   1   3
BRANCH   1  17
ATOM     17  C   UNL     1       1.673   8.553  17.946  0.00  0.00    +0.000 C 
BRANCH  17  18
ATOM     18  C   UNL     1       1.994   8.198  19.407  0.00  0.00    +0.000 C 
BRANCH  18  22
ATOM     19  C   UNL     1       3.032   3.995  19.494  0.00  0.00    +0.000 A 
ATOM     20  C   UNL     1       2.183   4.545  20.468  0.00  0.00    +0.000 A 
ATOM     21  C   UNL     1       1.852   5.902  20.455  0.00  0.00    +0.000 A 
ATOM     22  C   UNL     1       2.427   6.755  19.508  0.00  0.00    +0.000 A 
ATOM     23  C   UNL     1       3.358   6.220  18.609  0.00  0.00    +0.000 A 
ATOM     24  C   UNL     1       3.677   4.849  18.589  0.00  0.00    +0.000 A 
BRANCH  19  26
ATOM     25  C   UNL     1       4.388   2.167  20.123  0.00  0.00    +0.000 C 
ATOM     26  O   UNL     1       3.228   2.637  19.430  0.00  0.00    +0.000 OA
ENDBRANCH  19  26
BRANCH  24  27
ATOM     27  O   UNL     1       4.591   4.565  17.612  0.00  0.00    +0.000 OA
ATOM     28  C   UNL     1       5.911   5.065  17.709  0.00  0.00    +0.000 C 
ENDBRANCH  24  27
ENDBRANCH  18  22
ENDBRANCH  17  18
ENDBRANCH   1  17
TORSDOF 7
ENDMDL
MODEL 8
REMARK VINA RESULT:      -7.2      4.623      9.434
REMARK  Name = 
REMARK  10 active torsions:
REMARK  status: ('A' for Active; 'I' for Inactive)
REMARK    1  A    between atoms: C_1  and  O_2
REMARK    2  A    between atoms: O_2  and  C_3
REMARK    3  A    between atoms: C_6  and  C_7
REMARK    4  A    between atoms: C_7  and  C_8
REMARK    5  A    between atoms: C_8  and  N_9
REMARK    6  A    between atoms: N_9  and  C_10
REMARK    7  A    between atoms: C_10  and  C_11
REMARK    8  A    between atoms: C_10  and  C_12
REMARK    9  A    between atoms: C_23  and  O_24
REMARK   10  A    between atoms: O_24  and  C_25
REMARK                            x       y       z     vdW  Elec       q    Type
REMARK                         _______ _______ _______ _____ _____    ______ ____
ROOT
ATOM      1  N   UNL     1       0.983   9.608  17.706  0.00  0.00    +0.000 NA
ATOM      2  H   UNL     1       0.497   8.869  17.193  0.00  0.00    +0.000 HD
ENDROOT
BRANCH   1   3
ATOM      3  C   UNL     1       0.054  10.144  18.724  0.00  0.00    +0.000 C 
ATOM      4  C   UNL     1       0.595  11.415  19.394  0.00  0.00    +0.000 C 
BRANCH   3   5
ATOM      5  C   UNL     1      -1.324  10.408  18.116  0.00  0.00    +0.000 A 
ATOM      6  C   UNL     1      -1.705   9.732  16.920  0.00  0.00    +0.000 A 
ATOM      7  C   UNL     1      -2.943   9.954  16.302  0.00  0.00    +0.000 A 
ATOM      8  C   UNL     1      -3.786  10.852  16.912  0.00  0.00    +0.000 A 
ATOM      9  N   UNL     1      -5.049  11.288  16.531  0.00  0.00    +0.000 N 
ATOM     10  C   UNL     1      -5.512  12.220  17.476  0.00  0.00    +0.000 A 
ATOM     11  O   UNL     1      -6.574  12.810  17.458  0.00  0.00    +0.000 OA
ATOM     12  N   UNL     1      -4.498  12.337  18.446  0.00  0.00    +0.000 N 
ATOM     13  C   UNL     1      -3.439  11.507  18.092  0.00  0.00    +0.000 A 
ATOM     14  C   UNL     1      -2.228  11.307  18.718  0.00  0.00    +0.000 A 
ATOM     15  H   UNL     1      -5.573  11.017  15.714  0.00  0.00    +0.000 HD
ATOM     16  H   UNL     1      -4.555  12.946  19.242  0.00  0.00    +0.000 HD
ENDBRANCH   3   5
ENDBRANCH   1   3
BRANCH   1  17
ATOM     17  C   UNL     1       2.197   9.043  18.316  0.00  0.00    +0.000 C 
BRANCH  17  18
ATOM     18  C   UNL     1       2.816   7.891  17.508  0.00  0.00    +0.000 C 
BRANCH  18  22
ATOM     19  C   UNL     1       3.356   4.260  19.806  0.00  0.00    +0.000 A 
ATOM     20  C   UNL     1       2.115   4.918  19.782  0.00  0.00    +0.000 A 
ATOM     21  C   UNL     1       1.935   6.096  19.054  0.00  0.00    +0.000 A 
ATOM     22  C   UNL     1       3.017   6.684  18.393  0.00  0.00    +0.000 A 
ATOM     23  C   UNL     1       4.277   6.082  18.512  0.00  0.00    +0.000 A 
ATOM     24  C   UNL     1       4.468   4.878  19.216  0.00  0.00    +0.000 A 
BRANCH  19  26
ATOM     25  C   UNL     1       2.526   2.767  21.437  0.00  0.00    +0.000 C 
ATOM     26  O   UNL     1       3.478   3.029  20.401  0.00  0.00    +0.000 OA
ENDBRANCH  19  26
BRANCH  24  27
ATOM     27  O   UNL     1       5.775   4.478  19.174  0.00  0.00    +0.000 OA
ATOM     28  C   UNL     1       6.812   5.430  19.319  0.00  0.00    +0.000 C 
ENDBRANCH  24  27
ENDBRANCH  18  22
ENDBRANCH  17  18
ENDBRANCH   1  17
TORSDOF 7
ENDMDL
MODEL 9
REMARK VINA RESULT:      -7.2      2.390      7.478
REMARK  Name = 
REMARK  10 active torsions:
REMARK  status: ('A' for Active; 'I' for Inactive)
REMARK    1  A    between atoms: C_1  and  O_2
REMARK    2  A    between atoms: O_2  and  C_3
REMARK    3  A    between atoms: C_6  and  C_7
REMARK    4  A    between atoms: C_7  and  C_8
REMARK    5  A    between atoms: C_8  and  N_9
REMARK    6  A    between atoms: N_9  and  C_10
REMARK    7  A    between atoms: C_10  and  C_11
REMARK    8  A    between atoms: C_10  and  C_12
REMARK    9  A    between atoms: C_23  and  O_24
REMARK   10  A    between atoms: O_24  and  C_25
REMARK                            x       y       z     vdW  Elec       q    Type
REMARK                         _______ _______ _______ _____ _____    ______ ____
ROOT
ATOM      1  N   UNL     1       2.725   4.372  19.718  0.00  0.00    +0.000 NA
ATOM      2  H   UNL     1       2.744   4.964  20.552  0.00  0.00    +0.000 HD
ENDROOT
BRANCH   1   3
ATOM      3  C   UNL     1       2.501   5.243  18.544  0.00  0.00    +0.000 C 
ATOM      4  C   UNL     1       1.446   4.671  17.587  0.00  0.00    +0.000 C 
BRANCH   3   5
ATOM      5  C   UNL     1       2.113   6.655  18.983  0.00  0.00    +0.000 A 
ATOM      6  C   UNL     1       1.730   6.891  20.336  0.00  0.00    +0.000 A 
ATOM      7  C   UNL     1       1.338   8.157  20.789  0.00  0.00    +0.000 A 
ATOM      8  C   UNL     1       1.350   9.175  19.865  0.00  0.00    +0.000 A 
ATOM      9  N   UNL     1       0.999  10.512  20.008  0.00  0.00    +0.000 N 
ATOM     10  C   UNL     1       1.173  11.161  18.774  0.00  0.00    +0.000 A 
ATOM     11  O   UNL     1       0.957  12.331  18.530  0.00  0.00    +0.000 OA
ATOM     12  N   UNL     1       1.644  10.185  17.875  0.00  0.00    +0.000 N 
ATOM     13  C   UNL     1       1.741   8.968  18.543  0.00  0.00    +0.000 A 
ATOM     14  C   UNL     1       2.129   7.733  18.073  0.00  0.00    +0.000 A 
ATOM     15  H   UNL     1       0.659  10.973  20.836  0.00  0.00    +0.000 HD
ATOM     16  H   UNL     1       1.849  10.368  16.909  0.00  0.00    +0.000 HD
ENDBRANCH   3   5
ENDBRANCH   1   3
BRANCH   1  17
ATOM     17  C   UNL     1       4.000   3.643  19.624  0.00  0.00    +0.000 C 
BRANCH  17  18
ATOM     18  C   UNL     1       5.237   4.555  19.661  0.00  0.00    +0.000 C 
BRANCH  18  22
ATOM     19  C   UNL     1       6.677   5.147  15.620  0.00  0.00    +0.000 A 
ATOM     20  C   UNL     1       5.948   3.996  15.962  0.00  0.00    +0.000 A 
ATOM     21  C   UNL     1       5.490   3.791  17.265  0.00  0.00    +0.000 A 
ATOM     22  C   UNL     1       5.818   4.700  18.275  0.00  0.00    +0.000 A 
ATOM     23  C   UNL     1       6.639   5.788  17.950  0.00  0.00    +0.000 A 
ATOM     24  C   UNL     1       7.081   6.025  16.635  0.00  0.00    +0.000 A 
BRANCH  19  26
ATOM     25  C   UNL     1       6.702   4.338  13.401  0.00  0.00    +0.000 C 
ATOM     26  O   UNL     1       6.990   5.407  14.308  0.00  0.00    +0.000 OA
ENDBRANCH  19  26
BRANCH  24  27
ATOM     27  O   UNL     1       7.848   7.156  16.564  0.00  0.00    +0.000 OA
ATOM     28  C   UNL     1       7.833   8.090  17.626  0.00  0.00    +0.000 C 
ENDBRANCH  24  27
ENDBRANCH  18  22
ENDBRANCH  17  18
ENDBRANCH   1  17
TORSDOF 7
ENDMDL
