MODEL 1
REMARK VINA RESULT:      -8.6      0.000      0.000
REMARK  Name = 
REMARK  6 active torsions:
REMARK  status: ('A' for Active; 'I' for Inactive)
REMARK    1  A    between atoms: C_1  and  N_2
REMARK    2  A    between atoms: N_2  and  C_3
REMARK    3  A    between atoms: N_2  and  C_4
REMARK    4  A    between atoms: C_7  and  C_8
REMARK    5  A    between atoms: C_8  and  C_9
REMARK    6  A    between atoms: C_18  and  N_19
REMARK                            x       y       z     vdW  Elec       q    Type
REMARK                         _______ _______ _______ _____ _____    ______ ____
ROOT
ATOM      1  C   UNL     1      -0.213  13.034  18.912  0.00  0.00    +0.000 C 
ATOM      2  O   UNL     1      -0.439  14.094  18.204  0.00  0.00    +0.000 OA
ATOM      3  N   UNL     1       0.664  11.872  18.332  0.00  0.00    +0.000 N 
ATOM      4  C   UNL     1       1.000  10.516  18.984  0.00  0.00    +0.000 A 
ATOM      5  N   UNL     1       0.062  10.357  19.959  0.00  0.00    +0.000 NA
ATOM      6  N   UNL     1       0.781   9.655  20.746  0.00  0.00    +0.000 N 
ATOM      7  C   UNL     1       1.277   8.542  20.151  0.00  0.00    +0.000 A 
ATOM      8  C   UNL     1       1.298   7.299  20.918  0.00  0.00    +0.000 A 
ATOM      9  C   UNL     1       1.862   6.074  20.586  0.00  0.00    +0.000 A 
ATOM     10  C   UNL     1       2.492   6.045  19.379  0.00  0.00    +0.000 A 
ATOM     11  C   UNL     1       2.524   7.444  18.670  0.00  0.00    +0.000 A 
ATOM     12  C   UNL     1       1.795   8.938  18.804  0.00  0.00    +0.000 A 
ATOM     13  H   UNL     1       0.338  11.697  17.342  0.00  0.00    +0.000 HD
ATOM     14  H   UNL     1       1.041  10.052  21.633  0.00  0.00    +0.000 HD
ENDROOT
BRANCH  10  15
ATOM     15  N   UNL     1       3.022   4.647  18.938  0.00  0.00    +0.000 N 
ATOM     16  C   UNL     1       4.410   4.257  18.590  0.00  0.00    +0.000 C 
ATOM     17  C   UNL     1       4.436   3.400  17.291  0.00  0.00    +0.000 C 
ATOM     18  C   UNL     1       3.182   2.551  17.266  0.00  0.00    +0.000 C 
ATOM     19  S   UNL     1       1.953   3.420  18.297  0.00  0.00    +0.000 S 
ATOM     20  O   UNL     1       1.563   2.502  19.351  0.00  0.00    +0.000 OA
ATOM     21  O   UNL     1       0.993   4.052  17.423  0.00  0.00    +0.000 OA
ENDBRANCH  10  15
BRANCH   1  22
ATOM     22  C   UNL     1      -1.023  12.892  20.426  0.00  0.00    +0.000 C 
BRANCH  22  26
ATOM     23  C   UNL     1      -5.573  12.329  20.787  0.00  0.00    +0.000 A 
ATOM     24  C   UNL     1      -4.764  12.691  21.860  0.00  0.00    +0.000 A 
ATOM     25  C   UNL     1      -3.342  12.940  21.743  0.00  0.00    +0.000 A 
ATOM     26  C   UNL     1      -2.612  12.752  20.585  0.00  0.00    +0.000 A 
ATOM     27  C   UNL     1      -3.446  12.405  19.450  0.00  0.00    +0.000 A 
ATOM     28  C   UNL     1      -4.865  12.184  19.575  0.00  0.00    +0.000 A 
BRANCH  23  30
ATOM     29  C   UNL     1      -7.580  10.845  20.569  0.00  0.00    +0.000 C 
ATOM     30  N   UNL     1      -6.951  12.137  20.892  0.00  0.00    +0.000 N 
ATOM     31  C   UNL     1      -7.836  13.284  21.049  0.00  0.00    +0.000 C 
ENDBRANCH  23  30
ENDBRANCH  22  26
ENDBRANCH   1  22
TORSDOF 4
ENDMDL
MODEL 2
REMARK VINA RESULT:      -8.6      1.547      2.062
REMARK  Name = 
REMARK  6 active torsions:
REMARK  status: ('A' for Active; 'I' for Inactive)
REMARK    1  A    between atoms: C_1  and  N_2
REMARK    2  A    between atoms: N_2  and  C_3
REMARK    3  A    between atoms: N_2  and  C_4
REMARK    4  A    between atoms: C_7  and  C_8
REMARK    5  A    between atoms: C_8  and  C_9
REMARK    6  A    between atoms: C_18  and  N_19
REMARK                            x       y       z     vdW  Elec       q    Type
REMARK                         _______ _______ _______ _____ _____    ______ ____
ROOT
ATOM      1  C   UNL     1       0.189  12.829  19.131  0.00  0.00    +0.000 C 
ATOM      2  O   UNL     1      -0.077  13.934  18.510  0.00  0.00    +0.000 OA
ATOM      3  N   UNL     1       0.874  11.644  18.368  0.00  0.00    +0.000 N 
ATOM      4  C   UNL     1       1.217  10.240  18.903  0.00  0.00    +0.000 A 
ATOM      5  N   UNL     1       0.445  10.093  20.016  0.00  0.00    +0.000 NA
ATOM      6  N   UNL     1       1.235   9.310  20.644  0.00  0.00    +0.000 N 
ATOM      7  C   UNL     1       1.546   8.198  19.932  0.00  0.00    +0.000 A 
ATOM      8  C   UNL     1       1.607   6.920  20.639  0.00  0.00    +0.000 A 
ATOM      9  C   UNL     1       2.021   5.680  20.170  0.00  0.00    +0.000 A 
ATOM     10  C   UNL     1       2.438   5.670  18.875  0.00  0.00    +0.000 A 
ATOM     11  C   UNL     1       2.451   7.097  18.223  0.00  0.00    +0.000 A 
ATOM     12  C   UNL     1       1.860   8.626  18.533  0.00  0.00    +0.000 A 
ATOM     13  H   UNL     1       0.377  11.537  17.441  0.00  0.00    +0.000 HD
ATOM     14  H   UNL     1       1.665   9.647  21.488  0.00  0.00    +0.000 HD
ENDROOT
BRANCH  10  15
ATOM     15  N   UNL     1       2.789   4.265  18.299  0.00  0.00    +0.000 N 
ATOM     16  C   UNL     1       1.890   3.102  18.097  0.00  0.00    +0.000 C 
ATOM     17  C   UNL     1       2.557   1.790  18.604  0.00  0.00    +0.000 C 
ATOM     18  C   UNL     1       4.045   1.891  18.341  0.00  0.00    +0.000 C 
ATOM     19  S   UNL     1       4.435   3.671  18.263  0.00  0.00    +0.000 S 
ATOM     20  O   UNL     1       5.021   3.917  16.959  0.00  0.00    +0.000 OA
ATOM     21  O   UNL     1       5.090   4.048  19.493  0.00  0.00    +0.000 OA
ENDBRANCH  10  15
BRANCH   1  22
ATOM     22  C   UNL     1      -0.367  12.665  20.753  0.00  0.00    +0.000 C 
BRANCH  22  26
ATOM     23  C   UNL     1      -4.762  12.750  22.103  0.00  0.00    +0.000 A 
ATOM     24  C   UNL     1      -4.375  12.817  20.767  0.00  0.00    +0.000 A 
ATOM     25  C   UNL     1      -2.999  12.720  20.326  0.00  0.00    +0.000 A 
ATOM     26  C   UNL     1      -1.913  12.650  21.176  0.00  0.00    +0.000 A 
ATOM     27  C   UNL     1      -2.302  12.548  22.570  0.00  0.00    +0.000 A 
ATOM     28  C   UNL     1      -3.677  12.621  22.995  0.00  0.00    +0.000 A 
BRANCH  23  30
ATOM     29  C   UNL     1      -6.452  12.976  23.938  0.00  0.00    +0.000 C 
ATOM     30  N   UNL     1      -6.093  12.795  22.522  0.00  0.00    +0.000 N 
ATOM     31  C   UNL     1      -7.155  12.381  21.615  0.00  0.00    +0.000 C 
ENDBRANCH  23  30
ENDBRANCH  22  26
ENDBRANCH   1  22
TORSDOF 4
ENDMDL
MODEL 3
REMARK VINA RESULT:      -8.5      0.711      1.200
REMARK  Name = 
REMARK  6 active torsions:
REMARK  status: ('A' for Active; 'I' for Inactive)
REMARK    1  A    between atoms: C_1  and  N_2
REMARK    2  A    between atoms: N_2  and  C_3
REMARK    3  A    between atoms: N_2  and  C_4
REMARK    4  A    between atoms: C_7  and  C_8
REMARK    5  A    between atoms: C_8  and  C_9
REMARK    6  A    between atoms: C_18  and  N_19
REMARK                            x       y       z     vdW  Elec       q    Type
REMARK                         _______ _______ _______ _____ _____    ______ ____
ROOT
ATOM      1  C   UNL     1      -0.261  12.697  18.960  0.00  0.00    +0.000 C 
ATOM      2  O   UNL     1      -0.582  13.717  18.230  0.00  0.00    +0.000 OA
ATOM      3  N   UNL     1       0.561  11.514  18.343  0.00  0.00    +0.000 N 
ATOM      4  C   UNL     1       0.988  10.197  19.019  0.00  0.00    +0.000 A 
ATOM      5  N   UNL     1       0.169  10.079  20.101  0.00  0.00    +0.000 NA
ATOM      6  N   UNL     1       0.983   9.425  20.835  0.00  0.00    +0.000 N 
ATOM      7  C   UNL     1       1.425   8.287  20.243  0.00  0.00    +0.000 A 
ATOM      8  C   UNL     1       1.550   7.085  21.064  0.00  0.00    +0.000 A 
ATOM      9  C   UNL     1       2.092   5.850  20.731  0.00  0.00    +0.000 A 
ATOM     10  C   UNL     1       2.582   5.766  19.463  0.00  0.00    +0.000 A 
ATOM     11  C   UNL     1       2.514   7.127  18.687  0.00  0.00    +0.000 A 
ATOM     12  C   UNL     1       1.782   8.619  18.828  0.00  0.00    +0.000 A 
ATOM     13  H   UNL     1       0.129  11.286  17.406  0.00  0.00    +0.000 HD
ATOM     14  H   UNL     1       1.335   9.869  21.666  0.00  0.00    +0.000 HD
ENDROOT
BRANCH  10  15
ATOM     15  N   UNL     1       3.080   4.352  19.035  0.00  0.00    +0.000 N 
ATOM     16  C   UNL     1       4.412   3.965  18.509  0.00  0.00    +0.000 C 
ATOM     17  C   UNL     1       4.270   3.027  17.276  0.00  0.00    +0.000 C 
ATOM     18  C   UNL     1       3.049   2.156  17.489  0.00  0.00    +0.000 C 
ATOM     19  S   UNL     1       1.962   3.067  18.635  0.00  0.00    +0.000 S 
ATOM     20  O   UNL     1       1.756   2.212  19.790  0.00  0.00    +0.000 OA
ATOM     21  O   UNL     1       0.867   3.624  17.877  0.00  0.00    +0.000 OA
ENDBRANCH  10  15
BRANCH   1  22
ATOM     22  C   UNL     1      -0.894  12.625  20.561  0.00  0.00    +0.000 C 
BRANCH  22  26
ATOM     23  C   UNL     1      -5.351  12.751  21.684  0.00  0.00    +0.000 A 
ATOM     24  C   UNL     1      -4.900  12.671  20.370  0.00  0.00    +0.000 A 
ATOM     25  C   UNL     1      -3.502  12.559  20.008  0.00  0.00    +0.000 A 
ATOM     26  C   UNL     1      -2.458  12.619  20.911  0.00  0.00    +0.000 A 
ATOM     27  C   UNL     1      -2.913  12.670  22.287  0.00  0.00    +0.000 A 
ATOM     28  C   UNL     1      -4.310  12.756  22.635  0.00  0.00    +0.000 A 
BRANCH  23  30
ATOM     29  C   UNL     1      -7.149  12.655  23.427  0.00  0.00    +0.000 C 
ATOM     30  N   UNL     1      -6.702  12.809  22.033  0.00  0.00    +0.000 N 
ATOM     31  C   UNL     1      -7.724  12.740  20.997  0.00  0.00    +0.000 C 
ENDBRANCH  23  30
ENDBRANCH  22  26
ENDBRANCH   1  22
TORSDOF 4
ENDMDL
MODEL 4
REMARK VINA RESULT:      -8.4      3.814     10.470
REMARK  Name = 
REMARK  6 active torsions:
REMARK  status: ('A' for Active; 'I' for Inactive)
REMARK    1  A    between atoms: C_1  and  N_2
REMARK    2  A    between atoms: N_2  and  C_3
REMARK    3  A    between atoms: N_2  and  C_4
REMARK    4  A    between atoms: C_7  and  C_8
REMARK    5  A    between atoms: C_8  and  C_9
REMARK    6  A    between atoms: C_18  and  N_19
REMARK                            x       y       z     vdW  Elec       q    Type
REMARK                         _______ _______ _______ _____ _____    ______ ____
ROOT
ATOM      1  C   UNL     1       2.252   2.999  21.111  0.00  0.00    +0.000 C 
ATOM      2  O   UNL     1       2.160   2.012  21.943  0.00  0.00    +0.000 OA
ATOM      3  N   UNL     1       1.890   4.453  21.571  0.00  0.00    +0.000 N 
ATOM      4  C   UNL     1       1.877   5.742  20.728  0.00  0.00    +0.000 A 
ATOM      5  N   UNL     1       1.832   5.313  19.435  0.00  0.00    +0.000 NA
ATOM      6  N   UNL     1       2.447   6.308  18.925  0.00  0.00    +0.000 N 
ATOM      7  C   UNL     1       1.862   7.496  19.223  0.00  0.00    +0.000 A 
ATOM      8  C   UNL     1       1.777   8.507  18.172  0.00  0.00    +0.000 A 
ATOM      9  C   UNL     1       1.348   9.825  18.258  0.00  0.00    +0.000 A 
ATOM     10  C   UNL     1       0.968  10.221  19.504  0.00  0.00    +0.000 A 
ATOM     11  C   UNL     1       1.196   9.116  20.595  0.00  0.00    +0.000 A 
ATOM     12  C   UNL     1       1.523   7.483  20.680  0.00  0.00    +0.000 A 
ATOM     13  H   UNL     1       0.984   4.396  22.112  0.00  0.00    +0.000 HD
ATOM     14  H   UNL     1       3.351   6.148  18.514  0.00  0.00    +0.000 HD
ENDROOT
BRANCH  10  15
ATOM     15  N   UNL     1       0.369  11.657  19.593  0.00  0.00    +0.000 N 
ATOM     16  C   UNL     1      -0.816  12.205  18.890  0.00  0.00    +0.000 C 
ATOM     17  C   UNL     1      -0.509  13.613  18.301  0.00  0.00    +0.000 C 
ATOM     18  C   UNL     1       0.438  14.320  19.247  0.00  0.00    +0.000 C 
ATOM     19  S   UNL     1       1.314  13.012  20.169  0.00  0.00    +0.000 S 
ATOM     20  O   UNL     1       1.048  13.239  21.577  0.00  0.00    +0.000 OA
ATOM     21  O   UNL     1       2.653  12.902  19.639  0.00  0.00    +0.000 OA
ENDBRANCH  10  15
BRANCH   1  22
ATOM     22  C   UNL     1       2.632   2.634  19.471  0.00  0.00    +0.000 C 
BRANCH  22  26
ATOM     23  C   UNL     1       5.919   4.711  17.016  0.00  0.00    +0.000 A 
ATOM     24  C   UNL     1       5.983   4.558  18.398  0.00  0.00    +0.000 A 
ATOM     25  C   UNL     1       4.989   3.844  19.172  0.00  0.00    +0.000 A 
ATOM     26  C   UNL     1       3.823   3.323  18.648  0.00  0.00    +0.000 A 
ATOM     27  C   UNL     1       3.755   3.447  17.204  0.00  0.00    +0.000 A 
ATOM     28  C   UNL     1       4.765   4.139  16.442  0.00  0.00    +0.000 A 
BRANCH  23  30
ATOM     29  C   UNL     1       7.499   6.631  16.703  0.00  0.00    +0.000 C 
ATOM     30  N   UNL     1       6.902   5.358  16.266  0.00  0.00    +0.000 N 
ATOM     31  C   UNL     1       7.162   4.941  14.894  0.00  0.00    +0.000 C 
ENDBRANCH  23  30
ENDBRANCH  22  26
ENDBRANCH   1  22
TORSDOF 4
ENDMDL
MODEL 5
REMARK VINA RESULT:      -8.4      1.527      1.850
REMARK  Name = 
REMARK  6 active torsions:
REMARK  status: ('A' for Active; 'I' for Inactive)
REMARK    1  A    between atoms: C_1  and  N_2
REMARK    2  A    between atoms: N_2  and  C_3
REMARK    3  A    between atoms: N_2  and  C_4
REMARK    4  A    between atoms: C_7  and  C_8
REMARK    5  A    between atoms: C_8  and  C_9
REMARK    6  A    between atoms: C_18  and  N_19
REMARK                            x       y       z     vdW  Elec       q    Type
REMARK                         _______ _______ _______ _____ _____    ______ ____
ROOT
ATOM      1  C   UNL     1       0.250  12.894  19.173  0.00  0.00    +0.000 C 
ATOM      2  O   UNL     1      -0.018  13.997  18.551  0.00  0.00    +0.000 OA
ATOM      3  N   UNL     1       0.872  11.684  18.395  0.00  0.00    +0.000 N 
ATOM      4  C   UNL     1       1.207  10.279  18.932  0.00  0.00    +0.000 A 
ATOM      5  N   UNL     1       0.482  10.162  20.080  0.00  0.00    +0.000 NA
ATOM      6  N   UNL     1       1.280   9.368  20.682  0.00  0.00    +0.000 N 
ATOM      7  C   UNL     1       1.534   8.241  19.971  0.00  0.00    +0.000 A 
ATOM      8  C   UNL     1       1.596   6.971  20.690  0.00  0.00    +0.000 A 
ATOM      9  C   UNL     1       1.960   5.715  20.219  0.00  0.00    +0.000 A 
ATOM     10  C   UNL     1       2.319   5.681  18.906  0.00  0.00    +0.000 A 
ATOM     11  C   UNL     1       2.335   7.099  18.237  0.00  0.00    +0.000 A 
ATOM     12  C   UNL     1       1.794   8.645  18.554  0.00  0.00    +0.000 A 
ATOM     13  H   UNL     1       0.332  11.579  17.493  0.00  0.00    +0.000 HD
ATOM     14  H   UNL     1       1.756   9.704  21.502  0.00  0.00    +0.000 HD
ENDROOT
BRANCH  10  15
ATOM     15  N   UNL     1       2.611   4.261  18.333  0.00  0.00    +0.000 N 
ATOM     16  C   UNL     1       1.692   3.100  18.236  0.00  0.00    +0.000 C 
ATOM     17  C   UNL     1       2.395   1.796  18.711  0.00  0.00    +0.000 C 
ATOM     18  C   UNL     1       3.855   1.880  18.317  0.00  0.00    +0.000 C 
ATOM     19  S   UNL     1       4.244   3.656  18.166  0.00  0.00    +0.000 S 
ATOM     20  O   UNL     1       4.715   3.870  16.810  0.00  0.00    +0.000 OA
ATOM     21  O   UNL     1       5.007   4.055  19.325  0.00  0.00    +0.000 OA
ENDBRANCH  10  15
BRANCH   1  22
ATOM     22  C   UNL     1      -0.237  12.761  20.820  0.00  0.00    +0.000 C 
BRANCH  22  26
ATOM     23  C   UNL     1      -4.651  12.768  22.109  0.00  0.00    +0.000 A 
ATOM     24  C   UNL     1      -3.595  12.729  23.014  0.00  0.00    +0.000 A 
ATOM     25  C   UNL     1      -2.202  12.797  22.623  0.00  0.00    +0.000 A 
ATOM     26  C   UNL     1      -1.761  12.810  21.314  0.00  0.00    +0.000 A 
ATOM     27  C   UNL     1      -2.851  12.883  20.359  0.00  0.00    +0.000 A 
ATOM     28  C   UNL     1      -4.234  12.839  20.763  0.00  0.00    +0.000 A 
BRANCH  23  30
ATOM     29  C   UNL     1      -7.081  12.852  21.503  0.00  0.00    +0.000 C 
ATOM     30  N   UNL     1      -5.994  12.751  22.490  0.00  0.00    +0.000 N 
ATOM     31  C   UNL     1      -6.353  12.918  23.892  0.00  0.00    +0.000 C 
ENDBRANCH  23  30
ENDBRANCH  22  26
ENDBRANCH   1  22
TORSDOF 4
ENDMDL
MODEL 6
REMARK VINA RESULT:      -8.2      3.751     10.411
REMARK  Name = 
REMARK  6 active torsions:
REMARK  status: ('A' for Active; 'I' for Inactive)
REMARK    1  A    between atoms: C_1  and  N_2
REMARK    2  A    between atoms: N_2  and  C_3
REMARK    3  A    between atoms: N_2  and  C_4
REMARK    4  A    between atoms: C_7  and  C_8
REMARK    5  A    between atoms: C_8  and  C_9
REMARK    6  A    between atoms: C_18  and  N_19
REMARK                            x       y       z     vdW  Elec       q    Type
REMARK                         _______ _______ _______ _____ _____    ______ ____
ROOT
ATOM      1  C   UNL     1       2.384   3.183  21.184  0.00  0.00    +0.000 C 
ATOM      2  O   UNL     1       2.296   2.256  22.083  0.00  0.00    +0.000 OA
ATOM      3  N   UNL     1       2.019   4.664  21.543  0.00  0.00    +0.000 N 
ATOM      4  C   UNL     1       2.001   5.892  20.613  0.00  0.00    +0.000 A 
ATOM      5  N   UNL     1       1.956   5.374  19.353  0.00  0.00    +0.000 NA
ATOM      6  N   UNL     1       2.567   6.334  18.774  0.00  0.00    +0.000 N 
ATOM      7  C   UNL     1       1.979   7.537  18.990  0.00  0.00    +0.000 A 
ATOM      8  C   UNL     1       1.891   8.473  17.872  0.00  0.00    +0.000 A 
ATOM      9  C   UNL     1       1.458   9.793  17.868  0.00  0.00    +0.000 A 
ATOM     10  C   UNL     1       1.078  10.273  19.084  0.00  0.00    +0.000 A 
ATOM     11  C   UNL     1       1.310   9.247  20.248  0.00  0.00    +0.000 A 
ATOM     12  C   UNL     1       1.642   7.624  20.445  0.00  0.00    +0.000 A 
ATOM     13  H   UNL     1       1.113   4.642  22.088  0.00  0.00    +0.000 HD
ATOM     14  H   UNL     1       3.471   6.148  18.375  0.00  0.00    +0.000 HD
ENDROOT
BRANCH  10  15
ATOM     15  N   UNL     1       0.475  11.710  19.074  0.00  0.00    +0.000 N 
ATOM     16  C   UNL     1       1.171  12.999  18.840  0.00  0.00    +0.000 C 
ATOM     17  C   UNL     1       0.732  14.064  19.887  0.00  0.00    +0.000 C 
ATOM     18  C   UNL     1      -0.726  13.824  20.215  0.00  0.00    +0.000 C 
ATOM     19  S   UNL     1      -1.055  12.069  19.842  0.00  0.00    +0.000 S 
ATOM     20  O   UNL     1      -2.122  12.040  18.859  0.00  0.00    +0.000 OA
ATOM     21  O   UNL     1      -1.128  11.345  21.089  0.00  0.00    +0.000 OA
ENDBRANCH  10  15
BRANCH   1  22
ATOM     22  C   UNL     1       2.763   2.706  19.573  0.00  0.00    +0.000 C 
BRANCH  22  26
ATOM     23  C   UNL     1       5.959   4.705  16.938  0.00  0.00    +0.000 A 
ATOM     24  C   UNL     1       6.060   4.619  18.323  0.00  0.00    +0.000 A 
ATOM     25  C   UNL     1       5.096   3.931  19.156  0.00  0.00    +0.000 A 
ATOM     26  C   UNL     1       3.924   3.370  18.688  0.00  0.00    +0.000 A 
ATOM     27  C   UNL     1       3.818   3.424  17.242  0.00  0.00    +0.000 A 
ATOM     28  C   UNL     1       4.798   4.091  16.422  0.00  0.00    +0.000 A 
BRANCH  23  30
ATOM     29  C   UNL     1       7.522   6.614  16.506  0.00  0.00    +0.000 C 
ATOM     30  N   UNL     1       6.914   5.327  16.132  0.00  0.00    +0.000 N 
ATOM     31  C   UNL     1       7.126   4.865  14.767  0.00  0.00    +0.000 C 
ENDBRANCH  23  30
ENDBRANCH  22  26
ENDBRANCH   1  22
TORSDOF 4
ENDMDL
MODEL 7
REMARK VINA RESULT:      -8.2      2.591      3.182
REMARK  Name = 
REMARK  6 active torsions:
REMARK  status: ('A' for Active; 'I' for Inactive)
REMARK    1  A    between atoms: C_1  and  N_2
REMARK    2  A    between atoms: N_2  and  C_3
REMARK    3  A    between atoms: N_2  and  C_4
REMARK    4  A    between atoms: C_7  and  C_8
REMARK    5  A    between atoms: C_8  and  C_9
REMARK    6  A    between atoms: C_18  and  N_19
REMARK                            x       y       z     vdW  Elec       q    Type
REMARK                         _______ _______ _______ _____ _____    ______ ____
ROOT
ATOM      1  C   UNL     1      -0.649  10.529  22.449  0.00  0.00    +0.000 C 
ATOM      2  O   UNL     1      -1.141  10.790  23.618  0.00  0.00    +0.000 OA
ATOM      3  N   UNL     1       0.204   9.233  22.227  0.00  0.00    +0.000 N 
ATOM      4  C   UNL     1       0.920   8.774  20.942  0.00  0.00    +0.000 A 
ATOM      5  N   UNL     1       1.017   9.897  20.177  0.00  0.00    +0.000 NA
ATOM      6  N   UNL     1       0.989   9.310  19.044  0.00  0.00    +0.000 N 
ATOM      7  C   UNL     1       1.957   8.367  18.917  0.00  0.00    +0.000 A 
ATOM      8  C   UNL     1       2.656   8.263  17.639  0.00  0.00    +0.000 A 
ATOM      9  C   UNL     1       3.580   7.313  17.222  0.00  0.00    +0.000 A 
ATOM     10  C   UNL     1       3.854   6.343  18.138  0.00  0.00    +0.000 A 
ATOM     11  C   UNL     1       2.981   6.461  19.436  0.00  0.00    +0.000 A 
ATOM     12  C   UNL     1       1.981   7.569  20.182  0.00  0.00    +0.000 A 
ATOM     13  H   UNL     1       0.882   9.160  23.033  0.00  0.00    +0.000 HD
ATOM     14  H   UNL     1       0.196   9.469  18.446  0.00  0.00    +0.000 HD
ENDROOT
BRANCH  10  15
ATOM     15  N   UNL     1       4.978   5.343  17.732  0.00  0.00    +0.000 N 
ATOM     16  C   UNL     1       5.997   4.702  18.600  0.00  0.00    +0.000 C 
ATOM     17  C   UNL     1       7.406   4.768  17.942  0.00  0.00    +0.000 C 
ATOM     18  C   UNL     1       7.228   4.644  16.443  0.00  0.00    +0.000 C 
ATOM     19  S   UNL     1       5.531   5.203  16.078  0.00  0.00    +0.000 S 
ATOM     20  O   UNL     1       4.855   4.099  15.422  0.00  0.00    +0.000 OA
ATOM     21  O   UNL     1       5.602   6.524  15.501  0.00  0.00    +0.000 OA
ENDBRANCH  10  15
BRANCH   1  22
ATOM     22  C   UNL     1      -0.837  11.715  21.215  0.00  0.00    +0.000 C 
BRANCH  22  26
ATOM     23  C   UNL     1      -4.873  12.616  19.204  0.00  0.00    +0.000 A 
ATOM     24  C   UNL     1      -4.558  13.027  20.496  0.00  0.00    +0.000 A 
ATOM     25  C   UNL     1      -3.266  12.811  21.114  0.00  0.00    +0.000 A 
ATOM     26  C   UNL     1      -2.239  12.092  20.535  0.00  0.00    +0.000 A 
ATOM     27  C   UNL     1      -2.539  11.684  19.176  0.00  0.00    +0.000 A 
ATOM     28  C   UNL     1      -3.822  11.928  18.563  0.00  0.00    +0.000 A 
BRANCH  23  30
ATOM     29  C   UNL     1      -6.337  12.566  17.172  0.00  0.00    +0.000 C 
ATOM     30  N   UNL     1      -6.102  12.868  18.593  0.00  0.00    +0.000 N 
ATOM     31  C   UNL     1      -7.093  13.697  19.268  0.00  0.00    +0.000 C 
ENDBRANCH  23  30
ENDBRANCH  22  26
ENDBRANCH   1  22
TORSDOF 4
ENDMDL
MODEL 8
REMARK VINA RESULT:      -8.1      2.588      3.289
REMARK  Name = 
REMARK  6 active torsions:
REMARK  status: ('A' for Active; 'I' for Inactive)
REMARK    1  A    between atoms: C_1  and  N_2
REMARK    2  A    between atoms: N_2  and  C_3
REMARK    3  A    between atoms: N_2  and  C_4
REMARK    4  A    between atoms: C_7  and  C_8
REMARK    5  A    between atoms: C_8  and  C_9
REMARK    6  A    between atoms: C_18  and  N_19
REMARK                            x       y       z     vdW  Elec       q    Type
REMARK                         _______ _______ _______ _____ _____    ______ ____
ROOT
ATOM      1  C   UNL     1      -0.667  10.781  22.396  0.00  0.00    +0.000 C 
ATOM      2  O   UNL     1      -1.128  11.107  23.561  0.00  0.00    +0.000 OA
ATOM      3  N   UNL     1       0.206   9.491  22.228  0.00  0.00    +0.000 N 
ATOM      4  C   UNL     1       0.892   8.965  20.952  0.00  0.00    +0.000 A 
ATOM      5  N   UNL     1       0.940  10.038  20.114  0.00  0.00    +0.000 NA
ATOM      6  N   UNL     1       0.889   9.379  19.023  0.00  0.00    +0.000 N 
ATOM      7  C   UNL     1       1.873   8.450  18.925  0.00  0.00    +0.000 A 
ATOM      8  C   UNL     1       2.534   8.277  17.633  0.00  0.00    +0.000 A 
ATOM      9  C   UNL     1       3.465   7.321  17.248  0.00  0.00    +0.000 A 
ATOM     10  C   UNL     1       3.788   6.418  18.214  0.00  0.00    +0.000 A 
ATOM     11  C   UNL     1       2.955   6.602  19.530  0.00  0.00    +0.000 A 
ATOM     12  C   UNL     1       1.955   7.735  20.236  0.00  0.00    +0.000 A 
ATOM     13  H   UNL     1       0.912   9.484  23.015  0.00  0.00    +0.000 HD
ATOM     14  H   UNL     1       0.074   9.483  18.442  0.00  0.00    +0.000 HD
ENDROOT
BRANCH  10  15
ATOM     15  N   UNL     1       4.921   5.416  17.836  0.00  0.00    +0.000 N 
ATOM     16  C   UNL     1       5.953   4.818  18.718  0.00  0.00    +0.000 C 
ATOM     17  C   UNL     1       7.357   4.876  18.048  0.00  0.00    +0.000 C 
ATOM     18  C   UNL     1       7.170   4.697  16.556  0.00  0.00    +0.000 C 
ATOM     19  S   UNL     1       5.464   5.224  16.184  0.00  0.00    +0.000 S 
ATOM     20  O   UNL     1       4.797   4.090  15.572  0.00  0.00    +0.000 OA
ATOM     21  O   UNL     1       5.516   6.524  15.559  0.00  0.00    +0.000 OA
ENDBRANCH  10  15
BRANCH   1  22
ATOM     22  C   UNL     1      -0.920  11.882  21.095  0.00  0.00    +0.000 C 
BRANCH  22  26
ATOM     23  C   UNL     1      -4.929  12.600  18.960  0.00  0.00    +0.000 A 
ATOM     24  C   UNL     1      -3.877  11.891  18.386  0.00  0.00    +0.000 A 
ATOM     25  C   UNL     1      -2.638  11.598  19.075  0.00  0.00    +0.000 A 
ATOM     26  C   UNL     1      -2.318  12.069  20.333  0.00  0.00    +0.000 A 
ATOM     27  C   UNL     1      -3.416  12.783  20.958  0.00  0.00    +0.000 A 
ATOM     28  C   UNL     1      -4.655  13.046  20.270  0.00  0.00    +0.000 A 
BRANCH  23  30
ATOM     29  C   UNL     1      -6.698  14.196  18.186  0.00  0.00    +0.000 C 
ATOM     30  N   UNL     1      -6.141  12.839  18.311  0.00  0.00    +0.000 N 
ATOM     31  C   UNL     1      -7.026  11.727  17.991  0.00  0.00    +0.000 C 
ENDBRANCH  23  30
ENDBRANCH  22  26
ENDBRANCH   1  22
TORSDOF 4
ENDMDL
MODEL 9
REMARK VINA RESULT:      -8.1      3.328      6.084
REMARK  Name = 
REMARK  6 active torsions:
REMARK  status: ('A' for Active; 'I' for Inactive)
REMARK    1  A    between atoms: C_1  and  N_2
REMARK    2  A    between atoms: N_2  and  C_3
REMARK    3  A    between atoms: N_2  and  C_4
REMARK    4  A    between atoms: C_7  and  C_8
REMARK    5  A    between atoms: C_8  and  C_9
REMARK    6  A    between atoms: C_18  and  N_19
REMARK                            x       y       z     vdW  Elec       q    Type
REMARK                         _______ _______ _______ _____ _____    ______ ____
ROOT
ATOM      1  C   UNL     1      -0.352  13.021  21.538  0.00  0.00    +0.000 C 
ATOM      2  O   UNL     1      -0.806  13.839  22.433  0.00  0.00    +0.000 OA
ATOM      3  N   UNL     1      -0.113  11.514  21.899  0.00  0.00    +0.000 N 
ATOM      4  C   UNL     1       0.470  10.402  21.006  0.00  0.00    +0.000 A 
ATOM      5  N   UNL     1       1.114  11.063  20.003  0.00  0.00    +0.000 NA
ATOM      6  N   UNL     1       0.958  10.166  19.108  0.00  0.00    +0.000 N 
ATOM      7  C   UNL     1       1.440   8.956  19.488  0.00  0.00    +0.000 A 
ATOM      8  C   UNL     1       2.158   8.157  18.497  0.00  0.00    +0.000 A 
ATOM      9  C   UNL     1       2.629   6.854  18.599  0.00  0.00    +0.000 A 
ATOM     10  C   UNL     1       2.367   6.244  19.787  0.00  0.00    +0.000 A 
ATOM     11  C   UNL     1       1.497   7.125  20.751  0.00  0.00    +0.000 A 
ATOM     12  C   UNL     1       0.991   8.708  20.894  0.00  0.00    +0.000 A 
ATOM     13  H   UNL     1       0.382  11.489  22.833  0.00  0.00    +0.000 HD
ATOM     14  H   UNL     1       0.374  10.381  18.318  0.00  0.00    +0.000 HD
ENDROOT
BRANCH  10  15
ATOM     15  N   UNL     1       2.995   4.828  19.961  0.00  0.00    +0.000 N 
ATOM     16  C   UNL     1       4.220   4.280  19.328  0.00  0.00    +0.000 C 
ATOM     17  C   UNL     1       3.969   2.842  18.789  0.00  0.00    +0.000 C 
ATOM     18  C   UNL     1       3.002   2.152  19.729  0.00  0.00    +0.000 C 
ATOM     19  S   UNL     1       2.060   3.476  20.559  0.00  0.00    +0.000 S 
ATOM     20  O   UNL     1       2.277   3.316  21.985  0.00  0.00    +0.000 OA
ATOM     21  O   UNL     1       0.741   3.530  19.975  0.00  0.00    +0.000 OA
ENDBRANCH  10  15
BRANCH   1  22
ATOM     22  C   UNL     1       0.112  13.673  20.013  0.00  0.00    +0.000 C 
BRANCH  22  26
ATOM     23  C   UNL     1       4.268  15.284  18.885  0.00  0.00    +0.000 A 
ATOM     24  C   UNL     1       3.765  15.321  20.182  0.00  0.00    +0.000 A 
ATOM     25  C   UNL     1       2.487  14.753  20.562  0.00  0.00    +0.000 A 
ATOM     26  C   UNL     1       1.586  14.203  19.672  0.00  0.00    +0.000 A 
ATOM     27  C   UNL     1       2.109  14.129  18.321  0.00  0.00    +0.000 A 
ATOM     28  C   UNL     1       3.393  14.676  17.961  0.00  0.00    +0.000 A 
BRANCH  23  30
ATOM     29  C   UNL     1       6.566  14.930  17.949  0.00  0.00    +0.000 C 
ATOM     30  N   UNL     1       5.521  15.789  18.530  0.00  0.00    +0.000 N 
ATOM     31  C   UNL     1       5.927  17.112  18.986  0.00  0.00    +0.000 C 
ENDBRANCH  23  30
ENDBRANCH  22  26
ENDBRANCH   1  22
TORSDOF 4
ENDMDL
