MODEL 1
REMARK VINA RESULT:      -8.3      0.000      0.000
REMARK  Name = 
REMARK  10 active torsions:
REMARK  status: ('A' for Active; 'I' for Inactive)
REMARK    1  A    between atoms: C_1  and  O_2
REMARK    2  A    between atoms: O_2  and  C_3
REMARK    3  A    between atoms: C_5  and  N_6
REMARK    4  A    between atoms: C_7  and  C_9
REMARK    5  A    between atoms: C_10  and  C_11
REMARK    6  A    between atoms: C_12  and  C_13
REMARK    7  A    between atoms: C_23  and  O_24
REMARK    8  A    between atoms: O_24  and  C_25
REMARK    9  A    between atoms: C_26  and  O_27
REMARK   10  A    between atoms: O_27  and  C_28
REMARK                            x       y       z     vdW  Elec       q    Type
REMARK                         _______ _______ _______ _____ _____    ______ ____
ROOT
ATOM      1  N   UNL     1       5.264   6.250  17.584  0.00  0.00    +0.000 N 
ATOM      2  C   UNL     1       6.590   5.934  17.837  0.00  0.00    +0.000 C 
ATOM      3  O   UNL     1       6.996   4.925  18.387  0.00  0.00    +0.000 OA
ATOM      4  H   UNL     1       5.060   7.042  16.997  0.00  0.00    +0.000 HD
ENDROOT
BRANCH   1   7
ATOM      5  C   UNL     1       2.798   3.547  18.418  0.00  0.00    +0.000 A 
ATOM      6  C   UNL     1       3.787   4.280  17.742  0.00  0.00    +0.000 A 
ATOM      7  C   UNL     1       4.150   5.564  18.133  0.00  0.00    +0.000 A 
ATOM      8  C   UNL     1       3.425   6.156  19.161  0.00  0.00    +0.000 A 
ATOM      9  C   UNL     1       2.346   5.492  19.780  0.00  0.00    +0.000 A 
ATOM     10  C   UNL     1       2.018   4.167  19.411  0.00  0.00    +0.000 A 
BRANCH   5  12
ATOM     11  C   UNL     1       3.725   1.371  18.280  0.00  0.00    +0.000 C 
ATOM     12  O   UNL     1       2.593   2.228  18.090  0.00  0.00    +0.000 OA
ENDBRANCH   5  12
BRANCH   9  13
ATOM     13  O   UNL     1       1.752   6.284  20.735  0.00  0.00    +0.000 OA
ATOM     14  C   UNL     1       1.668   7.687  20.528  0.00  0.00    +0.000 C 
ENDBRANCH   9  13
BRANCH  10  15
ATOM     15  O   UNL     1       0.945   3.604  20.047  0.00  0.00    +0.000 OA
ATOM     16  C   UNL     1       1.122   2.789  21.193  0.00  0.00    +0.000 C 
ENDBRANCH  10  15
ENDBRANCH   1   7
BRANCH   2  17
ATOM     17  C   UNL     1       7.554   6.980  17.388  0.00  0.00    +0.000 C 
ATOM     18  C   UNL     1       7.627   8.088  18.140  0.00  0.00    +0.000 C 
BRANCH  18  19
ATOM     19  C   UNL     1       8.383   9.273  17.809  0.00  0.00    +0.000 C 
ATOM     20  C   UNL     1       9.109   9.897  18.748  0.00  0.00    +0.000 C 
BRANCH  20  21
ATOM     21  C   UNL     1       9.705  11.234  18.621  0.00  0.00    +0.000 A 
ATOM     22  C   UNL     1      10.681  11.506  17.632  0.00  0.00    +0.000 A 
ATOM     23  C   UNL     1      11.007  12.818  17.281  0.00  0.00    +0.000 A 
ATOM     24  C   UNL     1      10.308  13.826  17.903  0.00  0.00    +0.000 A 
ATOM     25  C   UNL     1       9.401  13.570  18.908  0.00  0.00    +0.000 A 
ATOM     26  C   UNL     1       9.101  12.291  19.316  0.00  0.00    +0.000 A 
ATOM     27  O   UNL     1       8.764  14.702  19.320  0.00  0.00    +0.000 OA
ATOM     28  C   UNL     1       9.119  15.574  18.228  0.00  0.00    +0.000 C 
ATOM     29  O   UNL     1      10.319  15.142  17.553  0.00  0.00    +0.000 OA
ENDBRANCH  20  21
ENDBRANCH  18  19
ENDBRANCH   2  17
TORSDOF 7
ENDMDL
MODEL 2
REMARK VINA RESULT:      -8.2      0.985      1.028
REMARK  Name = 
REMARK  10 active torsions:
REMARK  status: ('A' for Active; 'I' for Inactive)
REMARK    1  A    between atoms: C_1  and  O_2
REMARK    2  A    between atoms: O_2  and  C_3
REMARK    3  A    between atoms: C_5  and  N_6
REMARK    4  A    between atoms: C_7  and  C_9
REMARK    5  A    between atoms: C_10  and  C_11
REMARK    6  A    between atoms: C_12  and  C_13
REMARK    7  A    between atoms: C_23  and  O_24
REMARK    8  A    between atoms: O_24  and  C_25
REMARK    9  A    between atoms: C_26  and  O_27
REMARK   10  A    between atoms: O_27  and  C_28
REMARK                            x       y       z     vdW  Elec       q    Type
REMARK                         _______ _______ _______ _____ _____    ______ ____
ROOT
ATOM      1  N   UNL     1       5.091   6.544  17.431  0.00  0.00    +0.000 N 
ATOM      2  C   UNL     1       6.430   6.362  17.745  0.00  0.00    +0.000 C 
ATOM      3  O   UNL     1       6.903   5.417  18.353  0.00  0.00    +0.000 OA
ATOM      4  H   UNL     1       4.841   7.291  16.803  0.00  0.00    +0.000 HD
ENDROOT
BRANCH   1   7
ATOM      5  C   UNL     1       2.762   3.697  18.170  0.00  0.00    +0.000 A 
ATOM      6  C   UNL     1       3.699   4.509  17.511  0.00  0.00    +0.000 A 
ATOM      7  C   UNL     1       4.024   5.782  17.969  0.00  0.00    +0.000 A 
ATOM      8  C   UNL     1       3.308   6.281  19.051  0.00  0.00    +0.000 A 
ATOM      9  C   UNL     1       2.276   5.537  19.659  0.00  0.00    +0.000 A 
ATOM     10  C   UNL     1       1.989   4.223  19.220  0.00  0.00    +0.000 A 
BRANCH   5  12
ATOM     11  C   UNL     1       3.503   1.455  18.366  0.00  0.00    +0.000 C 
ATOM     12  O   UNL     1       2.600   2.392  17.769  0.00  0.00    +0.000 OA
ENDBRANCH   5  12
BRANCH   9  13
ATOM     13  O   UNL     1       1.681   6.246  20.678  0.00  0.00    +0.000 OA
ATOM     14  C   UNL     1       1.634   7.664  20.609  0.00  0.00    +0.000 C 
ENDBRANCH   9  13
BRANCH  10  15
ATOM     15  O   UNL     1       0.960   3.580  19.852  0.00  0.00    +0.000 OA
ATOM     16  C   UNL     1       1.182   2.840  21.040  0.00  0.00    +0.000 C 
ENDBRANCH  10  15
ENDBRANCH   1   7
BRANCH   2  17
ATOM     17  C   UNL     1       7.312   7.474  17.286  0.00  0.00    +0.000 C 
ATOM     18  C   UNL     1       7.915   8.194  18.244  0.00  0.00    +0.000 C 
BRANCH  18  19
ATOM     19  C   UNL     1       8.690   9.392  18.024  0.00  0.00    +0.000 C 
ATOM     20  C   UNL     1       9.275  10.019  19.055  0.00  0.00    +0.000 C 
BRANCH  20  21
ATOM     21  C   UNL     1       9.862  11.365  19.017  0.00  0.00    +0.000 A 
ATOM     22  C   UNL     1       9.849  12.132  17.828  0.00  0.00    +0.000 A 
ATOM     23  C   UNL     1      10.091  13.508  17.853  0.00  0.00    +0.000 A 
ATOM     24  C   UNL     1      10.297  14.086  19.084  0.00  0.00    +0.000 A 
ATOM     25  C   UNL     1      10.370  13.335  20.237  0.00  0.00    +0.000 A 
ATOM     26  C   UNL     1      10.193  11.972  20.237  0.00  0.00    +0.000 A 
ATOM     27  O   UNL     1      10.492  14.118  21.347  0.00  0.00    +0.000 OA
ATOM     28  C   UNL     1      10.125  15.388  20.772  0.00  0.00    +0.000 C 
ATOM     29  O   UNL     1      10.334  15.422  19.345  0.00  0.00    +0.000 OA
ENDBRANCH  20  21
ENDBRANCH  18  19
ENDBRANCH   2  17
TORSDOF 7
ENDMDL
MODEL 3
REMARK VINA RESULT:      -8.0      1.198      1.511
REMARK  Name = 
REMARK  10 active torsions:
REMARK  status: ('A' for Active; 'I' for Inactive)
REMARK    1  A    between atoms: C_1  and  O_2
REMARK    2  A    between atoms: O_2  and  C_3
REMARK    3  A    between atoms: C_5  and  N_6
REMARK    4  A    between atoms: C_7  and  C_9
REMARK    5  A    between atoms: C_10  and  C_11
REMARK    6  A    between atoms: C_12  and  C_13
REMARK    7  A    between atoms: C_23  and  O_24
REMARK    8  A    between atoms: O_24  and  C_25
REMARK    9  A    between atoms: C_26  and  O_27
REMARK   10  A    between atoms: O_27  and  C_28
REMARK                            x       y       z     vdW  Elec       q    Type
REMARK                         _______ _______ _______ _____ _____    ______ ____
ROOT
ATOM      1  N   UNL     1       5.301   6.486  17.398  0.00  0.00    +0.000 N 
ATOM      2  C   UNL     1       6.635   6.107  17.371  0.00  0.00    +0.000 C 
ATOM      3  O   UNL     1       7.067   4.987  17.581  0.00  0.00    +0.000 OA
ATOM      4  H   UNL     1       5.054   7.405  17.068  0.00  0.00    +0.000 HD
ENDROOT
BRANCH   1   7
ATOM      5  C   UNL     1       3.061   3.557  18.091  0.00  0.00    +0.000 A 
ATOM      6  C   UNL     1       3.992   4.396  17.458  0.00  0.00    +0.000 A 
ATOM      7  C   UNL     1       4.243   5.689  17.904  0.00  0.00    +0.000 A 
ATOM      8  C   UNL     1       3.461   6.177  18.944  0.00  0.00    +0.000 A 
ATOM      9  C   UNL     1       2.435   5.401  19.522  0.00  0.00    +0.000 A 
ATOM     10  C   UNL     1       2.222   4.069  19.097  0.00  0.00    +0.000 A 
BRANCH   5  12
ATOM     11  C   UNL     1       3.863   1.347  18.387  0.00  0.00    +0.000 C 
ATOM     12  O   UNL     1       2.971   2.240  17.710  0.00  0.00    +0.000 OA
ENDBRANCH   5  12
BRANCH   9  13
ATOM     13  O   UNL     1       1.767   6.102  20.500  0.00  0.00    +0.000 OA
ATOM     14  C   UNL     1       1.796   7.523  20.487  0.00  0.00    +0.000 C 
ENDBRANCH   9  13
BRANCH  10  15
ATOM     15  O   UNL     1       1.193   3.395  19.697  0.00  0.00    +0.000 OA
ATOM     16  C   UNL     1       0.443   2.427  18.983  0.00  0.00    +0.000 C 
ENDBRANCH  10  15
ENDBRANCH   1   7
BRANCH   2  17
ATOM     17  C   UNL     1       7.573   7.228  17.074  0.00  0.00    +0.000 C 
ATOM     18  C   UNL     1       7.828   8.077  18.080  0.00  0.00    +0.000 C 
BRANCH  18  19
ATOM     19  C   UNL     1       8.589   9.300  17.967  0.00  0.00    +0.000 C 
ATOM     20  C   UNL     1       9.169   9.838  19.050  0.00  0.00    +0.000 C 
BRANCH  20  21
ATOM     21  C   UNL     1       9.740  11.189  19.132  0.00  0.00    +0.000 A 
ATOM     22  C   UNL     1      10.412  11.626  20.298  0.00  0.00    +0.000 A 
ATOM     23  C   UNL     1      11.235  12.756  20.276  0.00  0.00    +0.000 A 
ATOM     24  C   UNL     1      11.396  13.391  19.068  0.00  0.00    +0.000 A 
ATOM     25  C   UNL     1      10.697  13.006  17.944  0.00  0.00    +0.000 A 
ATOM     26  C   UNL     1       9.836  11.934  17.948  0.00  0.00    +0.000 A 
ATOM     27  O   UNL     1      11.074  13.714  16.842  0.00  0.00    +0.000 OA
ATOM     28  C   UNL     1      12.296  14.290  17.348  0.00  0.00    +0.000 C 
ATOM     29  O   UNL     1      12.309  14.362  18.788  0.00  0.00    +0.000 OA
ENDBRANCH  20  21
ENDBRANCH  18  19
ENDBRANCH   2  17
TORSDOF 7
ENDMDL
MODEL 4
REMARK VINA RESULT:      -7.8      1.955      2.953
REMARK  Name = 
REMARK  10 active torsions:
REMARK  status: ('A' for Active; 'I' for Inactive)
REMARK    1  A    between atoms: C_1  and  O_2
REMARK    2  A    between atoms: O_2  and  C_3
REMARK    3  A    between atoms: C_5  and  N_6
REMARK    4  A    between atoms: C_7  and  C_9
REMARK    5  A    between atoms: C_10  and  C_11
REMARK    6  A    between atoms: C_12  and  C_13
REMARK    7  A    between atoms: C_23  and  O_24
REMARK    8  A    between atoms: O_24  and  C_25
REMARK    9  A    between atoms: C_26  and  O_27
REMARK   10  A    between atoms: O_27  and  C_28
REMARK                            x       y       z     vdW  Elec       q    Type
REMARK                         _______ _______ _______ _____ _____    ______ ____
ROOT
ATOM      1  N   UNL     1       6.591   7.867  16.945  0.00  0.00    +0.000 N 
ATOM      2  C   UNL     1       7.668   7.988  17.811  0.00  0.00    +0.000 C 
ATOM      3  O   UNL     1       8.188   7.082  18.440  0.00  0.00    +0.000 OA
ATOM      4  H   UNL     1       6.341   8.659  16.374  0.00  0.00    +0.000 HD
ENDROOT
BRANCH   1   7
ATOM      5  C   UNL     1       5.344   4.457  16.000  0.00  0.00    +0.000 A 
ATOM      6  C   UNL     1       6.063   5.663  15.971  0.00  0.00    +0.000 A 
ATOM      7  C   UNL     1       5.770   6.717  16.830  0.00  0.00    +0.000 A 
ATOM      8  C   UNL     1       4.661   6.587  17.658  0.00  0.00    +0.000 A 
ATOM      9  C   UNL     1       3.846   5.437  17.624  0.00  0.00    +0.000 A 
ATOM     10  C   UNL     1       4.182   4.349  16.786  0.00  0.00    +0.000 A 
BRANCH   5  12
ATOM     11  C   UNL     1       6.300   3.737  13.955  0.00  0.00    +0.000 C 
ATOM     12  O   UNL     1       5.778   3.395  15.244  0.00  0.00    +0.000 OA
ENDBRANCH   5  12
BRANCH   9  13
ATOM     13  O   UNL     1       2.786   5.548  18.494  0.00  0.00    +0.000 OA
ATOM     14  C   UNL     1       3.022   5.939  19.839  0.00  0.00    +0.000 C 
ENDBRANCH   9  13
BRANCH  10  15
ATOM     15  O   UNL     1       3.327   3.281  16.799  0.00  0.00    +0.000 OA
ATOM     16  C   UNL     1       3.493   2.226  17.731  0.00  0.00    +0.000 C 
ENDBRANCH  10  15
ENDBRANCH   1   7
BRANCH   2  17
ATOM     17  C   UNL     1       8.172   9.384  17.954  0.00  0.00    +0.000 C 
ATOM     18  C   UNL     1       8.934   9.637  19.028  0.00  0.00    +0.000 C 
BRANCH  18  19
ATOM     19  C   UNL     1       9.402  10.942  19.431  0.00  0.00    +0.000 C 
ATOM     20  C   UNL     1       9.467  11.942  18.539  0.00  0.00    +0.000 C 
BRANCH  20  21
ATOM     21  C   UNL     1      10.157  13.224  18.741  0.00  0.00    +0.000 A 
ATOM     22  C   UNL     1      11.502  13.267  19.181  0.00  0.00    +0.000 A 
ATOM     23  C   UNL     1      12.265  14.431  19.060  0.00  0.00    +0.000 A 
ATOM     24  C   UNL     1      11.668  15.512  18.455  0.00  0.00    +0.000 A 
ATOM     25  C   UNL     1      10.341  15.495  18.080  0.00  0.00    +0.000 A 
ATOM     26  C   UNL     1       9.549  14.383  18.239  0.00  0.00    +0.000 A 
ATOM     27  O   UNL     1       9.984  16.635  17.423  0.00  0.00    +0.000 OA
ATOM     28  C   UNL     1      11.298  17.156  17.138  0.00  0.00    +0.000 C 
ATOM     29  O   UNL     1      12.295  16.651  18.050  0.00  0.00    +0.000 OA
ENDBRANCH  20  21
ENDBRANCH  18  19
ENDBRANCH   2  17
TORSDOF 7
ENDMDL
MODEL 5
REMARK VINA RESULT:      -7.7      1.967      2.914
REMARK  Name = 
REMARK  10 active torsions:
REMARK  status: ('A' for Active; 'I' for Inactive)
REMARK    1  A    between atoms: C_1  and  O_2
REMARK    2  A    between atoms: O_2  and  C_3
REMARK    3  A    between atoms: C_5  and  N_6
REMARK    4  A    between atoms: C_7  and  C_9
REMARK    5  A    between atoms: C_10  and  C_11
REMARK    6  A    between atoms: C_12  and  C_13
REMARK    7  A    between atoms: C_23  and  O_24
REMARK    8  A    between atoms: O_24  and  C_25
REMARK    9  A    between atoms: C_26  and  O_27
REMARK   10  A    between atoms: O_27  and  C_28
REMARK                            x       y       z     vdW  Elec       q    Type
REMARK                         _______ _______ _______ _____ _____    ______ ____
ROOT
ATOM      1  N   UNL     1       6.759   7.803  16.952  0.00  0.00    +0.000 N 
ATOM      2  C   UNL     1       7.780   7.950  17.879  0.00  0.00    +0.000 C 
ATOM      3  O   UNL     1       8.216   7.079  18.612  0.00  0.00    +0.000 OA
ATOM      4  H   UNL     1       6.584   8.555  16.305  0.00  0.00    +0.000 HD
ENDROOT
BRANCH   1   7
ATOM      5  C   UNL     1       5.367   4.434  16.066  0.00  0.00    +0.000 A 
ATOM      6  C   UNL     1       6.125   5.614  16.008  0.00  0.00    +0.000 A 
ATOM      7  C   UNL     1       5.896   6.681  16.870  0.00  0.00    +0.000 A 
ATOM      8  C   UNL     1       4.812   6.592  17.736  0.00  0.00    +0.000 A 
ATOM      9  C   UNL     1       3.958   5.469  17.734  0.00  0.00    +0.000 A 
ATOM     10  C   UNL     1       4.230   4.367  16.891  0.00  0.00    +0.000 A 
BRANCH   5  12
ATOM     11  C   UNL     1       6.242   3.675  13.999  0.00  0.00    +0.000 C 
ATOM     12  O   UNL     1       5.740   3.354  15.302  0.00  0.00    +0.000 OA
ENDBRANCH   5  12
BRANCH   9  13
ATOM     13  O   UNL     1       2.932   5.620  18.639  0.00  0.00    +0.000 OA
ATOM     14  C   UNL     1       3.139   5.263  19.998  0.00  0.00    +0.000 C 
ENDBRANCH   9  13
BRANCH  10  15
ATOM     15  O   UNL     1       3.339   3.329  16.938  0.00  0.00    +0.000 OA
ATOM     16  C   UNL     1       3.497   2.276  17.874  0.00  0.00    +0.000 C 
ENDBRANCH  10  15
ENDBRANCH   1   7
BRANCH   2  17
ATOM     17  C   UNL     1       8.336   9.333  17.948  0.00  0.00    +0.000 C 
ATOM     18  C   UNL     1       9.125   9.607  18.997  0.00  0.00    +0.000 C 
BRANCH  18  19
ATOM     19  C   UNL     1       9.647  10.913  19.330  0.00  0.00    +0.000 C 
ATOM     20  C   UNL     1       9.701  11.877  18.399  0.00  0.00    +0.000 C 
BRANCH  20  21
ATOM     21  C   UNL     1      10.434  13.144  18.522  0.00  0.00    +0.000 A 
ATOM     22  C   UNL     1      10.961  13.795  17.381  0.00  0.00    +0.000 A 
ATOM     23  C   UNL     1      11.357  15.134  17.432  0.00  0.00    +0.000 A 
ATOM     24  C   UNL     1      11.170  15.799  18.621  0.00  0.00    +0.000 A 
ATOM     25  C   UNL     1      10.714  15.154  19.751  0.00  0.00    +0.000 A 
ATOM     26  C   UNL     1      10.370  13.823  19.747  0.00  0.00    +0.000 A 
ATOM     27  O   UNL     1      10.521  16.019  20.788  0.00  0.00    +0.000 OA
ATOM     28  C   UNL     1      10.564  17.262  20.058  0.00  0.00    +0.000 C 
ATOM     29  O   UNL     1      11.286  17.142  18.816  0.00  0.00    +0.000 OA
ENDBRANCH  20  21
ENDBRANCH  18  19
ENDBRANCH   2  17
TORSDOF 7
ENDMDL
MODEL 6
REMARK VINA RESULT:      -7.6      1.353      1.370
REMARK  Name = 
REMARK  10 active torsions:
REMARK  status: ('A' for Active; 'I' for Inactive)
REMARK    1  A    between atoms: C_1  and  O_2
REMARK    2  A    between atoms: O_2  and  C_3
REMARK    3  A    between atoms: C_5  and  N_6
REMARK    4  A    between atoms: C_7  and  C_9
REMARK    5  A    between atoms: C_10  and  C_11
REMARK    6  A    between atoms: C_12  and  C_13
REMARK    7  A    between atoms: C_23  and  O_24
REMARK    8  A    between atoms: O_24  and  C_25
REMARK    9  A    between atoms: C_26  and  O_27
REMARK   10  A    between atoms: O_27  and  C_28
REMARK                            x       y       z     vdW  Elec       q    Type
REMARK                         _______ _______ _______ _____ _____    ______ ____
ROOT
ATOM      1  N   UNL     1       5.750   6.339  18.576  0.00  0.00    +0.000 N 
ATOM      2  C   UNL     1       6.315   6.374  17.310  0.00  0.00    +0.000 C 
ATOM      3  O   UNL     1       5.893   5.805  16.318  0.00  0.00    +0.000 OA
ATOM      4  H   UNL     1       6.106   6.963  19.281  0.00  0.00    +0.000 HD
ENDROOT
BRANCH   1   7
ATOM      5  C   UNL     1       3.900   3.192  19.445  0.00  0.00    +0.000 A 
ATOM      6  C   UNL     1       4.843   4.065  18.878  0.00  0.00    +0.000 A 
ATOM      7  C   UNL     1       4.724   5.447  18.979  0.00  0.00    +0.000 A 
ATOM      8  C   UNL     1       3.575   5.954  19.573  0.00  0.00    +0.000 A 
ATOM      9  C   UNL     1       2.552   5.106  20.045  0.00  0.00    +0.000 A 
ATOM     10  C   UNL     1       2.705   3.701  19.985  0.00  0.00    +0.000 A 
BRANCH   5  12
ATOM     11  C   UNL     1       3.855   1.159  18.229  0.00  0.00    +0.000 C 
ATOM     12  O   UNL     1       4.151   1.841  19.454  0.00  0.00    +0.000 OA
ENDBRANCH   5  12
BRANCH   9  13
ATOM     13  O   UNL     1       1.496   5.829  20.552  0.00  0.00    +0.000 OA
ATOM     14  C   UNL     1       1.583   7.245  20.617  0.00  0.00    +0.000 C 
ENDBRANCH   9  13
BRANCH  10  15
ATOM     15  O   UNL     1       1.657   2.953  20.446  0.00  0.00    +0.000 OA
ATOM     16  C   UNL     1       0.656   2.478  19.562  0.00  0.00    +0.000 C 
ENDBRANCH  10  15
ENDBRANCH   1   7
BRANCH   2  17
ATOM     17  C   UNL     1       7.565   7.185  17.232  0.00  0.00    +0.000 C 
ATOM     18  C   UNL     1       7.558   8.357  17.884  0.00  0.00    +0.000 C 
BRANCH  18  19
ATOM     19  C   UNL     1       8.603   9.353  17.820  0.00  0.00    +0.000 C 
ATOM     20  C   UNL     1       9.153   9.829  18.947  0.00  0.00    +0.000 C 
BRANCH  20  21
ATOM     21  C   UNL     1      10.022  11.010  19.042  0.00  0.00    +0.000 A 
ATOM     22  C   UNL     1      10.592  11.590  17.883  0.00  0.00    +0.000 A 
ATOM     23  C   UNL     1      11.133  12.878  17.912  0.00  0.00    +0.000 A 
ATOM     24  C   UNL     1      11.045  13.569  19.098  0.00  0.00    +0.000 A 
ATOM     25  C   UNL     1      10.546  12.987  20.243  0.00  0.00    +0.000 A 
ATOM     26  C   UNL     1      10.059  11.701  20.260  0.00  0.00    +0.000 A 
ATOM     27  O   UNL     1      10.471  13.876  21.274  0.00  0.00    +0.000 OA
ATOM     28  C   UNL     1      10.632  15.102  20.531  0.00  0.00    +0.000 C 
ATOM     29  O   UNL     1      11.310  14.893  19.275  0.00  0.00    +0.000 OA
ENDBRANCH  20  21
ENDBRANCH  18  19
ENDBRANCH   2  17
TORSDOF 7
ENDMDL
MODEL 7
REMARK VINA RESULT:      -7.4      5.670      9.398
REMARK  Name = 
REMARK  10 active torsions:
REMARK  status: ('A' for Active; 'I' for Inactive)
REMARK    1  A    between atoms: C_1  and  O_2
REMARK    2  A    between atoms: O_2  and  C_3
REMARK    3  A    between atoms: C_5  and  N_6
REMARK    4  A    between atoms: C_7  and  C_9
REMARK    5  A    between atoms: C_10  and  C_11
REMARK    6  A    between atoms: C_12  and  C_13
REMARK    7  A    between atoms: C_23  and  O_24
REMARK    8  A    between atoms: O_24  and  C_25
REMARK    9  A    between atoms: C_26  and  O_27
REMARK   10  A    between atoms: O_27  and  C_28
REMARK                            x       y       z     vdW  Elec       q    Type
REMARK                         _______ _______ _______ _____ _____    ______ ____
ROOT
ATOM      1  N   UNL     1      -0.187  10.430  19.253  0.00  0.00    +0.000 N 
ATOM      2  C   UNL     1       0.981  10.901  18.672  0.00  0.00    +0.000 C 
ATOM      3  O   UNL     1       1.250  12.068  18.443  0.00  0.00    +0.000 OA
ATOM      4  H   UNL     1      -0.234   9.460  19.521  0.00  0.00    +0.000 HD
ENDROOT
BRANCH   1   7
ATOM      5  C   UNL     1      -3.600  11.921  18.801  0.00  0.00    +0.000 A 
ATOM      6  C   UNL     1      -2.372  11.303  18.514  0.00  0.00    +0.000 A 
ATOM      7  C   UNL     1      -1.357  11.204  19.459  0.00  0.00    +0.000 A 
ATOM      8  C   UNL     1      -1.549  11.835  20.682  0.00  0.00    +0.000 A 
ATOM      9  C   UNL     1      -2.723  12.567  20.958  0.00  0.00    +0.000 A 
ATOM     10  C   UNL     1      -3.771  12.618  20.011  0.00  0.00    +0.000 A 
BRANCH   5  12
ATOM     11  C   UNL     1      -4.284  11.223  16.643  0.00  0.00    +0.000 C 
ATOM     12  O   UNL     1      -4.623  11.849  17.886  0.00  0.00    +0.000 OA
ENDBRANCH   5  12
BRANCH   9  13
ATOM     13  O   UNL     1      -2.673  13.139  22.209  0.00  0.00    +0.000 OA
ATOM     14  C   UNL     1      -3.009  12.360  23.349  0.00  0.00    +0.000 C 
ENDBRANCH   9  13
BRANCH  10  15
ATOM     15  O   UNL     1      -4.865  13.367  20.351  0.00  0.00    +0.000 OA
ATOM     16  C   UNL     1      -5.974  12.779  21.009  0.00  0.00    +0.000 C 
ENDBRANCH  10  15
ENDBRANCH   1   7
BRANCH   2  17
ATOM     17  C   UNL     1       1.944   9.825  18.298  0.00  0.00    +0.000 C 
ATOM     18  C   UNL     1       1.586   8.569  18.607  0.00  0.00    +0.000 C 
BRANCH  18  19
ATOM     19  C   UNL     1       2.427   7.404  18.464  0.00  0.00    +0.000 C 
ATOM     20  C   UNL     1       3.579   7.479  17.783  0.00  0.00    +0.000 C 
BRANCH  20  21
ATOM     21  C   UNL     1       4.390   6.335  17.343  0.00  0.00    +0.000 A 
ATOM     22  C   UNL     1       3.854   5.025  17.330  0.00  0.00    +0.000 A 
ATOM     23  C   UNL     1       4.477   3.997  16.617  0.00  0.00    +0.000 A 
ATOM     24  C   UNL     1       5.601   4.326  15.896  0.00  0.00    +0.000 A 
ATOM     25  C   UNL     1       6.160   5.584  15.954  0.00  0.00    +0.000 A 
ATOM     26  C   UNL     1       5.603   6.601  16.693  0.00  0.00    +0.000 A 
ATOM     27  O   UNL     1       7.213   5.713  15.097  0.00  0.00    +0.000 OA
ATOM     28  C   UNL     1       6.991   4.543  14.285  0.00  0.00    +0.000 C 
ATOM     29  O   UNL     1       6.222   3.537  14.977  0.00  0.00    +0.000 OA
ENDBRANCH  20  21
ENDBRANCH  18  19
ENDBRANCH   2  17
TORSDOF 7
ENDMDL
MODEL 8
REMARK VINA RESULT:      -7.4      2.435      3.379
REMARK  Name = 
REMARK  10 active torsions:
REMARK  status: ('A' for Active; 'I' for Inactive)
REMARK    1  A    between atoms: C_1  and  O_2
REMARK    2  A    between atoms: O_2  and  C_3
REMARK    3  A    between atoms: C_5  and  N_6
REMARK    4  A    between atoms: C_7  and  C_9
REMARK    5  A    between atoms: C_10  and  C_11
REMARK    6  A    between atoms: C_12  and  C_13
REMARK    7  A    between atoms: C_23  and  O_24
REMARK    8  A    between atoms: O_24  and  C_25
REMARK    9  A    between atoms: C_26  and  O_27
REMARK   10  A    between atoms: O_27  and  C_28
REMARK                            x       y       z     vdW  Elec       q    Type
REMARK                         _______ _______ _______ _____ _____    ______ ____
ROOT
ATOM      1  N   UNL     1       6.872   7.668  17.160  0.00  0.00    +0.000 N 
ATOM      2  C   UNL     1       7.912   7.940  18.036  0.00  0.00    +0.000 C 
ATOM      3  O   UNL     1       8.453   7.139  18.779  0.00  0.00    +0.000 OA
ATOM      4  H   UNL     1       6.604   8.376  16.496  0.00  0.00    +0.000 HD
ENDROOT
BRANCH   1   7
ATOM      5  C   UNL     1       5.490   4.325  16.165  0.00  0.00    +0.000 A 
ATOM      6  C   UNL     1       6.101   5.586  16.084  0.00  0.00    +0.000 A 
ATOM      7  C   UNL     1       6.109   6.473  17.156  0.00  0.00    +0.000 A 
ATOM      8  C   UNL     1       5.393   6.117  18.293  0.00  0.00    +0.000 A 
ATOM      9  C   UNL     1       4.667   4.910  18.360  0.00  0.00    +0.000 A 
ATOM     10  C   UNL     1       4.708   3.992  17.286  0.00  0.00    +0.000 A 
BRANCH   5  12
ATOM     11  C   UNL     1       6.218   3.974  13.938  0.00  0.00    +0.000 C 
ATOM     12  O   UNL     1       5.651   3.430  15.135  0.00  0.00    +0.000 OA
ENDBRANCH   5  12
BRANCH   9  13
ATOM     13  O   UNL     1       4.003   4.792  19.560  0.00  0.00    +0.000 OA
ATOM     14  C   UNL     1       2.862   5.600  19.811  0.00  0.00    +0.000 C 
ENDBRANCH   9  13
BRANCH  10  15
ATOM     15  O   UNL     1       3.959   2.855  17.425  0.00  0.00    +0.000 OA
ATOM     16  C   UNL     1       2.549   2.889  17.280  0.00  0.00    +0.000 C 
ENDBRANCH  10  15
ENDBRANCH   1   7
BRANCH   2  17
ATOM     17  C   UNL     1       8.345   9.367  18.032  0.00  0.00    +0.000 C 
ATOM     18  C   UNL     1       9.182   9.740  19.011  0.00  0.00    +0.000 C 
BRANCH  18  19
ATOM     19  C   UNL     1       9.607  11.096  19.274  0.00  0.00    +0.000 C 
ATOM     20  C   UNL     1      10.011  11.452  20.502  0.00  0.00    +0.000 C 
BRANCH  20  21
ATOM     21  C   UNL     1      10.217  12.830  20.968  0.00  0.00    +0.000 A 
ATOM     22  C   UNL     1      11.026  13.733  20.238  0.00  0.00    +0.000 A 
ATOM     23  C   UNL     1      10.966  15.109  20.474  0.00  0.00    +0.000 A 
ATOM     24  C   UNL     1      10.058  15.546  21.410  0.00  0.00    +0.000 A 
ATOM     25  C   UNL     1       9.312  14.668  22.166  0.00  0.00    +0.000 A 
ATOM     26  C   UNL     1       9.391  13.305  21.997  0.00  0.00    +0.000 A 
ATOM     27  O   UNL     1       8.418  15.316  22.965  0.00  0.00    +0.000 OA
ATOM     28  C   UNL     1       8.463  16.619  22.349  0.00  0.00    +0.000 C 
ATOM     29  O   UNL     1       9.695  16.840  21.631  0.00  0.00    +0.000 OA
ENDBRANCH  20  21
ENDBRANCH  18  19
ENDBRANCH   2  17
TORSDOF 7
ENDMDL
MODEL 9
REMARK VINA RESULT:      -7.3      5.030      9.338
REMARK  Name = 
REMARK  10 active torsions:
REMARK  status: ('A' for Active; 'I' for Inactive)
REMARK    1  A    between atoms: C_1  and  O_2
REMARK    2  A    between atoms: O_2  and  C_3
REMARK    3  A    between atoms: C_5  and  N_6
REMARK    4  A    between atoms: C_7  and  C_9
REMARK    5  A    between atoms: C_10  and  C_11
REMARK    6  A    between atoms: C_12  and  C_13
REMARK    7  A    between atoms: C_23  and  O_24
REMARK    8  A    between atoms: O_24  and  C_25
REMARK    9  A    between atoms: C_26  and  O_27
REMARK   10  A    between atoms: O_27  and  C_28
REMARK                            x       y       z     vdW  Elec       q    Type
REMARK                         _______ _______ _______ _____ _____    ______ ____
ROOT
ATOM      1  N   UNL     1       2.334   7.389  18.845  0.00  0.00    +0.000 N 
ATOM      2  C   UNL     1       1.864   8.640  18.476  0.00  0.00    +0.000 C 
ATOM      3  O   UNL     1       1.975   9.153  17.375  0.00  0.00    +0.000 OA
ATOM      4  H   UNL     1       2.058   7.014  19.738  0.00  0.00    +0.000 HD
ENDROOT
BRANCH   1   7
ATOM      5  C   UNL     1       5.332   6.300  16.868  0.00  0.00    +0.000 A 
ATOM      6  C   UNL     1       4.366   7.122  17.471  0.00  0.00    +0.000 A 
ATOM      7  C   UNL     1       3.227   6.600  18.076  0.00  0.00    +0.000 A 
ATOM      8  C   UNL     1       3.011   5.231  17.974  0.00  0.00    +0.000 A 
ATOM      9  C   UNL     1       3.901   4.394  17.270  0.00  0.00    +0.000 A 
ATOM     10  C   UNL     1       5.083   4.925  16.704  0.00  0.00    +0.000 A 
BRANCH   5  12
ATOM     11  C   UNL     1       7.469   7.136  17.457  0.00  0.00    +0.000 C 
ATOM     12  O   UNL     1       6.511   6.854  16.431  0.00  0.00    +0.000 OA
ENDBRANCH   5  12
BRANCH   9  13
ATOM     13  O   UNL     1       3.463   3.089  17.264  0.00  0.00    +0.000 OA
ATOM     14  C   UNL     1       2.217   2.766  17.864  0.00  0.00    +0.000 C 
ENDBRANCH   9  13
BRANCH  10  15
ATOM     15  O   UNL     1       5.881   4.048  16.021  0.00  0.00    +0.000 OA
ATOM     16  C   UNL     1       5.927   4.056  14.604  0.00  0.00    +0.000 C 
ENDBRANCH  10  15
ENDBRANCH   1   7
BRANCH   2  17
ATOM     17  C   UNL     1       1.189   9.380  19.581  0.00  0.00    +0.000 C 
ATOM     18  C   UNL     1       0.894  10.667  19.346  0.00  0.00    +0.000 C 
BRANCH  18  19
ATOM     19  C   UNL     1       0.374  11.596  20.322  0.00  0.00    +0.000 C 
ATOM     20  C   UNL     1      -0.626  11.231  21.138  0.00  0.00    +0.000 C 
BRANCH  20  21
ATOM     21  C   UNL     1      -1.414  12.138  21.983  0.00  0.00    +0.000 A 
ATOM     22  C   UNL     1      -1.617  13.489  21.610  0.00  0.00    +0.000 A 
ATOM     23  C   UNL     1      -2.617  14.261  22.209  0.00  0.00    +0.000 A 
ATOM     24  C   UNL     1      -3.418  13.639  23.137  0.00  0.00    +0.000 A 
ATOM     25  C   UNL     1      -3.187  12.343  23.547  0.00  0.00    +0.000 A 
ATOM     26  C   UNL     1      -2.175  11.577  23.018  0.00  0.00    +0.000 A 
ATOM     27  O   UNL     1      -4.150  11.900  24.404  0.00  0.00    +0.000 OA
ATOM     28  C   UNL     1      -5.144  12.920  24.177  0.00  0.00    +0.000 C 
ATOM     29  O   UNL     1      -4.567  14.141  23.669  0.00  0.00    +0.000 OA
ENDBRANCH  20  21
ENDBRANCH  18  19
ENDBRANCH   2  17
TORSDOF 7
ENDMDL
