MODEL 1
REMARK VINA RESULT:      -6.6      0.000      0.000
REMARK  Name = 
REMARK  12 active torsions:
REMARK  status: ('A' for Active; 'I' for Inactive)
REMARK    1  A    between atoms: C_1  and  C_2
REMARK    2  A    between atoms: C_2  and  C_3
REMARK    3  A    between atoms: C_2  and  C_4
REMARK    4  A    between atoms: C_2  and  O_5
REMARK    5  A    between atoms: O_5  and  C_6
REMARK    6  A    between atoms: N_8  and  C_9
REMARK    7  A    between atoms: C_9  and  C_10
REMARK    8  A    between atoms: C_12  and  C_13
REMARK    9  A    between atoms: C_13  and  C_14
REMARK   10  A    between atoms: C_13  and  C_15
REMARK   11  A    between atoms: C_13  and  C_16
REMARK   12  A    between atoms: C_20  and  O_21
REMARK                            x       y       z     vdW  Elec       q    Type
REMARK                         _______ _______ _______ _____ _____    ______ ____
ROOT
ATOM      1  C   UNL     1       5.058   5.024  18.628  0.00  0.00    +0.000 A 
ATOM      2  C   UNL     1       4.230   4.039  19.214  0.00  0.00    +0.000 A 
ATOM      3  C   UNL     1       2.853   4.242  19.439  0.00  0.00    +0.000 A 
ATOM      4  C   UNL     1       2.332   5.502  19.091  0.00  0.00    +0.000 A 
ATOM      5  C   UNL     1       3.133   6.482  18.493  0.00  0.00    +0.000 A 
ATOM      6  I   UNL     1       2.259   8.317  17.998  0.00  0.00    +0.000 I 
ATOM      7  C   UNL     1       4.485   6.236  18.248  0.00  0.00    +0.000 A 
ENDROOT
BRANCH   3   8
ATOM      8  C   UNL     1       1.965   3.160  20.088  0.00  0.00    +0.000 C 
ATOM      9  C   UNL     1       2.503   2.860  21.501  0.00  0.00    +0.000 C 
ATOM     10  C   UNL     1       0.489   3.611  20.207  0.00  0.00    +0.000 C 
ATOM     11  C   UNL     1       1.944   1.836  19.287  0.00  0.00    +0.000 C 
ENDBRANCH   3   8
BRANCH   7  12
ATOM     12  O   UNL     1       5.286   7.170  17.644  0.00  0.00    +0.000 OA
ATOM     13  H   UNL     1       5.744   7.656  18.352  0.00  0.00    +0.000 HD
ENDBRANCH   7  12
BRANCH   1  14
ATOM     14  C   UNL     1       6.529   4.754  18.430  0.00  0.00    +0.000 C 
BRANCH  14  17
ATOM     15  C   UNL     1       7.358   5.065  16.158  0.00  0.00    +0.000 C 
ATOM     16  O   UNL     1       7.580   6.249  16.347  0.00  0.00    +0.000 OA
ATOM     17  N   UNL     1       6.829   4.249  17.109  0.00  0.00    +0.000 N 
ATOM     18  H   UNL     1       6.758   3.259  16.916  0.00  0.00    +0.000 HD
BRANCH  15  19
ATOM     19  O   UNL     1       7.599   4.389  15.007  0.00  0.00    +0.000 OA
BRANCH  19  21
ATOM     20  C   UNL     1       5.574   5.578  14.281  0.00  0.00    +0.000 C 
ATOM     21  C   UNL     1       6.732   4.659  13.868  0.00  0.00    +0.000 C 
ATOM     22  C   UNL     1       6.233   3.360  13.214  0.00  0.00    +0.000 C 
ATOM     23  C   UNL     1       7.581   5.411  12.830  0.00  0.00    +0.000 C 
ENDBRANCH  19  21
ENDBRANCH  15  19
ENDBRANCH  14  17
ENDBRANCH   1  14
TORSDOF 6
ENDMDL
MODEL 2
REMARK VINA RESULT:      -6.5      1.311      1.815
REMARK  Name = 
REMARK  12 active torsions:
REMARK  status: ('A' for Active; 'I' for Inactive)
REMARK    1  A    between atoms: C_1  and  C_2
REMARK    2  A    between atoms: C_2  and  C_3
REMARK    3  A    between atoms: C_2  and  C_4
REMARK    4  A    between atoms: C_2  and  O_5
REMARK    5  A    between atoms: O_5  and  C_6
REMARK    6  A    between atoms: N_8  and  C_9
REMARK    7  A    between atoms: C_9  and  C_10
REMARK    8  A    between atoms: C_12  and  C_13
REMARK    9  A    between atoms: C_13  and  C_14
REMARK   10  A    between atoms: C_13  and  C_15
REMARK   11  A    between atoms: C_13  and  C_16
REMARK   12  A    between atoms: C_20  and  O_21
REMARK                            x       y       z     vdW  Elec       q    Type
REMARK                         _______ _______ _______ _____ _____    ______ ____
ROOT
ATOM      1  C   UNL     1       4.759   4.924  17.493  0.00  0.00    +0.000 A 
ATOM      2  C   UNL     1       4.013   3.927  18.161  0.00  0.00    +0.000 A 
ATOM      3  C   UNL     1       2.761   4.187  18.757  0.00  0.00    +0.000 A 
ATOM      4  C   UNL     1       2.293   5.512  18.696  0.00  0.00    +0.000 A 
ATOM      5  C   UNL     1       3.009   6.508  18.022  0.00  0.00    +0.000 A 
ATOM      6  I   UNL     1       2.218   8.445  17.975  0.00  0.00    +0.000 I 
ATOM      7  C   UNL     1       4.228   6.210  17.409  0.00  0.00    +0.000 A 
ENDROOT
BRANCH   3   8
ATOM      8  C   UNL     1       1.964   3.088  19.490  0.00  0.00    +0.000 C 
ATOM      9  C   UNL     1       2.887   1.874  19.715  0.00  0.00    +0.000 C 
ATOM     10  C   UNL     1       1.438   3.569  20.864  0.00  0.00    +0.000 C 
ATOM     11  C   UNL     1       0.722   2.613  18.699  0.00  0.00    +0.000 C 
ENDBRANCH   3   8
BRANCH   7  12
ATOM     12  O   UNL     1       4.938   7.161  16.725  0.00  0.00    +0.000 OA
ATOM     13  H   UNL     1       4.496   7.287  15.867  0.00  0.00    +0.000 HD
ENDBRANCH   7  12
BRANCH   1  14
ATOM     14  C   UNL     1       6.102   4.589  16.892  0.00  0.00    +0.000 C 
BRANCH  14  17
ATOM     15  C   UNL     1       6.354   4.024  14.534  0.00  0.00    +0.000 C 
ATOM     16  O   UNL     1       6.738   5.146  14.254  0.00  0.00    +0.000 OA
ATOM     17  N   UNL     1       6.001   3.654  15.794  0.00  0.00    +0.000 N 
ATOM     18  H   UNL     1       5.782   2.683  15.973  0.00  0.00    +0.000 HD
BRANCH  15  19
ATOM     19  O   UNL     1       6.222   2.993  13.663  0.00  0.00    +0.000 OA
BRANCH  19  21
ATOM     20  C   UNL     1       7.153   4.381  11.861  0.00  0.00    +0.000 C 
ATOM     21  C   UNL     1       6.121   3.311  12.245  0.00  0.00    +0.000 C 
ATOM     22  C   UNL     1       4.691   3.723  11.855  0.00  0.00    +0.000 C 
ATOM     23  C   UNL     1       6.466   2.027  11.474  0.00  0.00    +0.000 C 
ENDBRANCH  19  21
ENDBRANCH  15  19
ENDBRANCH  14  17
ENDBRANCH   1  14
TORSDOF 6
ENDMDL
MODEL 3
REMARK VINA RESULT:      -6.4      1.225      1.966
REMARK  Name = 
REMARK  12 active torsions:
REMARK  status: ('A' for Active; 'I' for Inactive)
REMARK    1  A    between atoms: C_1  and  C_2
REMARK    2  A    between atoms: C_2  and  C_3
REMARK    3  A    between atoms: C_2  and  C_4
REMARK    4  A    between atoms: C_2  and  O_5
REMARK    5  A    between atoms: O_5  and  C_6
REMARK    6  A    between atoms: N_8  and  C_9
REMARK    7  A    between atoms: C_9  and  C_10
REMARK    8  A    between atoms: C_12  and  C_13
REMARK    9  A    between atoms: C_13  and  C_14
REMARK   10  A    between atoms: C_13  and  C_15
REMARK   11  A    between atoms: C_13  and  C_16
REMARK   12  A    between atoms: C_20  and  O_21
REMARK                            x       y       z     vdW  Elec       q    Type
REMARK                         _______ _______ _______ _____ _____    ______ ____
ROOT
ATOM      1  C   UNL     1       4.885   4.888  17.534  0.00  0.00    +0.000 A 
ATOM      2  C   UNL     1       4.171   3.878  18.217  0.00  0.00    +0.000 A 
ATOM      3  C   UNL     1       2.920   4.112  18.824  0.00  0.00    +0.000 A 
ATOM      4  C   UNL     1       2.418   5.425  18.758  0.00  0.00    +0.000 A 
ATOM      5  C   UNL     1       3.103   6.433  18.069  0.00  0.00    +0.000 A 
ATOM      6  I   UNL     1       2.265   8.349  18.016  0.00  0.00    +0.000 I 
ATOM      7  C   UNL     1       4.322   6.160  17.446  0.00  0.00    +0.000 A 
ENDROOT
BRANCH   3   8
ATOM      8  C   UNL     1       2.157   2.999  19.574  0.00  0.00    +0.000 C 
ATOM      9  C   UNL     1       0.646   3.189  19.338  0.00  0.00    +0.000 C 
ATOM     10  C   UNL     1       2.560   1.586  19.086  0.00  0.00    +0.000 C 
ATOM     11  C   UNL     1       2.415   3.014  21.100  0.00  0.00    +0.000 C 
ENDBRANCH   3   8
BRANCH   7  12
ATOM     12  O   UNL     1       5.001   7.122  16.747  0.00  0.00    +0.000 OA
ATOM     13  H   UNL     1       4.640   7.130  15.843  0.00  0.00    +0.000 HD
ENDBRANCH   7  12
BRANCH   1  14
ATOM     14  C   UNL     1       6.229   4.581  16.921  0.00  0.00    +0.000 C 
BRANCH  14  17
ATOM     15  C   UNL     1       6.372   4.063  14.542  0.00  0.00    +0.000 C 
ATOM     16  O   UNL     1       6.639   5.218  14.255  0.00  0.00    +0.000 OA
ATOM     17  N   UNL     1       6.138   3.651  15.817  0.00  0.00    +0.000 N 
ATOM     18  H   UNL     1       6.015   2.663  15.994  0.00  0.00    +0.000 HD
BRANCH  15  19
ATOM     19  O   UNL     1       6.273   3.034  13.665  0.00  0.00    +0.000 OA
BRANCH  19  21
ATOM     20  C   UNL     1       7.172   4.466  11.882  0.00  0.00    +0.000 C 
ATOM     21  C   UNL     1       6.177   3.356  12.248  0.00  0.00    +0.000 C 
ATOM     22  C   UNL     1       4.737   3.716  11.844  0.00  0.00    +0.000 C 
ATOM     23  C   UNL     1       6.579   2.091  11.474  0.00  0.00    +0.000 C 
ENDBRANCH  19  21
ENDBRANCH  15  19
ENDBRANCH  14  17
ENDBRANCH   1  14
TORSDOF 6
ENDMDL
MODEL 4
REMARK VINA RESULT:      -6.3      0.511      1.100
REMARK  Name = 
REMARK  12 active torsions:
REMARK  status: ('A' for Active; 'I' for Inactive)
REMARK    1  A    between atoms: C_1  and  C_2
REMARK    2  A    between atoms: C_2  and  C_3
REMARK    3  A    between atoms: C_2  and  C_4
REMARK    4  A    between atoms: C_2  and  O_5
REMARK    5  A    between atoms: O_5  and  C_6
REMARK    6  A    between atoms: N_8  and  C_9
REMARK    7  A    between atoms: C_9  and  C_10
REMARK    8  A    between atoms: C_12  and  C_13
REMARK    9  A    between atoms: C_13  and  C_14
REMARK   10  A    between atoms: C_13  and  C_15
REMARK   11  A    between atoms: C_13  and  C_16
REMARK   12  A    between atoms: C_20  and  O_21
REMARK                            x       y       z     vdW  Elec       q    Type
REMARK                         _______ _______ _______ _____ _____    ______ ____
ROOT
ATOM      1  C   UNL     1       4.881   4.988  18.611  0.00  0.00    +0.000 A 
ATOM      2  C   UNL     1       4.011   3.969  19.063  0.00  0.00    +0.000 A 
ATOM      3  C   UNL     1       2.621   4.164  19.199  0.00  0.00    +0.000 A 
ATOM      4  C   UNL     1       2.128   5.448  18.901  0.00  0.00    +0.000 A 
ATOM      5  C   UNL     1       2.972   6.462  18.433  0.00  0.00    +0.000 A 
ATOM      6  I   UNL     1       2.139   8.333  18.004  0.00  0.00    +0.000 I 
ATOM      7  C   UNL     1       4.339   6.227  18.274  0.00  0.00    +0.000 A 
ENDROOT
BRANCH   3   8
ATOM      8  C   UNL     1       1.687   3.044  19.703  0.00  0.00    +0.000 C 
ATOM      9  C   UNL     1       1.318   3.331  21.171  0.00  0.00    +0.000 C 
ATOM     10  C   UNL     1       0.382   2.957  18.874  0.00  0.00    +0.000 C 
ATOM     11  C   UNL     1       2.334   1.641  19.631  0.00  0.00    +0.000 C 
ENDBRANCH   3   8
BRANCH   7  12
ATOM     12  O   UNL     1       5.183   7.195  17.797  0.00  0.00    +0.000 OA
ATOM     13  H   UNL     1       4.646   7.991  17.639  0.00  0.00    +0.000 HD
ENDBRANCH   7  12
BRANCH   1  14
ATOM     14  C   UNL     1       6.363   4.724  18.504  0.00  0.00    +0.000 C 
BRANCH  14  17
ATOM     15  C   UNL     1       7.385   5.210  16.345  0.00  0.00    +0.000 C 
ATOM     16  O   UNL     1       7.613   6.366  16.656  0.00  0.00    +0.000 OA
ATOM     17  N   UNL     1       6.763   4.328  17.173  0.00  0.00    +0.000 N 
ATOM     18  H   UNL     1       6.691   3.360  16.887  0.00  0.00    +0.000 HD
BRANCH  15  19
ATOM     19  O   UNL     1       7.709   4.631  15.162  0.00  0.00    +0.000 OA
BRANCH  19  21
ATOM     20  C   UNL     1       7.529   5.305  12.805  0.00  0.00    +0.000 C 
ATOM     21  C   UNL     1       6.784   4.798  14.049  0.00  0.00    +0.000 C 
ATOM     22  C   UNL     1       5.602   5.708  14.424  0.00  0.00    +0.000 C 
ATOM     23  C   UNL     1       6.220   3.406  13.724  0.00  0.00    +0.000 C 
ENDBRANCH  19  21
ENDBRANCH  15  19
ENDBRANCH  14  17
ENDBRANCH   1  14
TORSDOF 6
ENDMDL
MODEL 5
REMARK VINA RESULT:      -6.3      1.210      1.786
REMARK  Name = 
REMARK  12 active torsions:
REMARK  status: ('A' for Active; 'I' for Inactive)
REMARK    1  A    between atoms: C_1  and  C_2
REMARK    2  A    between atoms: C_2  and  C_3
REMARK    3  A    between atoms: C_2  and  C_4
REMARK    4  A    between atoms: C_2  and  O_5
REMARK    5  A    between atoms: O_5  and  C_6
REMARK    6  A    between atoms: N_8  and  C_9
REMARK    7  A    between atoms: C_9  and  C_10
REMARK    8  A    between atoms: C_12  and  C_13
REMARK    9  A    between atoms: C_13  and  C_14
REMARK   10  A    between atoms: C_13  and  C_15
REMARK   11  A    between atoms: C_13  and  C_16
REMARK   12  A    between atoms: C_20  and  O_21
REMARK                            x       y       z     vdW  Elec       q    Type
REMARK                         _______ _______ _______ _____ _____    ______ ____
ROOT
ATOM      1  C   UNL     1       5.097   4.923  17.676  0.00  0.00    +0.000 A 
ATOM      2  C   UNL     1       4.454   3.946  18.469  0.00  0.00    +0.000 A 
ATOM      3  C   UNL     1       3.212   4.175  19.095  0.00  0.00    +0.000 A 
ATOM      4  C   UNL     1       2.644   5.451  18.932  0.00  0.00    +0.000 A 
ATOM      5  C   UNL     1       3.258   6.425  18.133  0.00  0.00    +0.000 A 
ATOM      6  I   UNL     1       2.325   8.288  17.941  0.00  0.00    +0.000 I 
ATOM      7  C   UNL     1       4.470   6.154  17.496  0.00  0.00    +0.000 A 
ENDROOT
BRANCH   3   8
ATOM      8  C   UNL     1       2.528   3.100  19.966  0.00  0.00    +0.000 C 
ATOM      9  C   UNL     1       3.616   2.233  20.629  0.00  0.00    +0.000 C 
ATOM     10  C   UNL     1       1.648   3.723  21.077  0.00  0.00    +0.000 C 
ATOM     11  C   UNL     1       1.595   2.169  19.154  0.00  0.00    +0.000 C 
ENDBRANCH   3   8
BRANCH   7  12
ATOM     12  O   UNL     1       5.081   7.081  16.692  0.00  0.00    +0.000 OA
ATOM     13  H   UNL     1       4.913   7.956  17.085  0.00  0.00    +0.000 HD
ENDBRANCH   7  12
BRANCH   1  14
ATOM     14  C   UNL     1       6.437   4.625  17.048  0.00  0.00    +0.000 C 
BRANCH  14  17
ATOM     15  C   UNL     1       6.299   4.136  14.663  0.00  0.00    +0.000 C 
ATOM     16  O   UNL     1       6.314   5.319  14.368  0.00  0.00    +0.000 OA
ATOM     17  N   UNL     1       6.339   3.692  15.948  0.00  0.00    +0.000 N 
ATOM     18  H   UNL     1       6.419   2.698  16.116  0.00  0.00    +0.000 HD
BRANCH  15  19
ATOM     19  O   UNL     1       6.246   3.104  13.786  0.00  0.00    +0.000 OA
BRANCH  19  21
ATOM     20  C   UNL     1       6.740   2.184  11.560  0.00  0.00    +0.000 C 
ATOM     21  C   UNL     1       6.304   3.417  12.364  0.00  0.00    +0.000 C 
ATOM     22  C   UNL     1       7.204   4.634  12.087  0.00  0.00    +0.000 C 
ATOM     23  C   UNL     1       4.876   3.781  11.929  0.00  0.00    +0.000 C 
ENDBRANCH  19  21
ENDBRANCH  15  19
ENDBRANCH  14  17
ENDBRANCH   1  14
TORSDOF 6
ENDMDL
MODEL 6
REMARK VINA RESULT:      -6.2      1.221      1.743
REMARK  Name = 
REMARK  12 active torsions:
REMARK  status: ('A' for Active; 'I' for Inactive)
REMARK    1  A    between atoms: C_1  and  C_2
REMARK    2  A    between atoms: C_2  and  C_3
REMARK    3  A    between atoms: C_2  and  C_4
REMARK    4  A    between atoms: C_2  and  O_5
REMARK    5  A    between atoms: O_5  and  C_6
REMARK    6  A    between atoms: N_8  and  C_9
REMARK    7  A    between atoms: C_9  and  C_10
REMARK    8  A    between atoms: C_12  and  C_13
REMARK    9  A    between atoms: C_13  and  C_14
REMARK   10  A    between atoms: C_13  and  C_15
REMARK   11  A    between atoms: C_13  and  C_16
REMARK   12  A    between atoms: C_20  and  O_21
REMARK                            x       y       z     vdW  Elec       q    Type
REMARK                         _______ _______ _______ _____ _____    ______ ____
ROOT
ATOM      1  C   UNL     1       4.978   4.908  17.611  0.00  0.00    +0.000 A 
ATOM      2  C   UNL     1       4.255   3.932  18.333  0.00  0.00    +0.000 A 
ATOM      3  C   UNL     1       2.996   4.195  18.913  0.00  0.00    +0.000 A 
ATOM      4  C   UNL     1       2.498   5.503  18.779  0.00  0.00    +0.000 A 
ATOM      5  C   UNL     1       3.191   6.477  18.051  0.00  0.00    +0.000 A 
ATOM      6  I   UNL     1       2.356   8.389  17.897  0.00  0.00    +0.000 I 
ATOM      7  C   UNL     1       4.418   6.174  17.456  0.00  0.00    +0.000 A 
ENDROOT
BRANCH   3   8
ATOM      8  C   UNL     1       2.224   3.120  19.706  0.00  0.00    +0.000 C 
ATOM      9  C   UNL     1       0.874   3.711  20.155  0.00  0.00    +0.000 C 
ATOM     10  C   UNL     1       1.951   1.854  18.857  0.00  0.00    +0.000 C 
ATOM     11  C   UNL     1       2.983   2.635  20.964  0.00  0.00    +0.000 C 
ENDBRANCH   3   8
BRANCH   7  12
ATOM     12  O   UNL     1       5.107   7.102  16.721  0.00  0.00    +0.000 OA
ATOM     13  H   UNL     1       4.521   7.871  16.606  0.00  0.00    +0.000 HD
ENDBRANCH   7  12
BRANCH   1  14
ATOM     14  C   UNL     1       6.330   4.571  17.030  0.00  0.00    +0.000 C 
BRANCH  14  17
ATOM     15  C   UNL     1       6.079   4.035  14.665  0.00  0.00    +0.000 C 
ATOM     16  O   UNL     1       5.963   5.209  14.359  0.00  0.00    +0.000 OA
ATOM     17  N   UNL     1       6.247   3.616  15.948  0.00  0.00    +0.000 N 
ATOM     18  H   UNL     1       6.432   2.637  16.120  0.00  0.00    +0.000 HD
BRANCH  15  19
ATOM     19  O   UNL     1       6.066   2.988  13.803  0.00  0.00    +0.000 OA
BRANCH  19  21
ATOM     20  C   UNL     1       4.711   3.762  11.903  0.00  0.00    +0.000 C 
ATOM     21  C   UNL     1       6.091   3.284  12.376  0.00  0.00    +0.000 C 
ATOM     22  C   UNL     1       6.598   2.084  11.557  0.00  0.00    +0.000 C 
ATOM     23  C   UNL     1       7.083   4.440  12.178  0.00  0.00    +0.000 C 
ENDBRANCH  19  21
ENDBRANCH  15  19
ENDBRANCH  14  17
ENDBRANCH   1  14
TORSDOF 6
ENDMDL
MODEL 7
REMARK VINA RESULT:      -6.2      4.027      6.779
REMARK  Name = 
REMARK  12 active torsions:
REMARK  status: ('A' for Active; 'I' for Inactive)
REMARK    1  A    between atoms: C_1  and  C_2
REMARK    2  A    between atoms: C_2  and  C_3
REMARK    3  A    between atoms: C_2  and  C_4
REMARK    4  A    between atoms: C_2  and  O_5
REMARK    5  A    between atoms: O_5  and  C_6
REMARK    6  A    between atoms: N_8  and  C_9
REMARK    7  A    between atoms: C_9  and  C_10
REMARK    8  A    between atoms: C_12  and  C_13
REMARK    9  A    between atoms: C_13  and  C_14
REMARK   10  A    between atoms: C_13  and  C_15
REMARK   11  A    between atoms: C_13  and  C_16
REMARK   12  A    between atoms: C_20  and  O_21
REMARK                            x       y       z     vdW  Elec       q    Type
REMARK                         _______ _______ _______ _____ _____    ______ ____
ROOT
ATOM      1  C   UNL     1       3.098   6.741  17.921  0.00  0.00    +0.000 A 
ATOM      2  C   UNL     1       2.397   5.805  18.715  0.00  0.00    +0.000 A 
ATOM      3  C   UNL     1       2.688   4.425  18.696  0.00  0.00    +0.000 A 
ATOM      4  C   UNL     1       3.694   4.001  17.809  0.00  0.00    +0.000 A 
ATOM      5  C   UNL     1       4.412   4.917  17.030  0.00  0.00    +0.000 A 
ATOM      6  I   UNL     1       5.900   4.186  15.753  0.00  0.00    +0.000 I 
ATOM      7  C   UNL     1       4.125   6.281  17.099  0.00  0.00    +0.000 A 
ENDROOT
BRANCH   3   8
ATOM      8  C   UNL     1       1.906   3.416  19.563  0.00  0.00    +0.000 C 
ATOM      9  C   UNL     1       0.947   4.194  20.484  0.00  0.00    +0.000 C 
ATOM     10  C   UNL     1       1.076   2.431  18.704  0.00  0.00    +0.000 C 
ATOM     11  C   UNL     1       2.825   2.541  20.448  0.00  0.00    +0.000 C 
ENDBRANCH   3   8
BRANCH   7  12
ATOM     12  O   UNL     1       4.827   7.200  16.364  0.00  0.00    +0.000 OA
ATOM     13  H   UNL     1       5.136   7.886  16.982  0.00  0.00    +0.000 HD
ENDBRANCH   7  12
BRANCH   1  14
ATOM     14  C   UNL     1       2.727   8.203  17.971  0.00  0.00    +0.000 C 
BRANCH  14  17
ATOM     15  C   UNL     1       0.848   9.370  18.997  0.00  0.00    +0.000 C 
ATOM     16  O   UNL     1       0.543   9.907  17.946  0.00  0.00    +0.000 OA
ATOM     17  N   UNL     1       1.911   8.531  19.119  0.00  0.00    +0.000 N 
ATOM     18  H   UNL     1       2.051   8.047  19.996  0.00  0.00    +0.000 HD
BRANCH  15  19
ATOM     19  O   UNL     1       0.197   9.515  20.177  0.00  0.00    +0.000 OA
BRANCH  19  21
ATOM     20  C   UNL     1      -1.292  11.460  19.973  0.00  0.00    +0.000 C 
ATOM     21  C   UNL     1      -0.050  10.869  20.655  0.00  0.00    +0.000 C 
ATOM     22  C   UNL     1       1.187  11.766  20.480  0.00  0.00    +0.000 C 
ATOM     23  C   UNL     1      -0.344  10.764  22.160  0.00  0.00    +0.000 C 
ENDBRANCH  19  21
ENDBRANCH  15  19
ENDBRANCH  14  17
ENDBRANCH   1  14
TORSDOF 6
ENDMDL
MODEL 8
REMARK VINA RESULT:      -6.2      3.912      6.342
REMARK  Name = 
REMARK  12 active torsions:
REMARK  status: ('A' for Active; 'I' for Inactive)
REMARK    1  A    between atoms: C_1  and  C_2
REMARK    2  A    between atoms: C_2  and  C_3
REMARK    3  A    between atoms: C_2  and  C_4
REMARK    4  A    between atoms: C_2  and  O_5
REMARK    5  A    between atoms: O_5  and  C_6
REMARK    6  A    between atoms: N_8  and  C_9
REMARK    7  A    between atoms: C_9  and  C_10
REMARK    8  A    between atoms: C_12  and  C_13
REMARK    9  A    between atoms: C_13  and  C_14
REMARK   10  A    between atoms: C_13  and  C_15
REMARK   11  A    between atoms: C_13  and  C_16
REMARK   12  A    between atoms: C_20  and  O_21
REMARK                            x       y       z     vdW  Elec       q    Type
REMARK                         _______ _______ _______ _____ _____    ______ ____
ROOT
ATOM      1  C   UNL     1       3.427   6.680  17.825  0.00  0.00    +0.000 A 
ATOM      2  C   UNL     1       2.690   5.769  18.616  0.00  0.00    +0.000 A 
ATOM      3  C   UNL     1       2.884   4.374  18.545  0.00  0.00    +0.000 A 
ATOM      4  C   UNL     1       3.828   3.911  17.610  0.00  0.00    +0.000 A 
ATOM      5  C   UNL     1       4.580   4.800  16.832  0.00  0.00    +0.000 A 
ATOM      6  I   UNL     1       5.969   4.012  15.481  0.00  0.00    +0.000 I 
ATOM      7  C   UNL     1       4.391   6.178  16.953  0.00  0.00    +0.000 A 
ENDROOT
BRANCH   3   8
ATOM      8  C   UNL     1       2.065   3.393  19.409  0.00  0.00    +0.000 C 
ATOM      9  C   UNL     1       3.037   2.542  20.249  0.00  0.00    +0.000 C 
ATOM     10  C   UNL     1       1.098   4.129  20.369  0.00  0.00    +0.000 C 
ATOM     11  C   UNL     1       1.186   2.436  18.568  0.00  0.00    +0.000 C 
ENDBRANCH   3   8
BRANCH   7  12
ATOM     12  O   UNL     1       5.129   7.071  16.220  0.00  0.00    +0.000 OA
ATOM     13  H   UNL     1       5.346   7.815  16.809  0.00  0.00    +0.000 HD
ENDBRANCH   7  12
BRANCH   1  14
ATOM     14  C   UNL     1       3.160   8.161  17.932  0.00  0.00    +0.000 C 
BRANCH  14  17
ATOM     15  C   UNL     1       1.332   9.774  17.871  0.00  0.00    +0.000 C 
ATOM     16  O   UNL     1       2.077  10.704  18.129  0.00  0.00    +0.000 OA
ATOM     17  N   UNL     1       1.761   8.488  17.768  0.00  0.00    +0.000 N 
ATOM     18  H   UNL     1       1.108   7.780  17.458  0.00  0.00    +0.000 HD
BRANCH  15  19
ATOM     19  O   UNL     1      -0.002   9.869  17.646  0.00  0.00    +0.000 OA
BRANCH  19  21
ATOM     20  C   UNL     1      -0.415   9.952  20.068  0.00  0.00    +0.000 C 
ATOM     21  C   UNL     1      -0.823  10.477  18.684  0.00  0.00    +0.000 C 
ATOM     22  C   UNL     1      -2.324  10.277  18.410  0.00  0.00    +0.000 C 
ATOM     23  C   UNL     1      -0.538  11.987  18.652  0.00  0.00    +0.000 C 
ENDBRANCH  19  21
ENDBRANCH  15  19
ENDBRANCH  14  17
ENDBRANCH   1  14
TORSDOF 6
ENDMDL
MODEL 9
REMARK VINA RESULT:      -6.2      4.640      7.122
REMARK  Name = 
REMARK  12 active torsions:
REMARK  status: ('A' for Active; 'I' for Inactive)
REMARK    1  A    between atoms: C_1  and  C_2
REMARK    2  A    between atoms: C_2  and  C_3
REMARK    3  A    between atoms: C_2  and  C_4
REMARK    4  A    between atoms: C_2  and  O_5
REMARK    5  A    between atoms: O_5  and  C_6
REMARK    6  A    between atoms: N_8  and  C_9
REMARK    7  A    between atoms: C_9  and  C_10
REMARK    8  A    between atoms: C_12  and  C_13
REMARK    9  A    between atoms: C_13  and  C_14
REMARK   10  A    between atoms: C_13  and  C_15
REMARK   11  A    between atoms: C_13  and  C_16
REMARK   12  A    between atoms: C_20  and  O_21
REMARK                            x       y       z     vdW  Elec       q    Type
REMARK                         _______ _______ _______ _____ _____    ______ ____
ROOT
ATOM      1  C   UNL     1       1.338   8.904  18.919  0.00  0.00    +0.000 A 
ATOM      2  C   UNL     1       0.439   9.717  18.193  0.00  0.00    +0.000 A 
ATOM      3  C   UNL     1      -0.595  10.446  18.815  0.00  0.00    +0.000 A 
ATOM      4  C   UNL     1      -0.728  10.298  20.207  0.00  0.00    +0.000 A 
ATOM      5  C   UNL     1       0.166   9.513  20.945  0.00  0.00    +0.000 A 
ATOM      6  I   UNL     1      -0.107   9.371  23.015  0.00  0.00    +0.000 I 
ATOM      7  C   UNL     1       1.204   8.833  20.305  0.00  0.00    +0.000 A 
ENDROOT
BRANCH   3   8
ATOM      8  C   UNL     1      -1.575  11.322  18.005  0.00  0.00    +0.000 C 
ATOM      9  C   UNL     1      -0.863  12.634  17.619  0.00  0.00    +0.000 C 
ATOM     10  C   UNL     1      -2.051  10.620  16.711  0.00  0.00    +0.000 C 
ATOM     11  C   UNL     1      -2.857  11.681  18.793  0.00  0.00    +0.000 C 
ENDBRANCH   3   8
BRANCH   7  12
ATOM     12  O   UNL     1       2.105   8.075  21.005  0.00  0.00    +0.000 OA
ATOM     13  H   UNL     1       1.636   7.277  21.306  0.00  0.00    +0.000 HD
ENDBRANCH   7  12
BRANCH   1  14
ATOM     14  C   UNL     1       2.414   8.133  18.195  0.00  0.00    +0.000 C 
BRANCH  14  17
ATOM     15  C   UNL     1       2.822   5.767  18.624  0.00  0.00    +0.000 C 
ATOM     16  O   UNL     1       3.808   6.008  19.299  0.00  0.00    +0.000 OA
ATOM     17  N   UNL     1       2.079   6.736  18.026  0.00  0.00    +0.000 N 
ATOM     18  H   UNL     1       1.221   6.473  17.559  0.00  0.00    +0.000 HD
BRANCH  15  19
ATOM     19  O   UNL     1       2.319   4.534  18.371  0.00  0.00    +0.000 OA
BRANCH  19  21
ATOM     20  C   UNL     1       1.210   4.611  20.563  0.00  0.00    +0.000 C 
ATOM     21  C   UNL     1       1.892   3.729  19.508  0.00  0.00    +0.000 C 
ATOM     22  C   UNL     1       3.057   2.917  20.099  0.00  0.00    +0.000 C 
ATOM     23  C   UNL     1       0.847   2.733  18.981  0.00  0.00    +0.000 C 
ENDBRANCH  19  21
ENDBRANCH  15  19
ENDBRANCH  14  17
ENDBRANCH   1  14
TORSDOF 6
ENDMDL
