MODEL 1
REMARK VINA RESULT:      -7.4      0.000      0.000
REMARK  Name = 
REMARK  8 active torsions:
REMARK  status: ('A' for Active; 'I' for Inactive)
REMARK    1  A    between atoms: C_1  and  C_2
REMARK    2  A    between atoms: C_8  and  C_9
REMARK    3  A    between atoms: C_9  and  C_10
REMARK    4  A    between atoms: C_10  and  C_12
REMARK    5  A    between atoms: C_10  and  P_15
REMARK    6  A    between atoms: C_12  and  O_14
REMARK    7  A    between atoms: P_15  and  O_17
REMARK    8  A    between atoms: P_15  and  O_18
REMARK                            x       y       z     vdW  Elec       q    Type
REMARK                         _______ _______ _______ _____ _____    ______ ____
ROOT
ATOM      1  C   UNL     1       5.885   5.505  17.284  0.00  0.00    +0.000 C 
ATOM      2  F   UNL     1       6.374   6.785  17.335  0.00  0.00    +0.000 F 
ENDROOT
BRANCH   1   3
ATOM      3  C   UNL     1       5.914   4.910  18.655  0.00  0.00    +0.000 C 
ATOM      4  O   UNL     1       6.138   5.518  19.693  0.00  0.00    +0.000 OA
BRANCH   3   5
ATOM      5  O   UNL     1       5.759   3.552  18.643  0.00  0.00    +0.000 OA
ATOM      6  H   UNL     1       5.872   3.151  19.533  0.00  0.00    +0.000 HD
ENDBRANCH   3   5
ENDBRANCH   1   3
BRANCH   1   7
ATOM      7  P   UNL     1       6.951   4.675  16.130  0.00  0.00    +0.000 P 
ATOM      8  O   UNL     1       7.515   5.465  14.992  0.00  0.00    +0.000 OA
BRANCH   7   9
ATOM      9  O   UNL     1       8.159   4.073  17.010  0.00  0.00    +0.000 OA
ATOM     10  H   UNL     1       7.937   4.018  17.962  0.00  0.00    +0.000 HD
ENDBRANCH   7   9
BRANCH   7  11
ATOM     11  O   UNL     1       6.308   3.309  15.589  0.00  0.00    +0.000 OA
ATOM     12  H   UNL     1       5.352   3.415  15.423  0.00  0.00    +0.000 HD
ENDBRANCH   7  11
ENDBRANCH   1   7
BRANCH   1  13
ATOM     13  C   UNL     1       4.427   5.545  16.804  0.00  0.00    +0.000 C 
BRANCH  13  21
ATOM     14  C   UNL     1       1.076   1.829  19.216  0.00  0.00    +0.000 C 
ATOM     15  C   UNL     1       1.495   3.257  19.345  0.00  0.00    +0.000 A 
ATOM     16  C   UNL     1       0.993   4.054  20.464  0.00  0.00    +0.000 A 
ATOM     17  C   UNL     1       1.284   5.362  20.587  0.00  0.00    +0.000 A 
ATOM     18  C   UNL     1       2.106   6.000  19.616  0.00  0.00    +0.000 A 
ATOM     19  N   UNL     1       2.485   7.251  19.494  0.00  0.00    +0.000 NA
ATOM     20  C   UNL     1       3.298   7.280  18.395  0.00  0.00    +0.000 A 
ATOM     21  C   UNL     1       3.469   6.014  17.860  0.00  0.00    +0.000 A 
ATOM     22  N   UNL     1       2.629   5.203  18.601  0.00  0.00    +0.000 N 
ATOM     23  C   UNL     1       2.317   3.852  18.459  0.00  0.00    +0.000 A 
ENDBRANCH  13  21
ENDBRANCH   1  13
TORSDOF 7
ENDMDL
MODEL 2
REMARK VINA RESULT:      -7.3      1.762      2.921
REMARK  Name = 
REMARK  8 active torsions:
REMARK  status: ('A' for Active; 'I' for Inactive)
REMARK    1  A    between atoms: C_1  and  C_2
REMARK    2  A    between atoms: C_8  and  C_9
REMARK    3  A    between atoms: C_9  and  C_10
REMARK    4  A    between atoms: C_10  and  C_12
REMARK    5  A    between atoms: C_10  and  P_15
REMARK    6  A    between atoms: C_12  and  O_14
REMARK    7  A    between atoms: P_15  and  O_17
REMARK    8  A    between atoms: P_15  and  O_18
REMARK                            x       y       z     vdW  Elec       q    Type
REMARK                         _______ _______ _______ _____ _____    ______ ____
ROOT
ATOM      1  C   UNL     1       5.571   5.237  17.199  0.00  0.00    +0.000 C 
ATOM      2  F   UNL     1       4.396   4.698  16.742  0.00  0.00    +0.000 F 
ENDROOT
BRANCH   1   3
ATOM      3  C   UNL     1       5.468   6.729  17.184  0.00  0.00    +0.000 C 
ATOM      4  O   UNL     1       4.433   7.374  17.280  0.00  0.00    +0.000 OA
BRANCH   3   5
ATOM      5  O   UNL     1       6.668   7.337  16.945  0.00  0.00    +0.000 OA
ATOM      6  H   UNL     1       7.189   6.883  16.247  0.00  0.00    +0.000 HD
ENDBRANCH   3   5
ENDBRANCH   1   3
BRANCH   1   7
ATOM      7  P   UNL     1       6.804   4.602  16.089  0.00  0.00    +0.000 P 
ATOM      8  O   UNL     1       7.341   5.512  15.030  0.00  0.00    +0.000 OA
BRANCH   7   9
ATOM      9  O   UNL     1       8.016   4.104  17.027  0.00  0.00    +0.000 OA
ATOM     10  H   UNL     1       8.893   4.269  16.624  0.00  0.00    +0.000 HD
ENDBRANCH   7   9
BRANCH   7  11
ATOM     11  O   UNL     1       6.371   3.200  15.444  0.00  0.00    +0.000 OA
ATOM     12  H   UNL     1       7.146   2.621  15.313  0.00  0.00    +0.000 HD
ENDBRANCH   7  11
ENDBRANCH   1   7
BRANCH   1  13
ATOM     13  C   UNL     1       5.801   4.782  18.647  0.00  0.00    +0.000 C 
BRANCH  13  21
ATOM     14  C   UNL     1       1.323   7.232  20.840  0.00  0.00    +0.000 C 
ATOM     15  C   UNL     1       1.816   5.881  20.435  0.00  0.00    +0.000 A 
ATOM     16  C   UNL     1       0.915   4.732  20.528  0.00  0.00    +0.000 A 
ATOM     17  C   UNL     1       1.330   3.484  20.243  0.00  0.00    +0.000 A 
ATOM     18  C   UNL     1       2.674   3.260  19.833  0.00  0.00    +0.000 A 
ATOM     19  N   UNL     1       3.317   2.150  19.551  0.00  0.00    +0.000 NA
ATOM     20  C   UNL     1       4.573   2.540  19.180  0.00  0.00    +0.000 A 
ATOM     21  C   UNL     1       4.694   3.921  19.181  0.00  0.00    +0.000 A 
ATOM     22  N   UNL     1       3.490   4.379  19.684  0.00  0.00    +0.000 N 
ATOM     23  C   UNL     1       3.071   5.670  19.995  0.00  0.00    +0.000 A 
ENDBRANCH  13  21
ENDBRANCH   1  13
TORSDOF 7
ENDMDL
MODEL 3
REMARK VINA RESULT:      -7.1      3.611      5.643
REMARK  Name = 
REMARK  8 active torsions:
REMARK  status: ('A' for Active; 'I' for Inactive)
REMARK    1  A    between atoms: C_1  and  C_2
REMARK    2  A    between atoms: C_8  and  C_9
REMARK    3  A    between atoms: C_9  and  C_10
REMARK    4  A    between atoms: C_10  and  C_12
REMARK    5  A    between atoms: C_10  and  P_15
REMARK    6  A    between atoms: C_12  and  O_14
REMARK    7  A    between atoms: P_15  and  O_17
REMARK    8  A    between atoms: P_15  and  O_18
REMARK                            x       y       z     vdW  Elec       q    Type
REMARK                         _______ _______ _______ _____ _____    ______ ____
ROOT
ATOM      1  C   UNL     1       2.678   2.849  19.259  0.00  0.00    +0.000 C 
ATOM      2  F   UNL     1       1.634   2.096  18.787  0.00  0.00    +0.000 F 
ENDROOT
BRANCH   1   3
ATOM      3  C   UNL     1       3.923   2.020  19.261  0.00  0.00    +0.000 C 
ATOM      4  O   UNL     1       4.767   2.002  20.146  0.00  0.00    +0.000 OA
BRANCH   3   5
ATOM      5  O   UNL     1       4.097   1.328  18.095  0.00  0.00    +0.000 OA
ATOM      6  H   UNL     1       5.043   1.162  17.892  0.00  0.00    +0.000 HD
ENDBRANCH   3   5
ENDBRANCH   1   3
BRANCH   1   7
ATOM      7  P   UNL     1       2.159   3.349  20.883  0.00  0.00    +0.000 P 
ATOM      8  O   UNL     1       2.278   4.795  21.250  0.00  0.00    +0.000 OA
BRANCH   7   9
ATOM      9  O   UNL     1       0.619   2.893  21.006  0.00  0.00    +0.000 OA
ATOM     10  H   UNL     1       0.212   2.711  20.135  0.00  0.00    +0.000 HD
ENDBRANCH   7   9
BRANCH   7  11
ATOM     11  O   UNL     1       2.802   2.433  22.031  0.00  0.00    +0.000 OA
ATOM     12  H   UNL     1       2.171   2.296  22.763  0.00  0.00    +0.000 HD
ENDBRANCH   7  11
ENDBRANCH   1   7
BRANCH   1  13
ATOM     13  C   UNL     1       2.896   4.046  18.322  0.00  0.00    +0.000 C 
BRANCH  13  21
ATOM     14  C   UNL     1       5.898   3.740  13.659  0.00  0.00    +0.000 C 
ATOM     15  C   UNL     1       5.957   4.327  15.031  0.00  0.00    +0.000 A 
ATOM     16  C   UNL     1       7.087   5.182  15.398  0.00  0.00    +0.000 A 
ATOM     17  C   UNL     1       7.223   5.678  16.641  0.00  0.00    +0.000 A 
ATOM     18  C   UNL     1       6.250   5.378  17.634  0.00  0.00    +0.000 A 
ATOM     19  N   UNL     1       6.188   5.699  18.906  0.00  0.00    +0.000 NA
ATOM     20  C   UNL     1       5.011   5.172  19.359  0.00  0.00    +0.000 A 
ATOM     21  C   UNL     1       4.305   4.560  18.335  0.00  0.00    +0.000 A 
ATOM     22  N   UNL     1       5.148   4.623  17.241  0.00  0.00    +0.000 N 
ATOM     23  C   UNL     1       5.011   4.092  15.960  0.00  0.00    +0.000 A 
ENDBRANCH  13  21
ENDBRANCH   1  13
TORSDOF 7
ENDMDL
MODEL 4
REMARK VINA RESULT:      -7.1      1.967      3.302
REMARK  Name = 
REMARK  8 active torsions:
REMARK  status: ('A' for Active; 'I' for Inactive)
REMARK    1  A    between atoms: C_1  and  C_2
REMARK    2  A    between atoms: C_8  and  C_9
REMARK    3  A    between atoms: C_9  and  C_10
REMARK    4  A    between atoms: C_10  and  C_12
REMARK    5  A    between atoms: C_10  and  P_15
REMARK    6  A    between atoms: C_12  and  O_14
REMARK    7  A    between atoms: P_15  and  O_17
REMARK    8  A    between atoms: P_15  and  O_18
REMARK                            x       y       z     vdW  Elec       q    Type
REMARK                         _______ _______ _______ _____ _____    ______ ____
ROOT
ATOM      1  C   UNL     1       5.536   4.801  16.986  0.00  0.00    +0.000 C 
ATOM      2  F   UNL     1       5.746   4.697  18.337  0.00  0.00    +0.000 F 
ENDROOT
BRANCH   1   3
ATOM      3  C   UNL     1       6.680   4.171  16.257  0.00  0.00    +0.000 C 
ATOM      4  O   UNL     1       7.855   4.495  16.357  0.00  0.00    +0.000 OA
BRANCH   3   5
ATOM      5  O   UNL     1       6.274   3.225  15.357  0.00  0.00    +0.000 OA
ATOM      6  H   UNL     1       5.536   2.674  15.696  0.00  0.00    +0.000 HD
ENDBRANCH   3   5
ENDBRANCH   1   3
BRANCH   1   7
ATOM      7  P   UNL     1       5.391   6.548  16.699  0.00  0.00    +0.000 P 
ATOM      8  O   UNL     1       4.409   7.322  17.519  0.00  0.00    +0.000 OA
BRANCH   7   9
ATOM      9  O   UNL     1       6.868   7.150  16.929  0.00  0.00    +0.000 OA
ATOM     10  H   UNL     1       7.166   7.066  17.858  0.00  0.00    +0.000 HD
ENDBRANCH   7   9
BRANCH   7  11
ATOM     11  O   UNL     1       5.203   6.891  15.144  0.00  0.00    +0.000 OA
ATOM     12  H   UNL     1       4.265   7.062  14.935  0.00  0.00    +0.000 HD
ENDBRANCH   7  11
ENDBRANCH   1   7
BRANCH   1  13
ATOM     13  C   UNL     1       4.252   4.043  16.619  0.00  0.00    +0.000 C 
BRANCH  13  21
ATOM     14  C   UNL     1       1.494   6.580  20.720  0.00  0.00    +0.000 C 
ATOM     15  C   UNL     1       1.815   5.208  20.223  0.00  0.00    +0.000 A 
ATOM     16  C   UNL     1       1.232   4.046  20.896  0.00  0.00    +0.000 A 
ATOM     17  C   UNL     1       1.544   2.789  20.533  0.00  0.00    +0.000 A 
ATOM     18  C   UNL     1       2.458   2.566  19.465  0.00  0.00    +0.000 A 
ATOM     19  N   UNL     1       2.947   1.454  18.966  0.00  0.00    +0.000 NA
ATOM     20  C   UNL     1       3.748   1.841  17.928  0.00  0.00    +0.000 A 
ATOM     21  C   UNL     1       3.711   3.214  17.747  0.00  0.00    +0.000 A 
ATOM     22  N   UNL     1       2.943   3.686  18.795  0.00  0.00    +0.000 N 
ATOM     23  C   UNL     1       2.637   4.990  19.178  0.00  0.00    +0.000 A 
ENDBRANCH  13  21
ENDBRANCH   1  13
TORSDOF 7
ENDMDL
MODEL 5
REMARK VINA RESULT:      -7.0      1.737      3.370
REMARK  Name = 
REMARK  8 active torsions:
REMARK  status: ('A' for Active; 'I' for Inactive)
REMARK    1  A    between atoms: C_1  and  C_2
REMARK    2  A    between atoms: C_8  and  C_9
REMARK    3  A    between atoms: C_9  and  C_10
REMARK    4  A    between atoms: C_10  and  C_12
REMARK    5  A    between atoms: C_10  and  P_15
REMARK    6  A    between atoms: C_12  and  O_14
REMARK    7  A    between atoms: P_15  and  O_17
REMARK    8  A    between atoms: P_15  and  O_18
REMARK                            x       y       z     vdW  Elec       q    Type
REMARK                         _______ _______ _______ _____ _____    ______ ____
ROOT
ATOM      1  C   UNL     1       5.922   4.578  16.458  0.00  0.00    +0.000 C 
ATOM      2  F   UNL     1       6.129   3.252  16.174  0.00  0.00    +0.000 F 
ENDROOT
BRANCH   1   3
ATOM      3  C   UNL     1       6.349   5.406  15.288  0.00  0.00    +0.000 C 
ATOM      4  O   UNL     1       5.606   6.059  14.567  0.00  0.00    +0.000 OA
BRANCH   3   5
ATOM      5  O   UNL     1       7.684   5.290  15.020  0.00  0.00    +0.000 OA
ATOM      6  H   UNL     1       7.889   5.411  14.067  0.00  0.00    +0.000 HD
ENDBRANCH   3   5
ENDBRANCH   1   3
BRANCH   1   7
ATOM      7  P   UNL     1       6.887   4.869  17.921  0.00  0.00    +0.000 P 
ATOM      8  O   UNL     1       6.291   4.511  19.245  0.00  0.00    +0.000 OA
BRANCH   7   9
ATOM      9  O   UNL     1       8.253   4.041  17.711  0.00  0.00    +0.000 OA
ATOM     10  H   UNL     1       8.414   3.396  18.429  0.00  0.00    +0.000 HD
ENDBRANCH   7   9
BRANCH   7  11
ATOM     11  O   UNL     1       7.480   6.358  17.966  0.00  0.00    +0.000 OA
ATOM     12  H   UNL     1       6.790   7.015  17.757  0.00  0.00    +0.000 HD
ENDBRANCH   7  11
ENDBRANCH   1   7
BRANCH   1  13
ATOM     13  C   UNL     1       4.422   4.810  16.694  0.00  0.00    +0.000 C 
BRANCH  13  21
ATOM     14  C   UNL     1       1.441   6.663  21.000  0.00  0.00    +0.000 C 
ATOM     15  C   UNL     1       1.782   5.390  20.296  0.00  0.00    +0.000 A 
ATOM     16  C   UNL     1       1.151   4.142  20.726  0.00  0.00    +0.000 A 
ATOM     17  C   UNL     1       1.475   2.959  20.173  0.00  0.00    +0.000 A 
ATOM     18  C   UNL     1       2.449   2.904  19.137  0.00  0.00    +0.000 A 
ATOM     19  N   UNL     1       2.959   1.884  18.486  0.00  0.00    +0.000 NA
ATOM     20  C   UNL     1       3.824   2.427  17.577  0.00  0.00    +0.000 A 
ATOM     21  C   UNL     1       3.808   3.812  17.631  0.00  0.00    +0.000 A 
ATOM     22  N   UNL     1       2.982   4.113  18.697  0.00  0.00    +0.000 N 
ATOM     23  C   UNL     1       2.663   5.338  19.279  0.00  0.00    +0.000 A 
ENDBRANCH  13  21
ENDBRANCH   1  13
TORSDOF 7
ENDMDL
MODEL 6
REMARK VINA RESULT:      -7.0      1.819      3.062
REMARK  Name = 
REMARK  8 active torsions:
REMARK  status: ('A' for Active; 'I' for Inactive)
REMARK    1  A    between atoms: C_1  and  C_2
REMARK    2  A    between atoms: C_8  and  C_9
REMARK    3  A    between atoms: C_9  and  C_10
REMARK    4  A    between atoms: C_10  and  C_12
REMARK    5  A    between atoms: C_10  and  P_15
REMARK    6  A    between atoms: C_12  and  O_14
REMARK    7  A    between atoms: P_15  and  O_17
REMARK    8  A    between atoms: P_15  and  O_18
REMARK                            x       y       z     vdW  Elec       q    Type
REMARK                         _______ _______ _______ _____ _____    ______ ____
ROOT
ATOM      1  C   UNL     1       5.463   5.169  16.886  0.00  0.00    +0.000 C 
ATOM      2  F   UNL     1       4.621   4.170  16.470  0.00  0.00    +0.000 F 
ENDROOT
BRANCH   1   3
ATOM      3  C   UNL     1       4.855   6.496  16.562  0.00  0.00    +0.000 C 
ATOM      4  O   UNL     1       4.152   7.161  17.310  0.00  0.00    +0.000 OA
BRANCH   3   5
ATOM      5  O   UNL     1       5.077   6.875  15.267  0.00  0.00    +0.000 OA
ATOM      6  H   UNL     1       4.470   6.433  14.635  0.00  0.00    +0.000 HD
ENDBRANCH   3   5
ENDBRANCH   1   3
BRANCH   1   7
ATOM      7  P   UNL     1       6.980   4.854  16.016  0.00  0.00    +0.000 P 
ATOM      8  O   UNL     1       6.901   4.254  14.648  0.00  0.00    +0.000 OA
BRANCH   7   9
ATOM      9  O   UNL     1       7.735   6.276  15.930  0.00  0.00    +0.000 OA
ATOM     10  H   UNL     1       8.630   6.201  15.543  0.00  0.00    +0.000 HD
ENDBRANCH   7   9
BRANCH   7  11
ATOM     11  O   UNL     1       8.034   4.046  16.914  0.00  0.00    +0.000 OA
ATOM     12  H   UNL     1       8.935   4.118  16.546  0.00  0.00    +0.000 HD
ENDBRANCH   7  11
ENDBRANCH   1   7
BRANCH   1  13
ATOM     13  C   UNL     1       5.636   5.076  18.409  0.00  0.00    +0.000 C 
BRANCH  13  21
ATOM     14  C   UNL     1       1.122   7.147  20.898  0.00  0.00    +0.000 C 
ATOM     15  C   UNL     1       1.716   5.838  20.492  0.00  0.00    +0.000 A 
ATOM     16  C   UNL     1       0.948   4.609  20.693  0.00  0.00    +0.000 A 
ATOM     17  C   UNL     1       1.464   3.399  20.410  0.00  0.00    +0.000 A 
ATOM     18  C   UNL     1       2.787   3.295  19.896  0.00  0.00    +0.000 A 
ATOM     19  N   UNL     1       3.514   2.245  19.593  0.00  0.00    +0.000 NA
ATOM     20  C   UNL     1       4.691   2.744  19.107  0.00  0.00    +0.000 A 
ATOM     21  C   UNL     1       4.669   4.129  19.058  0.00  0.00    +0.000 A 
ATOM     22  N   UNL     1       3.470   4.483  19.647  0.00  0.00    +0.000 N 
ATOM     23  C   UNL     1       2.947   5.737  19.955  0.00  0.00    +0.000 A 
ENDBRANCH  13  21
ENDBRANCH   1  13
TORSDOF 7
ENDMDL
MODEL 7
REMARK VINA RESULT:      -7.0      3.942      5.784
REMARK  Name = 
REMARK  8 active torsions:
REMARK  status: ('A' for Active; 'I' for Inactive)
REMARK    1  A    between atoms: C_1  and  C_2
REMARK    2  A    between atoms: C_8  and  C_9
REMARK    3  A    between atoms: C_9  and  C_10
REMARK    4  A    between atoms: C_10  and  C_12
REMARK    5  A    between atoms: C_10  and  P_15
REMARK    6  A    between atoms: C_12  and  O_14
REMARK    7  A    between atoms: P_15  and  O_17
REMARK    8  A    between atoms: P_15  and  O_18
REMARK                            x       y       z     vdW  Elec       q    Type
REMARK                         _______ _______ _______ _____ _____    ______ ____
ROOT
ATOM      1  C   UNL     1       2.661   3.645  19.102  0.00  0.00    +0.000 C 
ATOM      2  F   UNL     1       2.787   5.002  18.949  0.00  0.00    +0.000 F 
ENDROOT
BRANCH   1   3
ATOM      3  C   UNL     1       1.589   3.142  18.189  0.00  0.00    +0.000 C 
ATOM      4  O   UNL     1       1.013   3.800  17.334  0.00  0.00    +0.000 OA
BRANCH   3   5
ATOM      5  O   UNL     1       1.222   1.855  18.466  0.00  0.00    +0.000 OA
ATOM      6  H   UNL     1       0.261   1.700  18.336  0.00  0.00    +0.000 HD
ENDBRANCH   3   5
ENDBRANCH   1   3
BRANCH   1   7
ATOM      7  P   UNL     1       2.279   3.432  20.825  0.00  0.00    +0.000 P 
ATOM      8  O   UNL     1       3.132   2.504  21.630  0.00  0.00    +0.000 OA
BRANCH   7   9
ATOM      9  O   UNL     1       2.343   4.908  21.469  0.00  0.00    +0.000 OA
ATOM     10  H   UNL     1       1.689   5.518  21.071  0.00  0.00    +0.000 HD
ENDBRANCH   7   9
BRANCH   7  11
ATOM     11  O   UNL     1       0.728   3.103  21.063  0.00  0.00    +0.000 OA
ATOM     12  H   UNL     1       0.548   2.933  22.007  0.00  0.00    +0.000 HD
ENDBRANCH   7  11
ENDBRANCH   1   7
BRANCH   1  13
ATOM     13  C   UNL     1       3.985   2.972  18.712  0.00  0.00    +0.000 C 
BRANCH  13  21
ATOM     14  C   UNL     1       6.003   3.764  13.598  0.00  0.00    +0.000 C 
ATOM     15  C   UNL     1       6.108   4.326  14.978  0.00  0.00    +0.000 A 
ATOM     16  C   UNL     1       6.923   5.519  15.206  0.00  0.00    +0.000 A 
ATOM     17  C   UNL     1       7.107   6.024  16.440  0.00  0.00    +0.000 A 
ATOM     18  C   UNL     1       6.494   5.397  17.561  0.00  0.00    +0.000 A 
ATOM     19  N   UNL     1       6.560   5.667  18.844  0.00  0.00    +0.000 NA
ATOM     20  C   UNL     1       5.739   4.760  19.451  0.00  0.00    +0.000 A 
ATOM     21  C   UNL     1       5.111   3.946  18.522  0.00  0.00    +0.000 A 
ATOM     22  N   UNL     1       5.666   4.306  17.308  0.00  0.00    +0.000 N 
ATOM     23  C   UNL     1       5.486   3.769  16.035  0.00  0.00    +0.000 A 
ENDBRANCH  13  21
ENDBRANCH   1  13
TORSDOF 7
ENDMDL
MODEL 8
REMARK VINA RESULT:      -6.9      3.835      5.838
REMARK  Name = 
REMARK  8 active torsions:
REMARK  status: ('A' for Active; 'I' for Inactive)
REMARK    1  A    between atoms: C_1  and  C_2
REMARK    2  A    between atoms: C_8  and  C_9
REMARK    3  A    between atoms: C_9  and  C_10
REMARK    4  A    between atoms: C_10  and  C_12
REMARK    5  A    between atoms: C_10  and  P_15
REMARK    6  A    between atoms: C_12  and  O_14
REMARK    7  A    between atoms: P_15  and  O_17
REMARK    8  A    between atoms: P_15  and  O_18
REMARK                            x       y       z     vdW  Elec       q    Type
REMARK                         _______ _______ _______ _____ _____    ______ ____
ROOT
ATOM      1  C   UNL     1       3.882   3.840  17.751  0.00  0.00    +0.000 C 
ATOM      2  F   UNL     1       4.433   2.702  17.221  0.00  0.00    +0.000 F 
ENDROOT
BRANCH   1   3
ATOM      3  C   UNL     1       4.604   4.199  19.010  0.00  0.00    +0.000 C 
ATOM      4  O   UNL     1       4.452   5.230  19.651  0.00  0.00    +0.000 OA
BRANCH   3   5
ATOM      5  O   UNL     1       5.561   3.284  19.348  0.00  0.00    +0.000 OA
ATOM      6  H   UNL     1       5.209   2.558  19.907  0.00  0.00    +0.000 HD
ENDBRANCH   3   5
ENDBRANCH   1   3
BRANCH   1   7
ATOM      7  P   UNL     1       2.175   3.421  18.009  0.00  0.00    +0.000 P 
ATOM      8  O   UNL     1       1.143   4.106  17.170  0.00  0.00    +0.000 OA
BRANCH   7   9
ATOM      9  O   UNL     1       2.079   1.829  17.778  0.00  0.00    +0.000 OA
ATOM     10  H   UNL     1       2.432   1.556  16.907  0.00  0.00    +0.000 HD
ENDBRANCH   7   9
BRANCH   7  11
ATOM     11  O   UNL     1       1.764   3.492  19.557  0.00  0.00    +0.000 OA
ATOM     12  H   UNL     1       2.552   3.449  20.131  0.00  0.00    +0.000 HD
ENDBRANCH   7  11
ENDBRANCH   1   7
BRANCH   1  13
ATOM     13  C   UNL     1       4.054   4.992  16.749  0.00  0.00    +0.000 C 
BRANCH  13  21
ATOM     14  C   UNL     1       4.953   2.850  11.703  0.00  0.00    +0.000 C 
ATOM     15  C   UNL     1       5.638   3.673  12.745  0.00  0.00    +0.000 A 
ATOM     16  C   UNL     1       6.965   4.225  12.465  0.00  0.00    +0.000 A 
ATOM     17  C   UNL     1       7.654   4.913  13.394  0.00  0.00    +0.000 A 
ATOM     18  C   UNL     1       7.089   5.124  14.683  0.00  0.00    +0.000 A 
ATOM     19  N   UNL     1       7.576   5.712  15.752  0.00  0.00    +0.000 NA
ATOM     20  C   UNL     1       6.579   5.655  16.685  0.00  0.00    +0.000 A 
ATOM     21  C   UNL     1       5.435   5.069  16.167  0.00  0.00    +0.000 A 
ATOM     22  N   UNL     1       5.797   4.652  14.899  0.00  0.00    +0.000 N 
ATOM     23  C   UNL     1       5.087   3.923  13.948  0.00  0.00    +0.000 A 
ENDBRANCH  13  21
ENDBRANCH   1  13
TORSDOF 7
ENDMDL
MODEL 9
REMARK VINA RESULT:      -6.9      1.765      3.414
REMARK  Name = 
REMARK  8 active torsions:
REMARK  status: ('A' for Active; 'I' for Inactive)
REMARK    1  A    between atoms: C_1  and  C_2
REMARK    2  A    between atoms: C_8  and  C_9
REMARK    3  A    between atoms: C_9  and  C_10
REMARK    4  A    between atoms: C_10  and  C_12
REMARK    5  A    between atoms: C_10  and  P_15
REMARK    6  A    between atoms: C_12  and  O_14
REMARK    7  A    between atoms: P_15  and  O_17
REMARK    8  A    between atoms: P_15  and  O_18
REMARK                            x       y       z     vdW  Elec       q    Type
REMARK                         _______ _______ _______ _____ _____    ______ ____
ROOT
ATOM      1  C   UNL     1       5.772   4.130  16.181  0.00  0.00    +0.000 C 
ATOM      2  F   UNL     1       5.855   2.763  16.254  0.00  0.00    +0.000 F 
ENDROOT
BRANCH   1   3
ATOM      3  C   UNL     1       6.247   4.583  14.838  0.00  0.00    +0.000 C 
ATOM      4  O   UNL     1       5.820   4.192  13.760  0.00  0.00    +0.000 OA
BRANCH   3   5
ATOM      5  O   UNL     1       7.313   5.435  14.916  0.00  0.00    +0.000 OA
ATOM      6  H   UNL     1       8.155   4.969  15.114  0.00  0.00    +0.000 HD
ENDBRANCH   3   5
ENDBRANCH   1   3
BRANCH   1   7
ATOM      7  P   UNL     1       6.788   4.702  17.521  0.00  0.00    +0.000 P 
ATOM      8  O   UNL     1       6.817   6.169  17.812  0.00  0.00    +0.000 OA
BRANCH   7   9
ATOM      9  O   UNL     1       6.272   3.911  18.826  0.00  0.00    +0.000 OA
ATOM     10  H   UNL     1       7.007   3.616  19.400  0.00  0.00    +0.000 HD
ENDBRANCH   7   9
BRANCH   7  11
ATOM     11  O   UNL     1       8.282   4.127  17.434  0.00  0.00    +0.000 OA
ATOM     12  H   UNL     1       8.697   4.097  18.317  0.00  0.00    +0.000 HD
ENDBRANCH   7  11
ENDBRANCH   1   7
BRANCH   1  13
ATOM     13  C   UNL     1       4.304   4.552  16.342  0.00  0.00    +0.000 C 
BRANCH  13  21
ATOM     14  C   UNL     1       1.946   7.352  20.520  0.00  0.00    +0.000 C 
ATOM     15  C   UNL     1       2.018   5.972  19.954  0.00  0.00    +0.000 A 
ATOM     16  C   UNL     1       1.206   4.910  20.547  0.00  0.00    +0.000 A 
ATOM     17  C   UNL     1       1.286   3.636  20.121  0.00  0.00    +0.000 A 
ATOM     18  C   UNL     1       2.174   3.298  19.061  0.00  0.00    +0.000 A 
ATOM     19  N   UNL     1       2.460   2.141  18.511  0.00  0.00    +0.000 NA
ATOM     20  C   UNL     1       3.352   2.421  17.514  0.00  0.00    +0.000 A 
ATOM     21  C   UNL     1       3.581   3.784  17.410  0.00  0.00    +0.000 A 
ATOM     22  N   UNL     1       2.883   4.339  18.466  0.00  0.00    +0.000 N 
ATOM     23  C   UNL     1       2.817   5.656  18.916  0.00  0.00    +0.000 A 
ENDBRANCH  13  21
ENDBRANCH   1  13
TORSDOF 7
ENDMDL
