MODEL 1
REMARK VINA RESULT:      -8.0      0.000      0.000
REMARK  Name = 
REMARK  4 active torsions:
REMARK  status: ('A' for Active; 'I' for Inactive)
REMARK    1  A    between atoms: C_1  and  C_2
REMARK    2  A    between atoms: C_6  and  C_7
REMARK    3  A    between atoms: C_10  and  C_11
REMARK    4  A    between atoms: C_11  and  N_13
REMARK                            x       y       z     vdW  Elec       q    Type
REMARK                         _______ _______ _______ _____ _____    ______ ____
ROOT
ATOM      1  C   UNL     1       4.123   5.686  17.954  0.00  0.00    +0.000 A 
ATOM      2  C   UNL     1       4.224   6.860  17.236  0.00  0.00    +0.000 A 
ATOM      3  C   UNL     1       5.441   6.788  16.518  0.00  0.00    +0.000 A 
ATOM      4  C   UNL     1       6.050   5.600  16.870  0.00  0.00    +0.000 A 
ATOM      5  O   UNL     1       5.241   4.925  17.754  0.00  0.00    +0.000 OA
ENDROOT
BRANCH   1  11
ATOM      6  C   UNL     1       0.679   2.163  18.793  0.00  0.00    +0.000 C 
ATOM      7  C   UNL     1       1.378   3.419  19.223  0.00  0.00    +0.000 A 
ATOM      8  C   UNL     1       0.967   4.119  20.362  0.00  0.00    +0.000 A 
ATOM      9  C   UNL     1       1.613   5.297  20.734  0.00  0.00    +0.000 A 
ATOM     10  C   UNL     1       2.661   5.796  19.959  0.00  0.00    +0.000 A 
ATOM     11  C   UNL     1       3.087   5.118  18.809  0.00  0.00    +0.000 A 
ATOM     12  C   UNL     1       2.445   3.920  18.460  0.00  0.00    +0.000 A 
ENDBRANCH   1  11
BRANCH   4  13
ATOM     13  C   UNL     1       7.297   5.013  16.416  0.00  0.00    +0.000 C 
ATOM     14  O   UNL     1       7.932   4.201  17.089  0.00  0.00    +0.000 OA
BRANCH  13  15
ATOM     15  N   UNL     1       7.629   5.441  15.153  0.00  0.00    +0.000 NA
ATOM     16  C   UNL     1       7.212   4.789  14.124  0.00  0.00    +0.000 C 
ATOM     17  N   UNL     1       6.472   3.658  14.065  0.00  0.00    +0.000 N 
ATOM     18  N   UNL     1       7.452   5.278  12.888  0.00  0.00    +0.000 N 
ATOM     19  H   UNL     1       6.386   3.172  14.959  0.00  0.00    +0.000 HD
ATOM     20  H   UNL     1       6.626   3.033  13.289  0.00  0.00    +0.000 HD
ATOM     21  H   UNL     1       8.117   6.044  12.867  0.00  0.00    +0.000 HD
ATOM     22  H   UNL     1       7.519   4.639  12.112  0.00  0.00    +0.000 HD
ENDBRANCH  13  15
ENDBRANCH   4  13
TORSDOF 3
ENDMDL
MODEL 2
REMARK VINA RESULT:      -7.9      0.861      1.484
REMARK  Name = 
REMARK  4 active torsions:
REMARK  status: ('A' for Active; 'I' for Inactive)
REMARK    1  A    between atoms: C_1  and  C_2
REMARK    2  A    between atoms: C_6  and  C_7
REMARK    3  A    between atoms: C_10  and  C_11
REMARK    4  A    between atoms: C_11  and  N_13
REMARK                            x       y       z     vdW  Elec       q    Type
REMARK                         _______ _______ _______ _____ _____    ______ ____
ROOT
ATOM      1  C   UNL     1       3.884   5.306  17.998  0.00  0.00    +0.000 A 
ATOM      2  C   UNL     1       3.986   6.602  17.538  0.00  0.00    +0.000 A 
ATOM      3  C   UNL     1       5.270   6.722  16.957  0.00  0.00    +0.000 A 
ATOM      4  C   UNL     1       5.911   5.513  17.135  0.00  0.00    +0.000 A 
ATOM      5  O   UNL     1       5.060   4.644  17.777  0.00  0.00    +0.000 OA
ENDROOT
BRANCH   1  11
ATOM      6  C   UNL     1       1.962   2.997  21.992  0.00  0.00    +0.000 C 
ATOM      7  C   UNL     1       1.862   3.380  20.545  0.00  0.00    +0.000 A 
ATOM      8  C   UNL     1       0.815   2.909  19.746  0.00  0.00    +0.000 A 
ATOM      9  C   UNL     1       0.750   3.257  18.396  0.00  0.00    +0.000 A 
ATOM     10  C   UNL     1       1.741   4.061  17.832  0.00  0.00    +0.000 A 
ATOM     11  C   UNL     1       2.805   4.539  18.609  0.00  0.00    +0.000 A 
ATOM     12  C   UNL     1       2.844   4.203  19.971  0.00  0.00    +0.000 A 
ENDBRANCH   1  11
BRANCH   4  13
ATOM     13  C   UNL     1       7.229   5.076  16.714  0.00  0.00    +0.000 C 
ATOM     14  O   UNL     1       7.949   4.368  17.416  0.00  0.00    +0.000 OA
BRANCH  13  15
ATOM     15  N   UNL     1       7.526   5.512  15.444  0.00  0.00    +0.000 NA
ATOM     16  C   UNL     1       7.143   4.826  14.424  0.00  0.00    +0.000 C 
ATOM     17  N   UNL     1       6.473   3.652  14.380  0.00  0.00    +0.000 N 
ATOM     18  N   UNL     1       7.345   5.318  13.182  0.00  0.00    +0.000 N 
ATOM     19  H   UNL     1       6.422   3.170  15.279  0.00  0.00    +0.000 HD
ATOM     20  H   UNL     1       6.659   3.030  13.609  0.00  0.00    +0.000 HD
ATOM     21  H   UNL     1       7.961   6.122  13.150  0.00  0.00    +0.000 HD
ATOM     22  H   UNL     1       7.445   4.676  12.411  0.00  0.00    +0.000 HD
ENDBRANCH  13  15
ENDBRANCH   4  13
TORSDOF 3
ENDMDL
MODEL 3
REMARK VINA RESULT:      -7.9      1.702      2.315
REMARK  Name = 
REMARK  4 active torsions:
REMARK  status: ('A' for Active; 'I' for Inactive)
REMARK    1  A    between atoms: C_1  and  C_2
REMARK    2  A    between atoms: C_6  and  C_7
REMARK    3  A    between atoms: C_10  and  C_11
REMARK    4  A    between atoms: C_11  and  N_13
REMARK                            x       y       z     vdW  Elec       q    Type
REMARK                         _______ _______ _______ _____ _____    ______ ____
ROOT
ATOM      1  C   UNL     1       5.039   4.389  17.842  0.00  0.00    +0.000 A 
ATOM      2  C   UNL     1       6.238   4.791  18.394  0.00  0.00    +0.000 A 
ATOM      3  C   UNL     1       7.131   4.988  17.314  0.00  0.00    +0.000 A 
ATOM      4  C   UNL     1       6.454   4.649  16.161  0.00  0.00    +0.000 A 
ATOM      5  O   UNL     1       5.170   4.278  16.486  0.00  0.00    +0.000 OA
ENDROOT
BRANCH   1  11
ATOM      6  C   UNL     1       2.211   2.850  21.665  0.00  0.00    +0.000 C 
ATOM      7  C   UNL     1       2.323   3.334  20.249  0.00  0.00    +0.000 A 
ATOM      8  C   UNL     1       1.198   3.403  19.421  0.00  0.00    +0.000 A 
ATOM      9  C   UNL     1       1.323   3.834  18.100  0.00  0.00    +0.000 A 
ATOM     10  C   UNL     1       2.576   4.180  17.592  0.00  0.00    +0.000 A 
ATOM     11  C   UNL     1       3.720   4.112  18.399  0.00  0.00    +0.000 A 
ATOM     12  C   UNL     1       3.576   3.701  19.734  0.00  0.00    +0.000 A 
ENDBRANCH   1  11
BRANCH   4  13
ATOM     13  C   UNL     1       6.880   4.687  14.774  0.00  0.00    +0.000 C 
ATOM     14  O   UNL     1       7.724   5.482  14.362  0.00  0.00    +0.000 OA
BRANCH  13  15
ATOM     15  N   UNL     1       6.264   3.712  14.027  0.00  0.00    +0.000 NA
ATOM     16  C   UNL     1       6.488   3.637  12.761  0.00  0.00    +0.000 C 
ATOM     17  N   UNL     1       7.260   4.423  11.976  0.00  0.00    +0.000 N 
ATOM     18  N   UNL     1       5.964   2.610  12.056  0.00  0.00    +0.000 N 
ATOM     19  H   UNL     1       7.560   5.289  12.426  0.00  0.00    +0.000 HD
ATOM     20  H   UNL     1       6.979   4.554  11.016  0.00  0.00    +0.000 HD
ATOM     21  H   UNL     1       5.270   2.072  12.562  0.00  0.00    +0.000 HD
ATOM     22  H   UNL     1       5.769   2.738  11.075  0.00  0.00    +0.000 HD
ENDBRANCH  13  15
ENDBRANCH   4  13
TORSDOF 3
ENDMDL
MODEL 4
REMARK VINA RESULT:      -7.9      1.374      2.040
REMARK  Name = 
REMARK  4 active torsions:
REMARK  status: ('A' for Active; 'I' for Inactive)
REMARK    1  A    between atoms: C_1  and  C_2
REMARK    2  A    between atoms: C_6  and  C_7
REMARK    3  A    between atoms: C_10  and  C_11
REMARK    4  A    between atoms: C_11  and  N_13
REMARK                            x       y       z     vdW  Elec       q    Type
REMARK                         _______ _______ _______ _____ _____    ______ ____
ROOT
ATOM      1  C   UNL     1       3.999   5.174  17.486  0.00  0.00    +0.000 A 
ATOM      2  C   UNL     1       4.329   6.512  17.418  0.00  0.00    +0.000 A 
ATOM      3  C   UNL     1       5.348   6.625  16.443  0.00  0.00    +0.000 A 
ATOM      4  C   UNL     1       5.630   5.348  16.000  0.00  0.00    +0.000 A 
ATOM      5  O   UNL     1       4.803   4.458  16.644  0.00  0.00    +0.000 OA
ENDROOT
BRANCH   1  11
ATOM      6  C   UNL     1       2.512   2.908  21.685  0.00  0.00    +0.000 C 
ATOM      7  C   UNL     1       2.253   3.288  20.257  0.00  0.00    +0.000 A 
ATOM      8  C   UNL     1       1.115   2.831  19.585  0.00  0.00    +0.000 A 
ATOM      9  C   UNL     1       0.901   3.176  18.250  0.00  0.00    +0.000 A 
ATOM     10  C   UNL     1       1.833   3.963  17.573  0.00  0.00    +0.000 A 
ATOM     11  C   UNL     1       2.985   4.427  18.220  0.00  0.00    +0.000 A 
ATOM     12  C   UNL     1       3.175   4.094  19.571  0.00  0.00    +0.000 A 
ENDBRANCH   1  11
BRANCH   4  13
ATOM     13  C   UNL     1       6.566   4.888  14.993  0.00  0.00    +0.000 C 
ATOM     14  O   UNL     1       7.703   5.347  14.884  0.00  0.00    +0.000 OA
BRANCH  13  15
ATOM     15  N   UNL     1       6.038   3.870  14.236  0.00  0.00    +0.000 NA
ATOM     16  C   UNL     1       6.387   3.738  13.004  0.00  0.00    +0.000 C 
ATOM     17  N   UNL     1       7.223   4.498  12.261  0.00  0.00    +0.000 N 
ATOM     18  N   UNL     1       5.946   2.671  12.301  0.00  0.00    +0.000 N 
ATOM     19  H   UNL     1       7.469   5.389  12.696  0.00  0.00    +0.000 HD
ATOM     20  H   UNL     1       7.038   4.579  11.273  0.00  0.00    +0.000 HD
ATOM     21  H   UNL     1       5.211   2.147  12.761  0.00  0.00    +0.000 HD
ATOM     22  H   UNL     1       5.848   2.750  11.301  0.00  0.00    +0.000 HD
ENDBRANCH  13  15
ENDBRANCH   4  13
TORSDOF 3
ENDMDL
MODEL 5
REMARK VINA RESULT:      -7.9      1.410      2.282
REMARK  Name = 
REMARK  4 active torsions:
REMARK  status: ('A' for Active; 'I' for Inactive)
REMARK    1  A    between atoms: C_1  and  C_2
REMARK    2  A    between atoms: C_6  and  C_7
REMARK    3  A    between atoms: C_10  and  C_11
REMARK    4  A    between atoms: C_11  and  N_13
REMARK                            x       y       z     vdW  Elec       q    Type
REMARK                         _______ _______ _______ _____ _____    ______ ____
ROOT
ATOM      1  C   UNL     1       2.898   5.758  18.307  0.00  0.00    +0.000 A 
ATOM      2  C   UNL     1       2.613   7.105  18.229  0.00  0.00    +0.000 A 
ATOM      3  C   UNL     1       3.687   7.703  17.528  0.00  0.00    +0.000 A 
ATOM      4  C   UNL     1       4.599   6.704  17.256  0.00  0.00    +0.000 A 
ATOM      5  O   UNL     1       4.116   5.511  17.737  0.00  0.00    +0.000 OA
ENDROOT
BRANCH   1  11
ATOM      6  C   UNL     1       1.703   2.766  22.127  0.00  0.00    +0.000 C 
ATOM      7  C   UNL     1       1.594   3.114  20.672  0.00  0.00    +0.000 A 
ATOM      8  C   UNL     1       0.908   2.282  19.782  0.00  0.00    +0.000 A 
ATOM      9  C   UNL     1       0.836   2.609  18.428  0.00  0.00    +0.000 A 
ATOM     10  C   UNL     1       1.466   3.759  17.951  0.00  0.00    +0.000 A 
ATOM     11  C   UNL     1       2.167   4.605  18.821  0.00  0.00    +0.000 A 
ATOM     12  C   UNL     1       2.210   4.278  20.185  0.00  0.00    +0.000 A 
ENDBRANCH   1  11
BRANCH   4  13
ATOM     13  C   UNL     1       5.861   6.753  16.541  0.00  0.00    +0.000 C 
ATOM     14  O   UNL     1       6.819   7.420  16.930  0.00  0.00    +0.000 OA
BRANCH  13  15
ATOM     15  N   UNL     1       5.849   5.939  15.434  0.00  0.00    +0.000 NA
ATOM     16  C   UNL     1       6.690   4.968  15.342  0.00  0.00    +0.000 C 
ATOM     17  N   UNL     1       7.673   4.599  16.195  0.00  0.00    +0.000 N 
ATOM     18  N   UNL     1       6.599   4.108  14.303  0.00  0.00    +0.000 N 
ATOM     19  H   UNL     1       7.877   5.291  16.917  0.00  0.00    +0.000 HD
ATOM     20  H   UNL     1       8.503   4.178  15.806  0.00  0.00    +0.000 HD
ATOM     21  H   UNL     1       5.974   4.415  13.566  0.00  0.00    +0.000 HD
ATOM     22  H   UNL     1       7.429   3.634  13.985  0.00  0.00    +0.000 HD
ENDBRANCH  13  15
ENDBRANCH   4  13
TORSDOF 3
ENDMDL
MODEL 6
REMARK VINA RESULT:      -7.8      0.931      1.239
REMARK  Name = 
REMARK  4 active torsions:
REMARK  status: ('A' for Active; 'I' for Inactive)
REMARK    1  A    between atoms: C_1  and  C_2
REMARK    2  A    between atoms: C_6  and  C_7
REMARK    3  A    between atoms: C_10  and  C_11
REMARK    4  A    between atoms: C_11  and  N_13
REMARK                            x       y       z     vdW  Elec       q    Type
REMARK                         _______ _______ _______ _____ _____    ______ ____
ROOT
ATOM      1  C   UNL     1       3.993   5.571  17.578  0.00  0.00    +0.000 A 
ATOM      2  C   UNL     1       4.211   6.813  17.017  0.00  0.00    +0.000 A 
ATOM      3  C   UNL     1       5.230   6.644  16.051  0.00  0.00    +0.000 A 
ATOM      4  C   UNL     1       5.623   5.322  16.102  0.00  0.00    +0.000 A 
ATOM      5  O   UNL     1       4.865   4.664  17.042  0.00  0.00    +0.000 OA
ENDROOT
BRANCH   1  11
ATOM      6  C   UNL     1       0.581   2.167  18.899  0.00  0.00    +0.000 C 
ATOM      7  C   UNL     1       1.342   3.424  19.204  0.00  0.00    +0.000 A 
ATOM      8  C   UNL     1       1.058   4.179  20.346  0.00  0.00    +0.000 A 
ATOM      9  C   UNL     1       1.760   5.357  20.602  0.00  0.00    +0.000 A 
ATOM     10  C   UNL     1       2.736   5.798  19.708  0.00  0.00    +0.000 A 
ATOM     11  C   UNL     1       3.035   5.064  18.553  0.00  0.00    +0.000 A 
ATOM     12  C   UNL     1       2.339   3.867  18.321  0.00  0.00    +0.000 A 
ENDBRANCH   1  11
BRANCH   4  13
ATOM     13  C   UNL     1       6.609   4.603  15.316  0.00  0.00    +0.000 C 
ATOM     14  O   UNL     1       7.819   4.711  15.510  0.00  0.00    +0.000 OA
BRANCH  13  15
ATOM     15  N   UNL     1       6.016   3.778  14.391  0.00  0.00    +0.000 NA
ATOM     16  C   UNL     1       6.396   3.814  13.161  0.00  0.00    +0.000 C 
ATOM     17  N   UNL     1       7.328   4.599  12.573  0.00  0.00    +0.000 N 
ATOM     18  N   UNL     1       5.884   2.924  12.283  0.00  0.00    +0.000 N 
ATOM     19  H   UNL     1       7.639   5.379  13.154  0.00  0.00    +0.000 HD
ATOM     20  H   UNL     1       7.187   4.857  11.608  0.00  0.00    +0.000 HD
ATOM     21  H   UNL     1       5.087   2.407  12.635  0.00  0.00    +0.000 HD
ATOM     22  H   UNL     1       5.831   3.173  11.308  0.00  0.00    +0.000 HD
ENDBRANCH  13  15
ENDBRANCH   4  13
TORSDOF 3
ENDMDL
MODEL 7
REMARK VINA RESULT:      -7.7      2.214      3.188
REMARK  Name = 
REMARK  4 active torsions:
REMARK  status: ('A' for Active; 'I' for Inactive)
REMARK    1  A    between atoms: C_1  and  C_2
REMARK    2  A    between atoms: C_6  and  C_7
REMARK    3  A    between atoms: C_10  and  C_11
REMARK    4  A    between atoms: C_11  and  N_13
REMARK                            x       y       z     vdW  Elec       q    Type
REMARK                         _______ _______ _______ _____ _____    ______ ____
ROOT
ATOM      1  C   UNL     1       3.560   5.397  18.104  0.00  0.00    +0.000 A 
ATOM      2  C   UNL     1       3.525   6.651  17.530  0.00  0.00    +0.000 A 
ATOM      3  C   UNL     1       4.837   6.923  17.078  0.00  0.00    +0.000 A 
ATOM      4  C   UNL     1       5.622   5.848  17.442  0.00  0.00    +0.000 A 
ATOM      5  O   UNL     1       4.838   4.913  18.075  0.00  0.00    +0.000 OA
ENDROOT
BRANCH   1  11
ATOM      6  C   UNL     1       1.789   2.793  21.984  0.00  0.00    +0.000 C 
ATOM      7  C   UNL     1       1.674   3.221  20.551  0.00  0.00    +0.000 A 
ATOM      8  C   UNL     1       0.677   2.697  19.721  0.00  0.00    +0.000 A 
ATOM      9  C   UNL     1       0.598   3.089  18.385  0.00  0.00    +0.000 A 
ATOM     10  C   UNL     1       1.527   3.991  17.864  0.00  0.00    +0.000 A 
ATOM     11  C   UNL     1       2.540   4.524  18.672  0.00  0.00    +0.000 A 
ATOM     12  C   UNL     1       2.592   4.141  20.021  0.00  0.00    +0.000 A 
ENDBRANCH   1  11
BRANCH   4  13
ATOM     13  C   UNL     1       7.031   5.591  17.207  0.00  0.00    +0.000 C 
ATOM     14  O   UNL     1       7.599   5.911  16.164  0.00  0.00    +0.000 OA
BRANCH  13  15
ATOM     15  N   UNL     1       7.628   5.005  18.297  0.00  0.00    +0.000 NA
ATOM     16  C   UNL     1       8.226   5.735  19.172  0.00  0.00    +0.000 C 
ATOM     17  N   UNL     1       8.407   7.076  19.194  0.00  0.00    +0.000 N 
ATOM     18  N   UNL     1       8.714   5.160  20.294  0.00  0.00    +0.000 N 
ATOM     19  H   UNL     1       8.187   7.538  18.311  0.00  0.00    +0.000 HD
ATOM     20  H   UNL     1       9.244   7.433  19.628  0.00  0.00    +0.000 HD
ATOM     21  H   UNL     1       8.730   4.147  20.266  0.00  0.00    +0.000 HD
ATOM     22  H   UNL     1       9.502   5.584  20.759  0.00  0.00    +0.000 HD
ENDBRANCH  13  15
ENDBRANCH   4  13
TORSDOF 3
ENDMDL
MODEL 8
REMARK VINA RESULT:      -7.7      1.158      1.246
REMARK  Name = 
REMARK  4 active torsions:
REMARK  status: ('A' for Active; 'I' for Inactive)
REMARK    1  A    between atoms: C_1  and  C_2
REMARK    2  A    between atoms: C_6  and  C_7
REMARK    3  A    between atoms: C_10  and  C_11
REMARK    4  A    between atoms: C_11  and  N_13
REMARK                            x       y       z     vdW  Elec       q    Type
REMARK                         _______ _______ _______ _____ _____    ______ ____
ROOT
ATOM      1  C   UNL     1       4.018   5.557  17.508  0.00  0.00    +0.000 A 
ATOM      2  C   UNL     1       4.383   6.824  17.102  0.00  0.00    +0.000 A 
ATOM      3  C   UNL     1       5.292   6.657  16.031  0.00  0.00    +0.000 A 
ATOM      4  C   UNL     1       5.480   5.300  15.866  0.00  0.00    +0.000 A 
ATOM      5  O   UNL     1       4.700   4.625  16.776  0.00  0.00    +0.000 OA
ENDROOT
BRANCH   1  11
ATOM      6  C   UNL     1       0.587   2.179  18.845  0.00  0.00    +0.000 C 
ATOM      7  C   UNL     1       1.365   3.425  19.150  0.00  0.00    +0.000 A 
ATOM      8  C   UNL     1       1.102   4.175  20.301  0.00  0.00    +0.000 A 
ATOM      9  C   UNL     1       1.820   5.343  20.557  0.00  0.00    +0.000 A 
ATOM     10  C   UNL     1       2.790   5.781  19.655  0.00  0.00    +0.000 A 
ATOM     11  C   UNL     1       3.067   5.052  18.491  0.00  0.00    +0.000 A 
ATOM     12  C   UNL     1       2.355   3.865  18.258  0.00  0.00    +0.000 A 
ENDBRANCH   1  11
BRANCH   4  13
ATOM     13  C   UNL     1       6.284   4.572  14.902  0.00  0.00    +0.000 C 
ATOM     14  O   UNL     1       5.939   3.489  14.432  0.00  0.00    +0.000 OA
BRANCH  13  15
ATOM     15  N   UNL     1       7.423   5.265  14.567  0.00  0.00    +0.000 NA
ATOM     16  C   UNL     1       7.842   5.259  13.349  0.00  0.00    +0.000 C 
ATOM     17  N   UNL     1       7.336   4.622  12.269  0.00  0.00    +0.000 N 
ATOM     18  N   UNL     1       8.899   6.030  13.009  0.00  0.00    +0.000 N 
ATOM     19  H   UNL     1       6.631   3.919  12.495  0.00  0.00    +0.000 HD
ATOM     20  H   UNL     1       7.979   4.320  11.554  0.00  0.00    +0.000 HD
ATOM     21  H   UNL     1       9.400   6.419  13.800  0.00  0.00    +0.000 HD
ATOM     22  H   UNL     1       9.480   5.750  12.234  0.00  0.00    +0.000 HD
ENDBRANCH  13  15
ENDBRANCH   4  13
TORSDOF 3
ENDMDL
MODEL 9
REMARK VINA RESULT:      -7.7      3.266      6.374
REMARK  Name = 
REMARK  4 active torsions:
REMARK  status: ('A' for Active; 'I' for Inactive)
REMARK    1  A    between atoms: C_1  and  C_2
REMARK    2  A    between atoms: C_6  and  C_7
REMARK    3  A    between atoms: C_10  and  C_11
REMARK    4  A    between atoms: C_11  and  N_13
REMARK                            x       y       z     vdW  Elec       q    Type
REMARK                         _______ _______ _______ _____ _____    ______ ____
ROOT
ATOM      1  C   UNL     1       5.344   5.146  15.660  0.00  0.00    +0.000 A 
ATOM      2  C   UNL     1       5.432   6.256  16.475  0.00  0.00    +0.000 A 
ATOM      3  C   UNL     1       4.677   5.964  17.635  0.00  0.00    +0.000 A 
ATOM      4  C   UNL     1       4.121   4.713  17.454  0.00  0.00    +0.000 A 
ATOM      5  O   UNL     1       4.529   4.213  16.240  0.00  0.00    +0.000 OA
ENDROOT
BRANCH   1  11
ATOM      6  C   UNL     1       5.359   2.320  11.538  0.00  0.00    +0.000 C 
ATOM      7  C   UNL     1       5.993   3.392  12.377  0.00  0.00    +0.000 A 
ATOM      8  C   UNL     1       7.219   3.958  12.015  0.00  0.00    +0.000 A 
ATOM      9  C   UNL     1       7.804   4.937  12.818  0.00  0.00    +0.000 A 
ATOM     10  C   UNL     1       7.178   5.342  13.997  0.00  0.00    +0.000 A 
ATOM     11  C   UNL     1       5.953   4.785  14.386  0.00  0.00    +0.000 A 
ATOM     12  C   UNL     1       5.362   3.819  13.555  0.00  0.00    +0.000 A 
ENDBRANCH   1  11
BRANCH   4  13
ATOM     13  C   UNL     1       3.284   3.920  18.334  0.00  0.00    +0.000 C 
ATOM     14  O   UNL     1       2.095   3.707  18.105  0.00  0.00    +0.000 OA
BRANCH  13  15
ATOM     15  N   UNL     1       3.997   3.420  19.397  0.00  0.00    +0.000 NA
ATOM     16  C   UNL     1       4.317   2.172  19.425  0.00  0.00    +0.000 C 
ATOM     17  N   UNL     1       4.030   1.192  18.540  0.00  0.00    +0.000 N 
ATOM     18  N   UNL     1       5.110   1.714  20.419  0.00  0.00    +0.000 N 
ATOM     19  H   UNL     1       3.320   1.449  17.852  0.00  0.00    +0.000 HD
ATOM     20  H   UNL     1       3.915   0.254  18.893  0.00  0.00    +0.000 HD
ATOM     21  H   UNL     1       5.241   2.371  21.180  0.00  0.00    +0.000 HD
ATOM     22  H   UNL     1       5.036   0.749  20.699  0.00  0.00    +0.000 HD
ENDBRANCH  13  15
ENDBRANCH   4  13
TORSDOF 3
ENDMDL
