MODEL 1
REMARK VINA RESULT:      -7.7      0.000      0.000
REMARK  Name = 
REMARK  4 active torsions:
REMARK  status: ('A' for Active; 'I' for Inactive)
REMARK    1  A    between atoms: C_1  and  N_2
REMARK    2  A    between atoms: N_5  and  C_6
REMARK    3  A    between atoms: C_10  and  N_11
REMARK    4  A    between atoms: N_23  and  C_24
REMARK                            x       y       z     vdW  Elec       q    Type
REMARK                         _______ _______ _______ _____ _____    ______ ____
ROOT
ATOM      1  N   UNL     1       2.316   6.649  18.256  0.00  0.00    +0.000 N 
ATOM      2  C   UNL     1       3.378   5.974  18.824  0.00  0.00    +0.000 C 
ATOM      3  O   UNL     1       4.128   6.464  19.666  0.00  0.00    +0.000 OA
ATOM      4  N   UNL     1       3.581   4.663  18.391  0.00  0.00    +0.000 N 
ATOM      5  C   UNL     1       4.589   3.876  19.121  0.00  0.00    +0.000 C 
ATOM      6  C   UNL     1       4.020   2.586  19.771  0.00  0.00    +0.000 C 
ATOM      7  C   UNL     1       4.018   1.426  18.767  0.00  0.00    +0.000 C 
ATOM      8  C   UNL     1       2.767   1.430  17.887  0.00  0.00    +0.000 C 
ATOM      9  C   UNL     1       2.003   2.762  17.951  0.00  0.00    +0.000 C 
ATOM     10  C   UNL     1       2.815   3.934  17.380  0.00  0.00    +0.000 C 
ATOM     11  C   UNL     1       1.611   2.991  19.405  0.00  0.00    +0.000 C 
ATOM     12  O   UNL     1       0.478   3.334  19.720  0.00  0.00    +0.000 OA
ATOM     13  N   UNL     1       2.662   2.780  20.296  0.00  0.00    +0.000 N 
ATOM     14  C   UNL     1       2.469   2.883  21.729  0.00  0.00    +0.000 C 
ATOM     15  H   UNL     1       1.585   6.090  17.851  0.00  0.00    +0.000 HD
ENDROOT
BRANCH   1  20
ATOM     16  C   UNL     1       0.917   9.681  19.934  0.00  0.00    +0.000 A 
ATOM     17  C   UNL     1       1.327  10.676  19.039  0.00  0.00    +0.000 A 
ATOM     18  C   UNL     1       2.038  10.358  17.884  0.00  0.00    +0.000 A 
ATOM     19  C   UNL     1       2.358   9.034  17.602  0.00  0.00    +0.000 A 
ATOM     20  C   UNL     1       1.987   8.014  18.474  0.00  0.00    +0.000 A 
ATOM     21  C   UNL     1       1.242   8.344  19.624  0.00  0.00    +0.000 A 
BRANCH  16  26
ATOM     22  C   UNL     1      -2.156  11.923  23.144  0.00  0.00    +0.000 C 
ATOM     23  N   UNL     1      -1.096  11.094  22.629  0.00  0.00    +0.000 N 
ATOM     24  C   UNL     1      -0.579   9.947  23.320  0.00  0.00    +0.000 C 
ATOM     25  C   UNL     1       0.580   9.522  22.431  0.00  0.00    +0.000 C 
ATOM     26  N   UNL     1       0.212  10.016  21.122  0.00  0.00    +0.000 N 
ATOM     27  C   UNL     1      -0.777  11.024  21.263  0.00  0.00    +0.000 C 
ATOM     28  O   UNL     1      -1.289  11.737  20.413  0.00  0.00    +0.000 OA
ENDBRANCH  16  26
ENDBRANCH   1  20
TORSDOF 2
ENDMDL
MODEL 2
REMARK VINA RESULT:      -7.7      2.543      3.283
REMARK  Name = 
REMARK  4 active torsions:
REMARK  status: ('A' for Active; 'I' for Inactive)
REMARK    1  A    between atoms: C_1  and  N_2
REMARK    2  A    between atoms: N_5  and  C_6
REMARK    3  A    between atoms: C_10  and  N_11
REMARK    4  A    between atoms: N_23  and  C_24
REMARK                            x       y       z     vdW  Elec       q    Type
REMARK                         _______ _______ _______ _____ _____    ______ ____
ROOT
ATOM      1  N   UNL     1       2.007   8.050  18.172  0.00  0.00    +0.000 N 
ATOM      2  C   UNL     1       2.468   7.297  19.232  0.00  0.00    +0.000 C 
ATOM      3  O   UNL     1       2.174   7.517  20.406  0.00  0.00    +0.000 OA
ATOM      4  N   UNL     1       3.315   6.233  18.916  0.00  0.00    +0.000 N 
ATOM      5  C   UNL     1       3.661   5.316  20.013  0.00  0.00    +0.000 C 
ATOM      6  C   UNL     1       3.243   3.844  19.749  0.00  0.00    +0.000 C 
ATOM      7  C   UNL     1       4.327   3.105  18.951  0.00  0.00    +0.000 C 
ATOM      8  C   UNL     1       4.182   3.326  17.445  0.00  0.00    +0.000 C 
ATOM      9  C   UNL     1       3.247   4.497  17.106  0.00  0.00    +0.000 C 
ATOM     10  C   UNL     1       3.795   5.848  17.588  0.00  0.00    +0.000 C 
ATOM     11  C   UNL     1       1.886   4.181  17.713  0.00  0.00    +0.000 C 
ATOM     12  O   UNL     1       0.848   4.313  17.073  0.00  0.00    +0.000 OA
ATOM     13  N   UNL     1       1.962   3.749  19.036  0.00  0.00    +0.000 N 
ATOM     14  C   UNL     1       0.779   3.336  19.765  0.00  0.00    +0.000 C 
ATOM     15  H   UNL     1       2.019   7.616  17.265  0.00  0.00    +0.000 HD
ENDROOT
BRANCH   1  20
ATOM     16  C   UNL     1       1.142  11.634  18.784  0.00  0.00    +0.000 A 
ATOM     17  C   UNL     1      -0.217  11.625  18.449  0.00  0.00    +0.000 A 
ATOM     18  C   UNL     1      -0.853  10.454  18.045  0.00  0.00    +0.000 A 
ATOM     19  C   UNL     1      -0.138   9.263  17.965  0.00  0.00    +0.000 A 
ATOM     20  C   UNL     1       1.220   9.229  18.270  0.00  0.00    +0.000 A 
ATOM     21  C   UNL     1       1.846  10.415  18.705  0.00  0.00    +0.000 A 
BRANCH  16  26
ATOM     22  C   UNL     1       2.703  15.512  21.486  0.00  0.00    +0.000 C 
ATOM     23  N   UNL     1       2.420  14.672  20.350  0.00  0.00    +0.000 N 
ATOM     24  C   UNL     1       3.137  14.747  19.108  0.00  0.00    +0.000 C 
ATOM     25  C   UNL     1       2.377  13.766  18.230  0.00  0.00    +0.000 C 
ATOM     26  N   UNL     1       1.789  12.838  19.172  0.00  0.00    +0.000 N 
ATOM     27  C   UNL     1       1.768  13.433  20.461  0.00  0.00    +0.000 C 
ATOM     28  O   UNL     1       1.288  13.013  21.504  0.00  0.00    +0.000 OA
ENDBRANCH  16  26
ENDBRANCH   1  20
TORSDOF 2
ENDMDL
MODEL 3
REMARK VINA RESULT:      -7.5      2.872      3.461
REMARK  Name = 
REMARK  4 active torsions:
REMARK  status: ('A' for Active; 'I' for Inactive)
REMARK    1  A    between atoms: C_1  and  N_2
REMARK    2  A    between atoms: N_5  and  C_6
REMARK    3  A    between atoms: C_10  and  N_11
REMARK    4  A    between atoms: N_23  and  C_24
REMARK                            x       y       z     vdW  Elec       q    Type
REMARK                         _______ _______ _______ _____ _____    ______ ____
ROOT
ATOM      1  N   UNL     1       2.120   8.071  18.294  0.00  0.00    +0.000 N 
ATOM      2  C   UNL     1       2.521   7.261  19.337  0.00  0.00    +0.000 C 
ATOM      3  O   UNL     1       2.225   7.462  20.514  0.00  0.00    +0.000 OA
ATOM      4  N   UNL     1       3.308   6.159  18.997  0.00  0.00    +0.000 N 
ATOM      5  C   UNL     1       3.586   5.190  20.070  0.00  0.00    +0.000 C 
ATOM      6  C   UNL     1       3.086   3.754  19.756  0.00  0.00    +0.000 C 
ATOM      7  C   UNL     1       4.135   2.977  18.949  0.00  0.00    +0.000 C 
ATOM      8  C   UNL     1       4.024   3.251  17.449  0.00  0.00    +0.000 C 
ATOM      9  C   UNL     1       3.163   4.484  17.134  0.00  0.00    +0.000 C 
ATOM     10  C   UNL     1       3.783   5.786  17.665  0.00  0.00    +0.000 C 
ATOM     11  C   UNL     1       1.778   4.231  17.716  0.00  0.00    +0.000 C 
ATOM     12  O   UNL     1       0.759   4.443  17.069  0.00  0.00    +0.000 OA
ATOM     13  N   UNL     1       1.811   3.756  19.026  0.00  0.00    +0.000 N 
ATOM     14  C   UNL     1       0.597   3.392  19.728  0.00  0.00    +0.000 C 
ATOM     15  H   UNL     1       2.118   7.664  17.375  0.00  0.00    +0.000 HD
ENDROOT
BRANCH   1  20
ATOM     16  C   UNL     1      -0.670  10.535  17.950  0.00  0.00    +0.000 A 
ATOM     17  C   UNL     1      -0.132  11.622  18.648  0.00  0.00    +0.000 A 
ATOM     18  C   UNL     1       1.141  11.561  19.210  0.00  0.00    +0.000 A 
ATOM     19  C   UNL     1       1.903  10.404  19.088  0.00  0.00    +0.000 A 
ATOM     20  C   UNL     1       1.401   9.290  18.419  0.00  0.00    +0.000 A 
ATOM     21  C   UNL     1       0.123   9.375  17.829  0.00  0.00    +0.000 A 
BRANCH  16  26
ATOM     22  C   UNL     1      -5.535  11.426  17.395  0.00  0.00    +0.000 C 
ATOM     23  N   UNL     1      -4.217  10.891  17.171  0.00  0.00    +0.000 N 
ATOM     24  C   UNL     1      -3.758  10.417  15.895  0.00  0.00    +0.000 C 
ATOM     25  C   UNL     1      -2.385   9.854  16.227  0.00  0.00    +0.000 C 
ATOM     26  N   UNL     1      -1.978  10.597  17.400  0.00  0.00    +0.000 N 
ATOM     27  C   UNL     1      -3.124  11.181  18.003  0.00  0.00    +0.000 C 
ATOM     28  O   UNL     1      -3.216  11.815  19.044  0.00  0.00    +0.000 OA
ENDBRANCH  16  26
ENDBRANCH   1  20
TORSDOF 2
ENDMDL
MODEL 4
REMARK VINA RESULT:      -7.4      2.610      3.280
REMARK  Name = 
REMARK  4 active torsions:
REMARK  status: ('A' for Active; 'I' for Inactive)
REMARK    1  A    between atoms: C_1  and  N_2
REMARK    2  A    between atoms: N_5  and  C_6
REMARK    3  A    between atoms: C_10  and  N_11
REMARK    4  A    between atoms: N_23  and  C_24
REMARK                            x       y       z     vdW  Elec       q    Type
REMARK                         _______ _______ _______ _____ _____    ______ ____
ROOT
ATOM      1  N   UNL     1       1.870   8.125  18.191  0.00  0.00    +0.000 N 
ATOM      2  C   UNL     1       2.356   7.394  19.256  0.00  0.00    +0.000 C 
ATOM      3  O   UNL     1       2.042   7.598  20.427  0.00  0.00    +0.000 OA
ATOM      4  N   UNL     1       3.256   6.372  18.946  0.00  0.00    +0.000 N 
ATOM      5  C   UNL     1       3.636   5.471  20.047  0.00  0.00    +0.000 C 
ATOM      6  C   UNL     1       3.292   3.981  19.778  0.00  0.00    +0.000 C 
ATOM      7  C   UNL     1       4.417   3.296  18.991  0.00  0.00    +0.000 C 
ATOM      8  C   UNL     1       4.275   3.511  17.483  0.00  0.00    +0.000 C 
ATOM      9  C   UNL     1       3.288   4.636  17.136  0.00  0.00    +0.000 C 
ATOM     10  C   UNL     1       3.766   6.011  17.623  0.00  0.00    +0.000 C 
ATOM     11  C   UNL     1       1.938   4.255  17.730  0.00  0.00    +0.000 C 
ATOM     12  O   UNL     1       0.901   4.337  17.082  0.00  0.00    +0.000 OA
ATOM     13  N   UNL     1       2.023   3.826  19.054  0.00  0.00    +0.000 N 
ATOM     14  C   UNL     1       0.855   3.356  19.772  0.00  0.00    +0.000 C 
ATOM     15  H   UNL     1       1.911   7.692  17.285  0.00  0.00    +0.000 HD
ENDROOT
BRANCH   1  20
ATOM     16  C   UNL     1       0.760  11.593  19.032  0.00  0.00    +0.000 A 
ATOM     17  C   UNL     1      -0.525  11.588  18.476  0.00  0.00    +0.000 A 
ATOM     18  C   UNL     1      -1.034  10.453  17.848  0.00  0.00    +0.000 A 
ATOM     19  C   UNL     1      -0.265   9.298  17.761  0.00  0.00    +0.000 A 
ATOM     20  C   UNL     1       1.026   9.264  18.283  0.00  0.00    +0.000 A 
ATOM     21  C   UNL     1       1.520  10.409  18.941  0.00  0.00    +0.000 A 
BRANCH  16  26
ATOM     22  C   UNL     1       3.544  15.611  19.972  0.00  0.00    +0.000 C 
ATOM     23  N   UNL     1       2.609  14.531  20.158  0.00  0.00    +0.000 N 
ATOM     24  C   UNL     1       1.545  14.558  21.122  0.00  0.00    +0.000 C 
ATOM     25  C   UNL     1       0.955  13.161  21.001  0.00  0.00    +0.000 C 
ATOM     26  N   UNL     1       1.281  12.762  19.649  0.00  0.00    +0.000 N 
ATOM     27  C   UNL     1       2.341  13.575  19.165  0.00  0.00    +0.000 C 
ATOM     28  O   UNL     1       2.952  13.508  18.109  0.00  0.00    +0.000 OA
ENDBRANCH  16  26
ENDBRANCH   1  20
TORSDOF 2
ENDMDL
MODEL 5
REMARK VINA RESULT:      -7.3      1.444      2.493
REMARK  Name = 
REMARK  4 active torsions:
REMARK  status: ('A' for Active; 'I' for Inactive)
REMARK    1  A    between atoms: C_1  and  N_2
REMARK    2  A    between atoms: N_5  and  C_6
REMARK    3  A    between atoms: C_10  and  N_11
REMARK    4  A    between atoms: N_23  and  C_24
REMARK                            x       y       z     vdW  Elec       q    Type
REMARK                         _______ _______ _______ _____ _____    ______ ____
ROOT
ATOM      1  N   UNL     1       2.288   6.675  19.396  0.00  0.00    +0.000 N 
ATOM      2  C   UNL     1       1.968   5.643  18.537  0.00  0.00    +0.000 C 
ATOM      3  O   UNL     1       1.389   5.802  17.463  0.00  0.00    +0.000 OA
ATOM      4  N   UNL     1       2.337   4.360  18.945  0.00  0.00    +0.000 N 
ATOM      5  C   UNL     1       2.168   3.280  17.959  0.00  0.00    +0.000 C 
ATOM      6  C   UNL     1       3.488   2.540  17.614  0.00  0.00    +0.000 C 
ATOM      7  C   UNL     1       3.760   1.414  18.621  0.00  0.00    +0.000 C 
ATOM      8  C   UNL     1       4.474   1.924  19.874  0.00  0.00    +0.000 C 
ATOM      9  C   UNL     1       4.424   3.454  20.002  0.00  0.00    +0.000 C 
ATOM     10  C   UNL     1       2.995   3.982  20.196  0.00  0.00    +0.000 C 
ATOM     11  C   UNL     1       5.086   4.036  18.760  0.00  0.00    +0.000 C 
ATOM     12  O   UNL     1       5.917   4.934  18.833  0.00  0.00    +0.000 OA
ATOM     13  N   UNL     1       4.642   3.450  17.575  0.00  0.00    +0.000 N 
ATOM     14  C   UNL     1       5.203   3.822  16.292  0.00  0.00    +0.000 C 
ATOM     15  H   UNL     1       3.028   6.505  20.056  0.00  0.00    +0.000 HD
ENDROOT
BRANCH   1  20
ATOM     16  C   UNL     1       0.812  10.018  20.177  0.00  0.00    +0.000 A 
ATOM     17  C   UNL     1       1.198  10.735  19.038  0.00  0.00    +0.000 A 
ATOM     18  C   UNL     1       1.917  10.127  18.013  0.00  0.00    +0.000 A 
ATOM     19  C   UNL     1       2.270   8.785  18.107  0.00  0.00    +0.000 A 
ATOM     20  C   UNL     1       1.925   8.038  19.230  0.00  0.00    +0.000 A 
ATOM     21  C   UNL     1       1.171   8.656  20.248  0.00  0.00    +0.000 A 
BRANCH  16  26
ATOM     22  C   UNL     1      -1.173  13.503  23.125  0.00  0.00    +0.000 C 
ATOM     23  N   UNL     1      -0.721  12.220  22.651  0.00  0.00    +0.000 N 
ATOM     24  C   UNL     1      -1.258  10.969  23.107  0.00  0.00    +0.000 C 
ATOM     25  C   UNL     1      -0.367   9.954  22.409  0.00  0.00    +0.000 C 
ATOM     26  N   UNL     1       0.098  10.651  21.230  0.00  0.00    +0.000 N 
ATOM     27  C   UNL     1      -0.071  12.049  21.417  0.00  0.00    +0.000 C 
ATOM     28  O   UNL     1       0.265  12.977  20.696  0.00  0.00    +0.000 OA
ENDBRANCH  16  26
ENDBRANCH   1  20
TORSDOF 2
ENDMDL
MODEL 6
REMARK VINA RESULT:      -7.3      2.785      4.046
REMARK  Name = 
REMARK  4 active torsions:
REMARK  status: ('A' for Active; 'I' for Inactive)
REMARK    1  A    between atoms: C_1  and  N_2
REMARK    2  A    between atoms: N_5  and  C_6
REMARK    3  A    between atoms: C_10  and  N_11
REMARK    4  A    between atoms: N_23  and  C_24
REMARK                            x       y       z     vdW  Elec       q    Type
REMARK                         _______ _______ _______ _____ _____    ______ ____
ROOT
ATOM      1  N   UNL     1       2.631   6.952  18.904  0.00  0.00    +0.000 N 
ATOM      2  C   UNL     1       3.417   7.326  17.833  0.00  0.00    +0.000 C 
ATOM      3  O   UNL     1       3.638   8.496  17.521  0.00  0.00    +0.000 OA
ATOM      4  N   UNL     1       3.975   6.290  17.082  0.00  0.00    +0.000 N 
ATOM      5  C   UNL     1       4.959   6.673  16.057  0.00  0.00    +0.000 C 
ATOM      6  C   UNL     1       6.355   6.027  16.262  0.00  0.00    +0.000 C 
ATOM      7  C   UNL     1       6.410   4.634  15.620  0.00  0.00    +0.000 C 
ATOM      8  C   UNL     1       5.867   3.551  16.552  0.00  0.00    +0.000 C 
ATOM      9  C   UNL     1       5.072   4.129  17.733  0.00  0.00    +0.000 C 
ATOM     10  C   UNL     1       3.794   4.852  17.284  0.00  0.00    +0.000 C 
ATOM     11  C   UNL     1       6.010   5.050  18.504  0.00  0.00    +0.000 C 
ATOM     12  O   UNL     1       6.100   5.002  19.725  0.00  0.00    +0.000 OA
ATOM     13  N   UNL     1       6.718   5.925  17.682  0.00  0.00    +0.000 N 
ATOM     14  C   UNL     1       7.709   6.833  18.223  0.00  0.00    +0.000 C 
ATOM     15  H   UNL     1       2.775   6.029  19.274  0.00  0.00    +0.000 HD
ENDROOT
BRANCH   1  20
ATOM     16  C   UNL     1       0.702   9.977  19.954  0.00  0.00    +0.000 A 
ATOM     17  C   UNL     1       0.379   9.624  21.269  0.00  0.00    +0.000 A 
ATOM     18  C   UNL     1       0.805   8.417  21.818  0.00  0.00    +0.000 A 
ATOM     19  C   UNL     1       1.562   7.533  21.058  0.00  0.00    +0.000 A 
ATOM     20  C   UNL     1       1.891   7.832  19.738  0.00  0.00    +0.000 A 
ATOM     21  C   UNL     1       1.479   9.070  19.203  0.00  0.00    +0.000 A 
BRANCH  16  26
ATOM     22  C   UNL     1       0.302  14.805  18.811  0.00  0.00    +0.000 C 
ATOM     23  N   UNL     1      -0.026  13.409  18.950  0.00  0.00    +0.000 N 
ATOM     24  C   UNL     1      -0.979  12.730  18.118  0.00  0.00    +0.000 C 
ATOM     25  C   UNL     1      -1.044  11.349  18.752  0.00  0.00    +0.000 C 
ATOM     26  N   UNL     1       0.244  11.200  19.394  0.00  0.00    +0.000 N 
ATOM     27  C   UNL     1       0.833  12.481  19.563  0.00  0.00    +0.000 C 
ATOM     28  O   UNL     1       1.872  12.792  20.126  0.00  0.00    +0.000 OA
ENDBRANCH  16  26
ENDBRANCH   1  20
TORSDOF 2
ENDMDL
MODEL 7
REMARK VINA RESULT:      -7.2      2.784      8.865
REMARK  Name = 
REMARK  4 active torsions:
REMARK  status: ('A' for Active; 'I' for Inactive)
REMARK    1  A    between atoms: C_1  and  N_2
REMARK    2  A    between atoms: N_5  and  C_6
REMARK    3  A    between atoms: C_10  and  N_11
REMARK    4  A    between atoms: N_23  and  C_24
REMARK                            x       y       z     vdW  Elec       q    Type
REMARK                         _______ _______ _______ _____ _____    ______ ____
ROOT
ATOM      1  N   UNL     1       1.030   9.250  19.718  0.00  0.00    +0.000 N 
ATOM      2  C   UNL     1       0.826  10.119  20.771  0.00  0.00    +0.000 C 
ATOM      3  O   UNL     1       1.203   9.901  21.921  0.00  0.00    +0.000 OA
ATOM      4  N   UNL     1       0.147  11.303  20.475  0.00  0.00    +0.000 N 
ATOM      5  C   UNL     1       0.087  12.314  21.543  0.00  0.00    +0.000 C 
ATOM      6  C   UNL     1       0.722  13.674  21.148  0.00  0.00    +0.000 C 
ATOM      7  C   UNL     1      -0.297  14.560  20.419  0.00  0.00    +0.000 C 
ATOM      8  C   UNL     1      -0.358  14.252  18.922  0.00  0.00    +0.000 C 
ATOM      9  C   UNL     1       0.318  12.920  18.564  0.00  0.00    +0.000 C 
ATOM     10  C   UNL     1      -0.400  11.710  19.181  0.00  0.00    +0.000 C 
ATOM     11  C   UNL     1       1.771  13.012  19.011  0.00  0.00    +0.000 C 
ATOM     12  O   UNL     1       2.693  12.669  18.281  0.00  0.00    +0.000 OA
ATOM     13  N   UNL     1       1.916  13.507  20.307  0.00  0.00    +0.000 N 
ATOM     14  C   UNL     1       3.224  13.732  20.887  0.00  0.00    +0.000 C 
ATOM     15  H   UNL     1       0.995   9.641  18.792  0.00  0.00    +0.000 HD
ENDROOT
BRANCH   1  20
ATOM     16  C   UNL     1       3.289   6.370  18.964  0.00  0.00    +0.000 A 
ATOM     17  C   UNL     1       2.858   5.453  19.930  0.00  0.00    +0.000 A 
ATOM     18  C   UNL     1       1.823   5.764  20.809  0.00  0.00    +0.000 A 
ATOM     19  C   UNL     1       1.198   7.005  20.741  0.00  0.00    +0.000 A 
ATOM     20  C   UNL     1       1.607   7.955  19.809  0.00  0.00    +0.000 A 
ATOM     21  C   UNL     1       2.636   7.618  18.906  0.00  0.00    +0.000 A 
BRANCH  16  26
ATOM     22  C   UNL     1       7.551   4.532  17.166  0.00  0.00    +0.000 C 
ATOM     23  N   UNL     1       6.352   5.322  17.280  0.00  0.00    +0.000 N 
ATOM     24  C   UNL     1       5.666   5.892  16.154  0.00  0.00    +0.000 C 
ATOM     25  C   UNL     1       4.572   6.715  16.817  0.00  0.00    +0.000 C 
ATOM     26  N   UNL     1       4.361   6.054  18.087  0.00  0.00    +0.000 N 
ATOM     27  C   UNL     1       5.491   5.247  18.387  0.00  0.00    +0.000 C 
ATOM     28  O   UNL     1       5.736   4.595  19.391  0.00  0.00    +0.000 OA
ENDBRANCH  16  26
ENDBRANCH   1  20
TORSDOF 2
ENDMDL
MODEL 8
REMARK VINA RESULT:      -7.2      2.671      8.996
REMARK  Name = 
REMARK  4 active torsions:
REMARK  status: ('A' for Active; 'I' for Inactive)
REMARK    1  A    between atoms: C_1  and  N_2
REMARK    2  A    between atoms: N_5  and  C_6
REMARK    3  A    between atoms: C_10  and  N_11
REMARK    4  A    between atoms: N_23  and  C_24
REMARK                            x       y       z     vdW  Elec       q    Type
REMARK                         _______ _______ _______ _____ _____    ______ ____
ROOT
ATOM      1  N   UNL     1       1.634   9.926  19.152  0.00  0.00    +0.000 N 
ATOM      2  C   UNL     1       0.434  10.606  19.102  0.00  0.00    +0.000 C 
ATOM      3  O   UNL     1      -0.647  10.109  19.411  0.00  0.00    +0.000 OA
ATOM      4  N   UNL     1       0.491  11.932  18.668  0.00  0.00    +0.000 N 
ATOM      5  C   UNL     1      -0.748  12.719  18.787  0.00  0.00    +0.000 C 
ATOM      6  C   UNL     1      -0.600  13.981  19.679  0.00  0.00    +0.000 C 
ATOM      7  C   UNL     1      -0.070  15.166  18.862  0.00  0.00    +0.000 C 
ATOM      8  C   UNL     1       1.457  15.160  18.767  0.00  0.00    +0.000 C 
ATOM      9  C   UNL     1       2.070  13.814  19.179  0.00  0.00    +0.000 C 
ATOM     10  C   UNL     1       1.675  12.672  18.231  0.00  0.00    +0.000 C 
ATOM     11  C   UNL     1       1.643  13.540  20.615  0.00  0.00    +0.000 C 
ATOM     12  O   UNL     1       2.443  13.168  21.466  0.00  0.00    +0.000 OA
ATOM     13  N   UNL     1       0.281  13.747  20.831  0.00  0.00    +0.000 N 
ATOM     14  C   UNL     1      -0.304  13.604  22.149  0.00  0.00    +0.000 C 
ATOM     15  H   UNL     1       2.470  10.482  19.208  0.00  0.00    +0.000 HD
ENDROOT
BRANCH   1  20
ATOM     16  C   UNL     1       2.737   6.371  18.816  0.00  0.00    +0.000 A 
ATOM     17  C   UNL     1       2.229   5.837  20.006  0.00  0.00    +0.000 A 
ATOM     18  C   UNL     1       1.514   6.626  20.903  0.00  0.00    +0.000 A 
ATOM     19  C   UNL     1       1.294   7.972  20.629  0.00  0.00    +0.000 A 
ATOM     20  C   UNL     1       1.797   8.551  19.467  0.00  0.00    +0.000 A 
ATOM     21  C   UNL     1       2.495   7.735  18.552  0.00  0.00    +0.000 A 
BRANCH  16  26
ATOM     22  C   UNL     1       6.099   4.900  15.453  0.00  0.00    +0.000 C 
ATOM     23  N   UNL     1       4.936   4.900  16.302  0.00  0.00    +0.000 N 
ATOM     24  C   UNL     1       4.272   3.704  16.741  0.00  0.00    +0.000 C 
ATOM     25  C   UNL     1       3.063   4.252  17.483  0.00  0.00    +0.000 C 
ATOM     26  N   UNL     1       3.486   5.565  17.917  0.00  0.00    +0.000 N 
ATOM     27  C   UNL     1       4.603   5.976  17.141  0.00  0.00    +0.000 C 
ATOM     28  O   UNL     1       5.201   7.042  17.143  0.00  0.00    +0.000 OA
ENDBRANCH  16  26
ENDBRANCH   1  20
TORSDOF 2
ENDMDL
MODEL 9
REMARK VINA RESULT:      -7.2      2.704      8.613
REMARK  Name = 
REMARK  4 active torsions:
REMARK  status: ('A' for Active; 'I' for Inactive)
REMARK    1  A    between atoms: C_1  and  N_2
REMARK    2  A    between atoms: N_5  and  C_6
REMARK    3  A    between atoms: C_10  and  N_11
REMARK    4  A    between atoms: N_23  and  C_24
REMARK                            x       y       z     vdW  Elec       q    Type
REMARK                         _______ _______ _______ _____ _____    ______ ____
ROOT
ATOM      1  N   UNL     1       1.236   8.252  19.674  0.00  0.00    +0.000 N 
ATOM      2  C   UNL     1       0.957   9.063  20.755  0.00  0.00    +0.000 C 
ATOM      3  O   UNL     1       1.447   8.906  21.872  0.00  0.00    +0.000 OA
ATOM      4  N   UNL     1       0.061  10.110  20.530  0.00  0.00    +0.000 N 
ATOM      5  C   UNL     1      -0.099  11.086  21.620  0.00  0.00    +0.000 C 
ATOM      6  C   UNL     1       0.257  12.541  21.210  0.00  0.00    +0.000 C 
ATOM      7  C   UNL     1      -0.950  13.238  20.570  0.00  0.00    +0.000 C 
ATOM      8  C   UNL     1      -1.062  12.935  19.075  0.00  0.00    +0.000 C 
ATOM      9  C   UNL     1      -0.191  11.746  18.645  0.00  0.00    +0.000 C 
ATOM     10  C   UNL     1      -0.639  10.424  19.285  0.00  0.00    +0.000 C 
ATOM     11  C   UNL     1       1.252  12.091  18.994  0.00  0.00    +0.000 C 
ATOM     12  O   UNL     1       2.166  11.921  18.196  0.00  0.00    +0.000 OA
ATOM     13  N   UNL     1       1.399  12.594  20.286  0.00  0.00    +0.000 N 
ATOM     14  C   UNL     1       2.685  13.042  20.780  0.00  0.00    +0.000 C 
ATOM     15  H   UNL     1       1.067   8.637  18.760  0.00  0.00    +0.000 HD
ENDROOT
BRANCH   1  20
ATOM     16  C   UNL     1       3.960   5.860  18.767  0.00  0.00    +0.000 A 
ATOM     17  C   UNL     1       3.716   4.838  19.693  0.00  0.00    +0.000 A 
ATOM     18  C   UNL     1       2.657   4.919  20.593  0.00  0.00    +0.000 A 
ATOM     19  C   UNL     1       1.819   6.030  20.589  0.00  0.00    +0.000 A 
ATOM     20  C   UNL     1       2.036   7.079  19.700  0.00  0.00    +0.000 A 
ATOM     21  C   UNL     1       3.093   6.972  18.773  0.00  0.00    +0.000 A 
BRANCH  16  26
ATOM     22  C   UNL     1       6.894   4.490  14.987  0.00  0.00    +0.000 C 
ATOM     23  N   UNL     1       6.458   5.094  16.220  0.00  0.00    +0.000 N 
ATOM     24  C   UNL     1       7.090   6.240  16.809  0.00  0.00    +0.000 C 
ATOM     25  C   UNL     1       6.346   6.385  18.127  0.00  0.00    +0.000 C 
ATOM     26  N   UNL     1       5.057   5.781  17.867  0.00  0.00    +0.000 N 
ATOM     27  C   UNL     1       5.157   4.942  16.725  0.00  0.00    +0.000 C 
ATOM     28  O   UNL     1       4.321   4.202  16.229  0.00  0.00    +0.000 OA
ENDBRANCH  16  26
ENDBRANCH   1  20
TORSDOF 2
ENDMDL
