MODEL 1
REMARK VINA RESULT:      -7.9      0.000      0.000
REMARK  Name = 
REMARK  9 active torsions:
REMARK  status: ('A' for Active; 'I' for Inactive)
REMARK    1  A    between atoms: C_1  and  N_2
REMARK    2  A    between atoms: N_2  and  C_3
REMARK    3  A    between atoms: N_2  and  C_11
REMARK    4  A    between atoms: C_3  and  C_4
REMARK    5  A    between atoms: C_4  and  N_5
REMARK    6  A    between atoms: C_11  and  C_12
REMARK    7  A    between atoms: C_11  and  C_15
REMARK    8  A    between atoms: C_12  and  O_14
REMARK    9  A    between atoms: C_19  and  C_20
REMARK                            x       y       z     vdW  Elec       q    Type
REMARK                         _______ _______ _______ _____ _____    ______ ____
ROOT
ATOM      1  C   UNL     1       2.699   4.454  19.361  0.00  0.00    +0.000 C 
ENDROOT
BRANCH   1   2
ATOM      2  C   UNL     1       2.542   5.965  19.125  0.00  0.00    +0.000 A 
ATOM      3  C   UNL     1       3.244   6.639  18.123  0.00  0.00    +0.000 A 
ATOM      4  C   UNL     1       2.889   7.925  17.745  0.00  0.00    +0.000 A 
ATOM      5  C   UNL     1       2.029   8.662  18.548  0.00  0.00    +0.000 A 
ATOM      6  C   UNL     1       1.533   8.130  19.751  0.00  0.00    +0.000 A 
ATOM      7  C   UNL     1       1.717   6.747  19.965  0.00  0.00    +0.000 A 
BRANCH   6   8
ATOM      8  C   UNL     1       0.981   9.041  20.789  0.00  0.00    +0.000 A 
ATOM      9  C   UNL     1       0.499   8.568  22.025  0.00  0.00    +0.000 A 
ATOM     10  C   UNL     1      -0.187   9.403  22.914  0.00  0.00    +0.000 A 
ATOM     11  C   UNL     1      -0.390  10.741  22.601  0.00  0.00    +0.000 A 
ATOM     12  C   UNL     1       0.095  11.245  21.399  0.00  0.00    +0.000 A 
ATOM     13  C   UNL     1       0.766  10.405  20.504  0.00  0.00    +0.000 A 
ENDBRANCH   6   8
ENDBRANCH   1   2
BRANCH   1  15
ATOM     14  C   UNL     1       4.137   2.507  19.839  0.00  0.00    +0.000 C 
ATOM     15  N   UNL     1       4.078   3.991  19.814  0.00  0.00    +0.000 NA
BRANCH  15  16
ATOM     16  C   UNL     1       5.209   4.400  18.903  0.00  0.00    +0.000 C 
BRANCH  16  17
ATOM     17  C   UNL     1       6.311   5.322  19.476  0.00  0.00    +0.000 C 
BRANCH  17  18
ATOM     18  N   UNL     1       7.658   5.302  18.879  0.00  0.00    +0.000 NA
ATOM     19  C   UNL     1       8.093   6.703  18.610  0.00  0.00    +0.000 C 
ATOM     20  C   UNL     1       7.386   7.358  17.405  0.00  0.00    +0.000 C 
ATOM     21  O   UNL     1       7.570   6.572  16.221  0.00  0.00    +0.000 OA
ATOM     22  C   UNL     1       7.074   5.240  16.414  0.00  0.00    +0.000 C 
ATOM     23  C   UNL     1       7.741   4.549  17.614  0.00  0.00    +0.000 C 
ENDBRANCH  17  18
ENDBRANCH  16  17
ENDBRANCH  15  16
ENDBRANCH   1  15
BRANCH   1  24
ATOM     24  C   UNL     1       1.594   3.998  20.367  0.00  0.00    +0.000 C 
ATOM     25  O   UNL     1       0.486   3.621  20.030  0.00  0.00    +0.000 OA
BRANCH  24  26
ATOM     26  O   UNL     1       1.969   4.002  21.679  0.00  0.00    +0.000 OA
ATOM     27  H   UNL     1       2.145   3.103  22.018  0.00  0.00    +0.000 HD
ENDBRANCH  24  26
ENDBRANCH   1  24
TORSDOF 8
ENDMDL
MODEL 2
REMARK VINA RESULT:      -7.7      2.610      7.347
REMARK  Name = 
REMARK  9 active torsions:
REMARK  status: ('A' for Active; 'I' for Inactive)
REMARK    1  A    between atoms: C_1  and  N_2
REMARK    2  A    between atoms: N_2  and  C_3
REMARK    3  A    between atoms: N_2  and  C_11
REMARK    4  A    between atoms: C_3  and  C_4
REMARK    5  A    between atoms: C_4  and  N_5
REMARK    6  A    between atoms: C_11  and  C_12
REMARK    7  A    between atoms: C_11  and  C_15
REMARK    8  A    between atoms: C_12  and  O_14
REMARK    9  A    between atoms: C_19  and  C_20
REMARK                            x       y       z     vdW  Elec       q    Type
REMARK                         _______ _______ _______ _____ _____    ______ ____
ROOT
ATOM      1  C   UNL     1       3.849   3.607  19.259  0.00  0.00    +0.000 C 
ENDROOT
BRANCH   1   2
ATOM      2  C   UNL     1       5.010   4.273  18.501  0.00  0.00    +0.000 A 
ATOM      3  C   UNL     1       5.813   5.255  19.085  0.00  0.00    +0.000 A 
ATOM      4  C   UNL     1       7.009   5.639  18.497  0.00  0.00    +0.000 A 
ATOM      5  C   UNL     1       7.279   5.268  17.187  0.00  0.00    +0.000 A 
ATOM      6  C   UNL     1       6.346   4.528  16.440  0.00  0.00    +0.000 A 
ATOM      7  C   UNL     1       5.269   3.953  17.149  0.00  0.00    +0.000 A 
BRANCH   6   8
ATOM      8  C   UNL     1       6.441   4.502  14.957  0.00  0.00    +0.000 A 
ATOM      9  C   UNL     1       5.617   3.679  14.165  0.00  0.00    +0.000 A 
ATOM     10  C   UNL     1       5.839   3.521  12.792  0.00  0.00    +0.000 A 
ATOM     11  C   UNL     1       6.879   4.200  12.170  0.00  0.00    +0.000 A 
ATOM     12  C   UNL     1       7.695   5.039  12.919  0.00  0.00    +0.000 A 
ATOM     13  C   UNL     1       7.482   5.184  14.294  0.00  0.00    +0.000 A 
ENDBRANCH   6   8
ENDBRANCH   1   2
BRANCH   1  15
ATOM     14  C   UNL     1       1.568   4.292  19.902  0.00  0.00    +0.000 C 
ATOM     15  N   UNL     1       2.450   3.940  18.759  0.00  0.00    +0.000 NA
BRANCH  15  16
ATOM     16  C   UNL     1       2.378   5.138  17.843  0.00  0.00    +0.000 C 
BRANCH  16  17
ATOM     17  C   UNL     1       1.682   6.416  18.367  0.00  0.00    +0.000 C 
BRANCH  17  18
ATOM     18  N   UNL     1       2.498   7.557  18.817  0.00  0.00    +0.000 NA
ATOM     19  C   UNL     1       2.078   7.944  20.194  0.00  0.00    +0.000 C 
ATOM     20  C   UNL     1       0.721   8.676  20.253  0.00  0.00    +0.000 C 
ATOM     21  O   UNL     1       0.738   9.843  19.421  0.00  0.00    +0.000 OA
ATOM     22  C   UNL     1       1.045   9.493  18.064  0.00  0.00    +0.000 C 
ATOM     23  C   UNL     1       2.387   8.749  17.956  0.00  0.00    +0.000 C 
ENDBRANCH  17  18
ENDBRANCH  16  17
ENDBRANCH  15  16
ENDBRANCH   1  15
BRANCH   1  24
ATOM     24  C   UNL     1       4.091   2.063  19.268  0.00  0.00    +0.000 C 
ATOM     25  O   UNL     1       3.470   1.277  18.575  0.00  0.00    +0.000 OA
BRANCH  24  26
ATOM     26  O   UNL     1       5.097   1.641  20.087  0.00  0.00    +0.000 OA
ATOM     27  H   UNL     1       5.008   1.990  20.996  0.00  0.00    +0.000 HD
ENDBRANCH  24  26
ENDBRANCH   1  24
TORSDOF 8
ENDMDL
MODEL 3
REMARK VINA RESULT:      -7.6      2.716      7.746
REMARK  Name = 
REMARK  9 active torsions:
REMARK  status: ('A' for Active; 'I' for Inactive)
REMARK    1  A    between atoms: C_1  and  N_2
REMARK    2  A    between atoms: N_2  and  C_3
REMARK    3  A    between atoms: N_2  and  C_11
REMARK    4  A    between atoms: C_3  and  C_4
REMARK    5  A    between atoms: C_4  and  N_5
REMARK    6  A    between atoms: C_11  and  C_12
REMARK    7  A    between atoms: C_11  and  C_15
REMARK    8  A    between atoms: C_12  and  O_14
REMARK    9  A    between atoms: C_19  and  C_20
REMARK                            x       y       z     vdW  Elec       q    Type
REMARK                         _______ _______ _______ _____ _____    ______ ____
ROOT
ATOM      1  C   UNL     1       3.732   3.833  18.962  0.00  0.00    +0.000 C 
ENDROOT
BRANCH   1   2
ATOM      2  C   UNL     1       5.008   4.300  18.244  0.00  0.00    +0.000 A 
ATOM      3  C   UNL     1       5.977   5.080  18.880  0.00  0.00    +0.000 A 
ATOM      4  C   UNL     1       7.233   5.255  18.317  0.00  0.00    +0.000 A 
ATOM      5  C   UNL     1       7.444   4.904  16.991  0.00  0.00    +0.000 A 
ATOM      6  C   UNL     1       6.396   4.395  16.204  0.00  0.00    +0.000 A 
ATOM      7  C   UNL     1       5.219   4.004  16.878  0.00  0.00    +0.000 A 
BRANCH   6   8
ATOM      8  C   UNL     1       6.505   4.426  14.722  0.00  0.00    +0.000 A 
ATOM      9  C   UNL     1       5.757   3.565  13.895  0.00  0.00    +0.000 A 
ATOM     10  C   UNL     1       6.002   3.469  12.520  0.00  0.00    +0.000 A 
ATOM     11  C   UNL     1       6.987   4.251  11.931  0.00  0.00    +0.000 A 
ATOM     12  C   UNL     1       7.727   5.129  12.714  0.00  0.00    +0.000 A 
ATOM     13  C   UNL     1       7.492   5.211  14.091  0.00  0.00    +0.000 A 
ENDBRANCH   6   8
ENDBRANCH   1   2
BRANCH   1  15
ATOM     14  C   UNL     1       1.446   4.337  19.742  0.00  0.00    +0.000 C 
ATOM     15  N   UNL     1       2.498   4.703  18.759  0.00  0.00    +0.000 NA
BRANCH  15  16
ATOM     16  C   UNL     1       2.725   6.178  18.979  0.00  0.00    +0.000 C 
BRANCH  16  17
ATOM     17  C   UNL     1       1.684   6.961  19.813  0.00  0.00    +0.000 C 
BRANCH  17  18
ATOM     18  N   UNL     1       1.987   8.335  20.250  0.00  0.00    +0.000 NA
ATOM     19  C   UNL     1       1.329   8.583  21.566  0.00  0.00    +0.000 C 
ATOM     20  C   UNL     1      -0.200   8.769  21.477  0.00  0.00    +0.000 C 
ATOM     21  O   UNL     1      -0.530   9.835  20.578  0.00  0.00    +0.000 OA
ATOM     22  C   UNL     1       0.007   9.580  19.272  0.00  0.00    +0.000 C 
ATOM     23  C   UNL     1       1.531   9.376  19.311  0.00  0.00    +0.000 C 
ENDBRANCH  17  18
ENDBRANCH  16  17
ENDBRANCH  15  16
ENDBRANCH   1  15
BRANCH   1  24
ATOM     24  C   UNL     1       3.451   2.352  18.550  0.00  0.00    +0.000 C 
ATOM     25  O   UNL     1       2.571   2.021  17.776  0.00  0.00    +0.000 OA
BRANCH  24  26
ATOM     26  O   UNL     1       4.302   1.432  19.089  0.00  0.00    +0.000 OA
ATOM     27  H   UNL     1       3.867   0.873  19.762  0.00  0.00    +0.000 HD
ENDBRANCH  24  26
ENDBRANCH   1  24
TORSDOF 8
ENDMDL
MODEL 4
REMARK VINA RESULT:      -7.5      2.007      4.237
REMARK  Name = 
REMARK  9 active torsions:
REMARK  status: ('A' for Active; 'I' for Inactive)
REMARK    1  A    between atoms: C_1  and  N_2
REMARK    2  A    between atoms: N_2  and  C_3
REMARK    3  A    between atoms: N_2  and  C_11
REMARK    4  A    between atoms: C_3  and  C_4
REMARK    5  A    between atoms: C_4  and  N_5
REMARK    6  A    between atoms: C_11  and  C_12
REMARK    7  A    between atoms: C_11  and  C_15
REMARK    8  A    between atoms: C_12  and  O_14
REMARK    9  A    between atoms: C_19  and  C_20
REMARK                            x       y       z     vdW  Elec       q    Type
REMARK                         _______ _______ _______ _____ _____    ______ ____
ROOT
ATOM      1  C   UNL     1       3.575   5.694  18.478  0.00  0.00    +0.000 C 
ENDROOT
BRANCH   1   2
ATOM      2  C   UNL     1       2.914   7.082  18.483  0.00  0.00    +0.000 A 
ATOM      3  C   UNL     1       3.146   8.021  17.475  0.00  0.00    +0.000 A 
ATOM      4  C   UNL     1       2.341   9.143  17.347  0.00  0.00    +0.000 A 
ATOM      5  C   UNL     1       1.487   9.495  18.383  0.00  0.00    +0.000 A 
ATOM      6  C   UNL     1       1.445   8.743  19.570  0.00  0.00    +0.000 A 
ATOM      7  C   UNL     1       2.086   7.486  19.556  0.00  0.00    +0.000 A 
BRANCH   6   8
ATOM      8  C   UNL     1       0.873   9.343  20.803  0.00  0.00    +0.000 A 
ATOM      9  C   UNL     1       0.665   8.594  21.977  0.00  0.00    +0.000 A 
ATOM     10  C   UNL     1      -0.043   9.115  23.067  0.00  0.00    +0.000 A 
ATOM     11  C   UNL     1      -0.544  10.410  23.019  0.00  0.00    +0.000 A 
ATOM     12  C   UNL     1      -0.335  11.185  21.884  0.00  0.00    +0.000 A 
ATOM     13  C   UNL     1       0.359  10.657  20.790  0.00  0.00    +0.000 A 
ENDBRANCH   6   8
ENDBRANCH   1   2
BRANCH   1  15
ATOM     14  C   UNL     1       4.361   3.845  17.047  0.00  0.00    +0.000 C 
ATOM     15  N   UNL     1       3.255   4.810  17.280  0.00  0.00    +0.000 NA
BRANCH  15  16
ATOM     16  C   UNL     1       2.028   3.946  17.446  0.00  0.00    +0.000 C 
BRANCH  16  17
ATOM     17  C   UNL     1       1.359   3.888  18.839  0.00  0.00    +0.000 C 
BRANCH  17  18
ATOM     18  N   UNL     1       1.262   2.600  19.546  0.00  0.00    +0.000 NA
ATOM     19  C   UNL     1       1.021   2.856  20.996  0.00  0.00    +0.000 C 
ATOM     20  C   UNL     1       2.261   3.371  21.756  0.00  0.00    +0.000 C 
ATOM     21  O   UNL     1       3.357   2.459  21.616  0.00  0.00    +0.000 OA
ATOM     22  C   UNL     1       3.679   2.263  20.232  0.00  0.00    +0.000 C 
ATOM     23  C   UNL     1       2.469   1.760  19.428  0.00  0.00    +0.000 C 
ENDBRANCH  17  18
ENDBRANCH  16  17
ENDBRANCH  15  16
ENDBRANCH   1  15
BRANCH   1  24
ATOM     24  C   UNL     1       5.117   5.884  18.642  0.00  0.00    +0.000 C 
ATOM     25  O   UNL     1       5.807   6.516  17.863  0.00  0.00    +0.000 OA
BRANCH  24  26
ATOM     26  O   UNL     1       5.652   5.322  19.764  0.00  0.00    +0.000 OA
ATOM     27  H   UNL     1       5.237   5.660  20.583  0.00  0.00    +0.000 HD
ENDBRANCH  24  26
ENDBRANCH   1  24
TORSDOF 8
ENDMDL
MODEL 5
REMARK VINA RESULT:      -7.5      1.034      1.373
REMARK  Name = 
REMARK  9 active torsions:
REMARK  status: ('A' for Active; 'I' for Inactive)
REMARK    1  A    between atoms: C_1  and  N_2
REMARK    2  A    between atoms: N_2  and  C_3
REMARK    3  A    between atoms: N_2  and  C_11
REMARK    4  A    between atoms: C_3  and  C_4
REMARK    5  A    between atoms: C_4  and  N_5
REMARK    6  A    between atoms: C_11  and  C_12
REMARK    7  A    between atoms: C_11  and  C_15
REMARK    8  A    between atoms: C_12  and  O_14
REMARK    9  A    between atoms: C_19  and  C_20
REMARK                            x       y       z     vdW  Elec       q    Type
REMARK                         _______ _______ _______ _____ _____    ______ ____
ROOT
ATOM      1  C   UNL     1       2.784   4.708  19.582  0.00  0.00    +0.000 C 
ENDROOT
BRANCH   1   2
ATOM      2  C   UNL     1       2.495   6.195  19.322  0.00  0.00    +0.000 A 
ATOM      3  C   UNL     1       3.089   6.895  18.269  0.00  0.00    +0.000 A 
ATOM      4  C   UNL     1       2.613   8.140  17.883  0.00  0.00    +0.000 A 
ATOM      5  C   UNL     1       1.739   8.828  18.714  0.00  0.00    +0.000 A 
ATOM      6  C   UNL     1       1.349   8.289  19.953  0.00  0.00    +0.000 A 
ATOM      7  C   UNL     1       1.654   6.931  20.187  0.00  0.00    +0.000 A 
BRANCH   6   8
ATOM      8  C   UNL     1       0.780   9.180  20.998  0.00  0.00    +0.000 A 
ATOM      9  C   UNL     1       0.604   8.760  22.330  0.00  0.00    +0.000 A 
ATOM     10  C   UNL     1      -0.101   9.534  23.259  0.00  0.00    +0.000 A 
ATOM     11  C   UNL     1      -0.631  10.762  22.884  0.00  0.00    +0.000 A 
ATOM     12  C   UNL     1      -0.454  11.218  21.583  0.00  0.00    +0.000 A 
ATOM     13  C   UNL     1       0.238  10.435  20.652  0.00  0.00    +0.000 A 
ENDBRANCH   6   8
ENDBRANCH   1   2
BRANCH   1  15
ATOM     14  C   UNL     1       4.486   2.929  19.744  0.00  0.00    +0.000 C 
ATOM     15  N   UNL     1       4.212   4.369  19.990  0.00  0.00    +0.000 NA
BRANCH  15  16
ATOM     16  C   UNL     1       5.278   5.096  19.208  0.00  0.00    +0.000 C 
BRANCH  16  17
ATOM     17  C   UNL     1       5.866   4.404  17.956  0.00  0.00    +0.000 C 
BRANCH  17  18
ATOM     18  N   UNL     1       6.894   5.094  17.158  0.00  0.00    +0.000 NA
ATOM     19  C   UNL     1       6.379   6.435  16.755  0.00  0.00    +0.000 C 
ATOM     20  C   UNL     1       5.308   6.386  15.644  0.00  0.00    +0.000 C 
ATOM     21  O   UNL     1       5.810   5.707  14.486  0.00  0.00    +0.000 OA
ATOM     22  C   UNL     1       6.227   4.376  14.820  0.00  0.00    +0.000 C 
ATOM     23  C   UNL     1       7.287   4.371  15.934  0.00  0.00    +0.000 C 
ENDBRANCH  17  18
ENDBRANCH  16  17
ENDBRANCH  15  16
ENDBRANCH   1  15
BRANCH   1  24
ATOM     24  C   UNL     1       1.759   4.187  20.640  0.00  0.00    +0.000 C 
ATOM     25  O   UNL     1       2.018   4.043  21.820  0.00  0.00    +0.000 OA
BRANCH  24  26
ATOM     26  O   UNL     1       0.507   3.939  20.156  0.00  0.00    +0.000 OA
ATOM     27  H   UNL     1       0.461   3.101  19.655  0.00  0.00    +0.000 HD
ENDBRANCH  24  26
ENDBRANCH   1  24
TORSDOF 8
ENDMDL
MODEL 6
REMARK VINA RESULT:      -7.5      2.667      7.395
REMARK  Name = 
REMARK  9 active torsions:
REMARK  status: ('A' for Active; 'I' for Inactive)
REMARK    1  A    between atoms: C_1  and  N_2
REMARK    2  A    between atoms: N_2  and  C_3
REMARK    3  A    between atoms: N_2  and  C_11
REMARK    4  A    between atoms: C_3  and  C_4
REMARK    5  A    between atoms: C_4  and  N_5
REMARK    6  A    between atoms: C_11  and  C_12
REMARK    7  A    between atoms: C_11  and  C_15
REMARK    8  A    between atoms: C_12  and  O_14
REMARK    9  A    between atoms: C_19  and  C_20
REMARK                            x       y       z     vdW  Elec       q    Type
REMARK                         _______ _______ _______ _____ _____    ______ ____
ROOT
ATOM      1  C   UNL     1       2.953   6.334  18.551  0.00  0.00    +0.000 C 
ENDROOT
BRANCH   1   2
ATOM      2  C   UNL     1       4.307   5.779  18.081  0.00  0.00    +0.000 A 
ATOM      3  C   UNL     1       5.430   5.752  18.912  0.00  0.00    +0.000 A 
ATOM      4  C   UNL     1       6.549   5.004  18.574  0.00  0.00    +0.000 A 
ATOM      5  C   UNL     1       6.680   4.514  17.282  0.00  0.00    +0.000 A 
ATOM      6  C   UNL     1       5.706   4.784  16.305  0.00  0.00    +0.000 A 
ATOM      7  C   UNL     1       4.482   5.326  16.753  0.00  0.00    +0.000 A 
BRANCH   6   8
ATOM      8  C   UNL     1       6.043   4.634  14.865  0.00  0.00    +0.000 A 
ATOM      9  C   UNL     1       5.316   3.787  14.007  0.00  0.00    +0.000 A 
ATOM     10  C   UNL     1       5.751   3.508  12.707  0.00  0.00    +0.000 A 
ATOM     11  C   UNL     1       6.916   4.088  12.221  0.00  0.00    +0.000 A 
ATOM     12  C   UNL     1       7.645   4.948  13.035  0.00  0.00    +0.000 A 
ATOM     13  C   UNL     1       7.217   5.213  14.340  0.00  0.00    +0.000 A 
ENDBRANCH   6   8
ENDBRANCH   1   2
BRANCH   1  15
ATOM     14  C   UNL     1       1.854   7.540  20.402  0.00  0.00    +0.000 C 
ATOM     15  N   UNL     1       2.751   6.407  20.059  0.00  0.00    +0.000 NA
BRANCH  15  16
ATOM     16  C   UNL     1       2.080   5.197  20.662  0.00  0.00    +0.000 C 
BRANCH  16  17
ATOM     17  C   UNL     1       1.227   4.298  19.736  0.00  0.00    +0.000 C 
BRANCH  17  18
ATOM     18  N   UNL     1       1.273   2.835  19.899  0.00  0.00    +0.000 NA
ATOM     19  C   UNL     1       2.522   2.464  20.624  0.00  0.00    +0.000 C 
ATOM     20  C   UNL     1       3.801   2.577  19.768  0.00  0.00    +0.000 C 
ATOM     21  O   UNL     1       3.690   1.779  18.583  0.00  0.00    +0.000 OA
ATOM     22  C   UNL     1       2.549   2.175  17.810  0.00  0.00    +0.000 C 
ATOM     23  C   UNL     1       1.248   2.090  18.626  0.00  0.00    +0.000 C 
ENDBRANCH  17  18
ENDBRANCH  16  17
ENDBRANCH  15  16
ENDBRANCH   1  15
BRANCH   1  24
ATOM     24  C   UNL     1       2.740   7.733  17.888  0.00  0.00    +0.000 C 
ATOM     25  O   UNL     1       3.640   8.522  17.667  0.00  0.00    +0.000 OA
BRANCH  24  26
ATOM     26  O   UNL     1       1.455   8.006  17.518  0.00  0.00    +0.000 OA
ATOM     27  H   UNL     1       1.138   8.858  17.878  0.00  0.00    +0.000 HD
ENDBRANCH  24  26
ENDBRANCH   1  24
TORSDOF 8
ENDMDL
MODEL 7
REMARK VINA RESULT:      -7.4      4.343      8.116
REMARK  Name = 
REMARK  9 active torsions:
REMARK  status: ('A' for Active; 'I' for Inactive)
REMARK    1  A    between atoms: C_1  and  N_2
REMARK    2  A    between atoms: N_2  and  C_3
REMARK    3  A    between atoms: N_2  and  C_11
REMARK    4  A    between atoms: C_3  and  C_4
REMARK    5  A    between atoms: C_4  and  N_5
REMARK    6  A    between atoms: C_11  and  C_12
REMARK    7  A    between atoms: C_11  and  C_15
REMARK    8  A    between atoms: C_12  and  O_14
REMARK    9  A    between atoms: C_19  and  C_20
REMARK                            x       y       z     vdW  Elec       q    Type
REMARK                         _______ _______ _______ _____ _____    ______ ____
ROOT
ATOM      1  C   UNL     1       1.090  10.009  20.708  0.00  0.00    +0.000 C 
ENDROOT
BRANCH   1   2
ATOM      2  C   UNL     1       1.626   8.933  19.750  0.00  0.00    +0.000 A 
ATOM      3  C   UNL     1       1.938   9.213  18.417  0.00  0.00    +0.000 A 
ATOM      4  C   UNL     1       2.671   8.316  17.654  0.00  0.00    +0.000 A 
ATOM      5  C   UNL     1       2.851   7.016  18.109  0.00  0.00    +0.000 A 
ATOM      6  C   UNL     1       2.280   6.591  19.321  0.00  0.00    +0.000 A 
ATOM      7  C   UNL     1       1.764   7.591  20.172  0.00  0.00    +0.000 A 
BRANCH   6   8
ATOM      8  C   UNL     1       2.112   5.138  19.587  0.00  0.00    +0.000 A 
ATOM      9  C   UNL     1       2.020   4.190  18.551  0.00  0.00    +0.000 A 
ATOM     10  C   UNL     1       1.676   2.856  18.803  0.00  0.00    +0.000 A 
ATOM     11  C   UNL     1       1.435   2.431  20.103  0.00  0.00    +0.000 A 
ATOM     12  C   UNL     1       1.541   3.338  21.152  0.00  0.00    +0.000 A 
ATOM     13  C   UNL     1       1.870   4.673  20.897  0.00  0.00    +0.000 A 
ENDBRANCH   6   8
ENDBRANCH   1   2
BRANCH   1  15
ATOM     14  C   UNL     1       0.399  12.260  19.971  0.00  0.00    +0.000 C 
ATOM     15  N   UNL     1      -0.056  10.861  20.180  0.00  0.00    +0.000 NA
BRANCH  15  16
ATOM     16  C   UNL     1      -0.589  10.432  18.834  0.00  0.00    +0.000 C 
BRANCH  16  17
ATOM     17  C   UNL     1      -1.960  10.987  18.382  0.00  0.00    +0.000 C 
BRANCH  17  18
ATOM     18  N   UNL     1      -2.988  10.062  17.875  0.00  0.00    +0.000 NA
ATOM     19  C   UNL     1      -2.647   9.674  16.476  0.00  0.00    +0.000 C 
ATOM     20  C   UNL     1      -2.899  10.788  15.438  0.00  0.00    +0.000 C 
ATOM     21  O   UNL     1      -4.262  11.227  15.486  0.00  0.00    +0.000 OA
ATOM     22  C   UNL     1      -4.597  11.698  16.799  0.00  0.00    +0.000 C 
ATOM     23  C   UNL     1      -4.351  10.625  17.871  0.00  0.00    +0.000 C 
ENDBRANCH  17  18
ENDBRANCH  16  17
ENDBRANCH  15  16
ENDBRANCH   1  15
BRANCH   1  24
ATOM     24  C   UNL     1       0.702   9.317  22.055  0.00  0.00    +0.000 C 
ATOM     25  O   UNL     1       1.385   9.364  23.061  0.00  0.00    +0.000 OA
BRANCH  24  26
ATOM     26  O   UNL     1      -0.503   8.676  22.048  0.00  0.00    +0.000 OA
ATOM     27  H   UNL     1      -1.249   9.289  21.894  0.00  0.00    +0.000 HD
ENDBRANCH  24  26
ENDBRANCH   1  24
TORSDOF 8
ENDMDL
MODEL 8
REMARK VINA RESULT:      -7.4      1.411      1.970
REMARK  Name = 
REMARK  9 active torsions:
REMARK  status: ('A' for Active; 'I' for Inactive)
REMARK    1  A    between atoms: C_1  and  N_2
REMARK    2  A    between atoms: N_2  and  C_3
REMARK    3  A    between atoms: N_2  and  C_11
REMARK    4  A    between atoms: C_3  and  C_4
REMARK    5  A    between atoms: C_4  and  N_5
REMARK    6  A    between atoms: C_11  and  C_12
REMARK    7  A    between atoms: C_11  and  C_15
REMARK    8  A    between atoms: C_12  and  O_14
REMARK    9  A    between atoms: C_19  and  C_20
REMARK                            x       y       z     vdW  Elec       q    Type
REMARK                         _______ _______ _______ _____ _____    ______ ____
ROOT
ATOM      1  C   UNL     1       2.245   4.556  19.267  0.00  0.00    +0.000 C 
ENDROOT
BRANCH   1   2
ATOM      2  C   UNL     1       2.206   6.088  19.139  0.00  0.00    +0.000 A 
ATOM      3  C   UNL     1       3.022   6.781  18.242  0.00  0.00    +0.000 A 
ATOM      4  C   UNL     1       2.781   8.114  17.943  0.00  0.00    +0.000 A 
ATOM      5  C   UNL     1       1.916   8.850  18.742  0.00  0.00    +0.000 A 
ATOM      6  C   UNL     1       1.300   8.268  19.863  0.00  0.00    +0.000 A 
ATOM      7  C   UNL     1       1.376   6.863  19.980  0.00  0.00    +0.000 A 
BRANCH   6   8
ATOM      8  C   UNL     1       0.736   9.137  20.929  0.00  0.00    +0.000 A 
ATOM      9  C   UNL     1       0.809   8.797  22.294  0.00  0.00    +0.000 A 
ATOM     10  C   UNL     1       0.116   9.522  23.270  0.00  0.00    +0.000 A 
ATOM     11  C   UNL     1      -0.653  10.621  22.910  0.00  0.00    +0.000 A 
ATOM     12  C   UNL     1      -0.727  10.997  21.573  0.00  0.00    +0.000 A 
ATOM     13  C   UNL     1      -0.046  10.263  20.597  0.00  0.00    +0.000 A 
ENDBRANCH   6   8
ENDBRANCH   1   2
BRANCH   1  15
ATOM     14  C   UNL     1       3.758   2.674  19.774  0.00  0.00    +0.000 C 
ATOM     15  N   UNL     1       3.580   3.895  18.947  0.00  0.00    +0.000 NA
BRANCH  15  16
ATOM     16  C   UNL     1       3.716   3.412  17.523  0.00  0.00    +0.000 C 
BRANCH  16  17
ATOM     17  C   UNL     1       4.991   3.801  16.739  0.00  0.00    +0.000 C 
BRANCH  17  18
ATOM     18  N   UNL     1       4.990   5.017  15.908  0.00  0.00    +0.000 NA
ATOM     19  C   UNL     1       5.547   4.689  14.564  0.00  0.00    +0.000 C 
ATOM     20  C   UNL     1       7.076   4.480  14.553  0.00  0.00    +0.000 C 
ATOM     21  O   UNL     1       7.749   5.634  15.073  0.00  0.00    +0.000 OA
ATOM     22  C   UNL     1       7.306   5.921  16.406  0.00  0.00    +0.000 C 
ATOM     23  C   UNL     1       5.783   6.127  16.470  0.00  0.00    +0.000 C 
ENDBRANCH  17  18
ENDBRANCH  16  17
ENDBRANCH  15  16
ENDBRANCH   1  15
BRANCH   1  24
ATOM     24  C   UNL     1       1.756   4.171  20.700  0.00  0.00    +0.000 C 
ATOM     25  O   UNL     1       2.329   4.500  21.722  0.00  0.00    +0.000 OA
BRANCH  24  26
ATOM     26  O   UNL     1       0.591   3.462  20.741  0.00  0.00    +0.000 OA
ATOM     27  H   UNL     1       0.116   3.476  19.886  0.00  0.00    +0.000 HD
ENDBRANCH  24  26
ENDBRANCH   1  24
TORSDOF 8
ENDMDL
MODEL 9
REMARK VINA RESULT:      -7.2      4.295      7.628
REMARK  Name = 
REMARK  9 active torsions:
REMARK  status: ('A' for Active; 'I' for Inactive)
REMARK    1  A    between atoms: C_1  and  N_2
REMARK    2  A    between atoms: N_2  and  C_3
REMARK    3  A    between atoms: N_2  and  C_11
REMARK    4  A    between atoms: C_3  and  C_4
REMARK    5  A    between atoms: C_4  and  N_5
REMARK    6  A    between atoms: C_11  and  C_12
REMARK    7  A    between atoms: C_11  and  C_15
REMARK    8  A    between atoms: C_12  and  O_14
REMARK    9  A    between atoms: C_19  and  C_20
REMARK                            x       y       z     vdW  Elec       q    Type
REMARK                         _______ _______ _______ _____ _____    ______ ____
ROOT
ATOM      1  C   UNL     1       0.643  10.143  21.229  0.00  0.00    +0.000 C 
ENDROOT
BRANCH   1   2
ATOM      2  C   UNL     1       1.199   9.138  20.207  0.00  0.00    +0.000 A 
ATOM      3  C   UNL     1       1.208   9.400  18.835  0.00  0.00    +0.000 A 
ATOM      4  C   UNL     1       1.954   8.618  17.965  0.00  0.00    +0.000 A 
ATOM      5  C   UNL     1       2.463   7.403  18.402  0.00  0.00    +0.000 A 
ATOM      6  C   UNL     1       2.212   6.943  19.706  0.00  0.00    +0.000 A 
ATOM      7  C   UNL     1       1.670   7.871  20.621  0.00  0.00    +0.000 A 
BRANCH   6   8
ATOM      8  C   UNL     1       2.382   5.501  20.025  0.00  0.00    +0.000 A 
ATOM      9  C   UNL     1       3.526   4.776  19.643  0.00  0.00    +0.000 A 
ATOM     10  C   UNL     1       3.596   3.384  19.781  0.00  0.00    +0.000 A 
ATOM     11  C   UNL     1       2.528   2.683  20.326  0.00  0.00    +0.000 A 
ATOM     12  C   UNL     1       1.392   3.371  20.736  0.00  0.00    +0.000 A 
ATOM     13  C   UNL     1       1.318   4.760  20.583  0.00  0.00    +0.000 A 
ENDBRANCH   6   8
ENDBRANCH   1   2
BRANCH   1  15
ATOM     14  C   UNL     1      -1.198  11.690  21.780  0.00  0.00    +0.000 C 
ATOM     15  N   UNL     1      -0.339  11.172  20.684  0.00  0.00    +0.000 NA
BRANCH  15  16
ATOM     16  C   UNL     1       0.304  12.403  20.093  0.00  0.00    +0.000 C 
BRANCH  16  17
ATOM     17  C   UNL     1       1.762  12.729  20.494  0.00  0.00    +0.000 C 
BRANCH  17  18
ATOM     18  N   UNL     1       2.036  13.892  21.355  0.00  0.00    +0.000 NA
ATOM     19  C   UNL     1       1.268  15.066  20.848  0.00  0.00    +0.000 C 
ATOM     20  C   UNL     1       1.844  15.678  19.553  0.00  0.00    +0.000 C 
ATOM     21  O   UNL     1       3.214  16.054  19.735  0.00  0.00    +0.000 OA
ATOM     22  C   UNL     1       4.002  14.923  20.132  0.00  0.00    +0.000 C 
ATOM     23  C   UNL     1       3.460  14.271  21.415  0.00  0.00    +0.000 C 
ENDBRANCH  17  18
ENDBRANCH  16  17
ENDBRANCH  15  16
ENDBRANCH   1  15
BRANCH   1  24
ATOM     24  C   UNL     1       0.017   9.341  22.415  0.00  0.00    +0.000 C 
ATOM     25  O   UNL     1      -0.825   8.474  22.276  0.00  0.00    +0.000 OA
BRANCH  24  26
ATOM     26  O   UNL     1       0.517   9.648  23.647  0.00  0.00    +0.000 OA
ATOM     27  H   UNL     1      -0.162  10.023  24.241  0.00  0.00    +0.000 HD
ENDBRANCH  24  26
ENDBRANCH   1  24
TORSDOF 8
ENDMDL
