MODEL 1
REMARK VINA RESULT:      -5.1      0.000      0.000
REMARK  Name = 
REMARK  9 active torsions:
REMARK  status: ('A' for Active; 'I' for Inactive)
REMARK    1  A    between atoms: C_1  and  C_2
REMARK    2  A    between atoms: C_2  and  C_3
REMARK    3  A    between atoms: C_2  and  N_11
REMARK    4  A    between atoms: C_3  and  C_4
REMARK    5  A    between atoms: C_4  and  N_5
REMARK    6  A    between atoms: N_8  and  C_9
REMARK    7  A    between atoms: N_8  and  C_10
REMARK    8  A    between atoms: N_11  and  C_12
REMARK    9  A    between atoms: N_11  and  C_13
REMARK                            x       y       z     vdW  Elec       q    Type
REMARK                         _______ _______ _______ _____ _____    ______ ____
ROOT
ATOM      1  C   UNL     1       2.843   5.551  18.018  0.00  0.00    +0.000 C 
ENDROOT
BRANCH   1   2
ATOM      2  N   UNL     1       4.046   5.191  17.277  0.00  0.00    +0.000 N 
ATOM      3  C   UNL     1       5.263   5.139  17.904  0.00  0.00    +0.000 C 
ATOM      4  O   UNL     1       5.392   5.455  19.085  0.00  0.00    +0.000 OA
ATOM      5  N   UNL     1       6.325   4.718  17.122  0.00  0.00    +0.000 N 
ATOM      6  C   UNL     1       6.304   4.487  15.683  0.00  0.00    +0.000 C 
ATOM      7  C   UNL     1       7.635   4.611  17.744  0.00  0.00    +0.000 C 
ATOM      8  H   UNL     1       3.906   4.540  16.527  0.00  0.00    +0.000 HD
ENDBRANCH   1   2
BRANCH   1   9
ATOM      9  C   UNL     1       1.722   4.529  17.820  0.00  0.00    +0.000 C 
BRANCH   9  11
ATOM     10  C   UNL     1       0.943   3.877  20.119  0.00  0.00    +0.000 C 
ATOM     11  C   UNL     1       1.708   3.391  18.873  0.00  0.00    +0.000 C 
BRANCH  11  12
ATOM     12  N   UNL     1       3.063   2.874  19.214  0.00  0.00    +0.000 NA
ATOM     13  C   UNL     1       3.215   2.638  20.657  0.00  0.00    +0.000 C 
ATOM     14  C   UNL     1       3.368   1.621  18.510  0.00  0.00    +0.000 C 
ENDBRANCH  11  12
ENDBRANCH   9  11
ENDBRANCH   1   9
TORSDOF 4
ENDMDL
MODEL 2
REMARK VINA RESULT:      -4.9      1.498      2.336
REMARK  Name = 
REMARK  9 active torsions:
REMARK  status: ('A' for Active; 'I' for Inactive)
REMARK    1  A    between atoms: C_1  and  C_2
REMARK    2  A    between atoms: C_2  and  C_3
REMARK    3  A    between atoms: C_2  and  N_11
REMARK    4  A    between atoms: C_3  and  C_4
REMARK    5  A    between atoms: C_4  and  N_5
REMARK    6  A    between atoms: N_8  and  C_9
REMARK    7  A    between atoms: N_8  and  C_10
REMARK    8  A    between atoms: N_11  and  C_12
REMARK    9  A    between atoms: N_11  and  C_13
REMARK                            x       y       z     vdW  Elec       q    Type
REMARK                         _______ _______ _______ _____ _____    ______ ____
ROOT
ATOM      1  C   UNL     1       4.667   2.835  19.650  0.00  0.00    +0.000 C 
ENDROOT
BRANCH   1   2
ATOM      2  N   UNL     1       5.428   3.429  18.558  0.00  0.00    +0.000 N 
ATOM      3  C   UNL     1       5.959   4.686  18.680  0.00  0.00    +0.000 C 
ATOM      4  O   UNL     1       5.757   5.375  19.678  0.00  0.00    +0.000 OA
ATOM      5  N   UNL     1       6.723   5.123  17.611  0.00  0.00    +0.000 N 
ATOM      6  C   UNL     1       6.878   4.455  16.326  0.00  0.00    +0.000 C 
ATOM      7  C   UNL     1       7.339   6.437  17.701  0.00  0.00    +0.000 C 
ATOM      8  H   UNL     1       5.952   2.779  18.001  0.00  0.00    +0.000 HD
ENDBRANCH   1   2
BRANCH   1   9
ATOM      9  C   UNL     1       3.163   2.849  19.373  0.00  0.00    +0.000 C 
BRANCH   9  11
ATOM     10  C   UNL     1       1.274   3.214  20.991  0.00  0.00    +0.000 C 
ATOM     11  C   UNL     1       2.379   3.918  20.179  0.00  0.00    +0.000 C 
BRANCH  11  12
ATOM     12  N   UNL     1       1.842   5.025  19.341  0.00  0.00    +0.000 NA
ATOM     13  C   UNL     1       2.433   6.322  19.697  0.00  0.00    +0.000 C 
ATOM     14  C   UNL     1       2.074   4.794  17.908  0.00  0.00    +0.000 C 
ENDBRANCH  11  12
ENDBRANCH   9  11
ENDBRANCH   1   9
TORSDOF 4
ENDMDL
MODEL 3
REMARK VINA RESULT:      -4.9      1.791      5.305
REMARK  Name = 
REMARK  9 active torsions:
REMARK  status: ('A' for Active; 'I' for Inactive)
REMARK    1  A    between atoms: C_1  and  C_2
REMARK    2  A    between atoms: C_2  and  C_3
REMARK    3  A    between atoms: C_2  and  N_11
REMARK    4  A    between atoms: C_3  and  C_4
REMARK    5  A    between atoms: C_4  and  N_5
REMARK    6  A    between atoms: N_8  and  C_9
REMARK    7  A    between atoms: N_8  and  C_10
REMARK    8  A    between atoms: N_11  and  C_12
REMARK    9  A    between atoms: N_11  and  C_13
REMARK                            x       y       z     vdW  Elec       q    Type
REMARK                         _______ _______ _______ _____ _____    ______ ____
ROOT
ATOM      1  C   UNL     1       4.247   4.040  16.537  0.00  0.00    +0.000 C 
ENDROOT
BRANCH   1   2
ATOM      2  N   UNL     1       3.821   3.627  17.869  0.00  0.00    +0.000 N 
ATOM      3  C   UNL     1       2.490   3.517  18.175  0.00  0.00    +0.000 C 
ATOM      4  O   UNL     1       1.618   3.825  17.364  0.00  0.00    +0.000 OA
ATOM      5  N   UNL     1       2.201   3.050  19.445  0.00  0.00    +0.000 N 
ATOM      6  C   UNL     1       3.153   2.824  20.523  0.00  0.00    +0.000 C 
ATOM      7  C   UNL     1       0.803   2.882  19.812  0.00  0.00    +0.000 C 
ATOM      8  H   UNL     1       4.436   2.984  18.333  0.00  0.00    +0.000 HD
ENDBRANCH   1   2
BRANCH   1   9
ATOM      9  C   UNL     1       4.921   5.412  16.552  0.00  0.00    +0.000 C 
BRANCH   9  11
ATOM     10  C   UNL     1       6.451   4.160  15.000  0.00  0.00    +0.000 C 
ATOM     11  C   UNL     1       6.285   5.457  15.814  0.00  0.00    +0.000 C 
BRANCH  11  12
ATOM     12  N   UNL     1       7.444   5.706  16.715  0.00  0.00    +0.000 NA
ATOM     13  C   UNL     1       7.315   6.980  17.438  0.00  0.00    +0.000 C 
ATOM     14  C   UNL     1       7.613   4.634  17.705  0.00  0.00    +0.000 C 
ENDBRANCH  11  12
ENDBRANCH   9  11
ENDBRANCH   1   9
TORSDOF 4
ENDMDL
MODEL 4
REMARK VINA RESULT:      -4.9      1.052      1.470
REMARK  Name = 
REMARK  9 active torsions:
REMARK  status: ('A' for Active; 'I' for Inactive)
REMARK    1  A    between atoms: C_1  and  C_2
REMARK    2  A    between atoms: C_2  and  C_3
REMARK    3  A    between atoms: C_2  and  N_11
REMARK    4  A    between atoms: C_3  and  C_4
REMARK    5  A    between atoms: C_4  and  N_5
REMARK    6  A    between atoms: N_8  and  C_9
REMARK    7  A    between atoms: N_8  and  C_10
REMARK    8  A    between atoms: N_11  and  C_12
REMARK    9  A    between atoms: N_11  and  C_13
REMARK                            x       y       z     vdW  Elec       q    Type
REMARK                         _______ _______ _______ _____ _____    ______ ____
ROOT
ATOM      1  C   UNL     1       3.336   5.706  19.666  0.00  0.00    +0.000 C 
ENDROOT
BRANCH   1   2
ATOM      2  N   UNL     1       4.127   5.331  18.500  0.00  0.00    +0.000 N 
ATOM      3  C   UNL     1       5.488   5.194  18.594  0.00  0.00    +0.000 C 
ATOM      4  O   UNL     1       6.088   5.445  19.637  0.00  0.00    +0.000 OA
ATOM      5  N   UNL     1       6.129   4.766  17.445  0.00  0.00    +0.000 N 
ATOM      6  C   UNL     1       5.532   4.608  16.126  0.00  0.00    +0.000 C 
ATOM      7  C   UNL     1       7.570   4.570  17.496  0.00  0.00    +0.000 C 
ATOM      8  H   UNL     1       3.665   4.724  17.849  0.00  0.00    +0.000 HD
ENDBRANCH   1   2
BRANCH   1   9
ATOM      9  C   UNL     1       2.757   4.484  20.381  0.00  0.00    +0.000 C 
BRANCH   9  11
ATOM     10  C   UNL     1       0.740   3.093  19.822  0.00  0.00    +0.000 C 
ATOM     11  C   UNL     1       2.197   3.397  19.427  0.00  0.00    +0.000 C 
BRANCH  11  12
ATOM     12  N   UNL     1       3.032   2.165  19.369  0.00  0.00    +0.000 NA
ATOM     13  C   UNL     1       3.492   1.875  18.004  0.00  0.00    +0.000 C 
ATOM     14  C   UNL     1       4.212   2.257  20.240  0.00  0.00    +0.000 C 
ENDBRANCH  11  12
ENDBRANCH   9  11
ENDBRANCH   1   9
TORSDOF 4
ENDMDL
MODEL 5
REMARK VINA RESULT:      -4.8      0.934      1.318
REMARK  Name = 
REMARK  9 active torsions:
REMARK  status: ('A' for Active; 'I' for Inactive)
REMARK    1  A    between atoms: C_1  and  C_2
REMARK    2  A    between atoms: C_2  and  C_3
REMARK    3  A    between atoms: C_2  and  N_11
REMARK    4  A    between atoms: C_3  and  C_4
REMARK    5  A    between atoms: C_4  and  N_5
REMARK    6  A    between atoms: N_8  and  C_9
REMARK    7  A    between atoms: N_8  and  C_10
REMARK    8  A    between atoms: N_11  and  C_12
REMARK    9  A    between atoms: N_11  and  C_13
REMARK                            x       y       z     vdW  Elec       q    Type
REMARK                         _______ _______ _______ _____ _____    ______ ____
ROOT
ATOM      1  C   UNL     1       2.278   5.305  17.982  0.00  0.00    +0.000 C 
ENDROOT
BRANCH   1   2
ATOM      2  N   UNL     1       3.670   5.429  17.568  0.00  0.00    +0.000 N 
ATOM      3  C   UNL     1       4.671   5.517  18.500  0.00  0.00    +0.000 C 
ATOM      4  O   UNL     1       4.425   5.562  19.704  0.00  0.00    +0.000 OA
ATOM      5  N   UNL     1       5.959   5.560  17.997  0.00  0.00    +0.000 N 
ATOM      6  C   UNL     1       6.340   5.683  16.596  0.00  0.00    +0.000 C 
ATOM      7  C   UNL     1       7.064   5.619  18.942  0.00  0.00    +0.000 C 
ATOM      8  H   UNL     1       3.903   4.963  16.712  0.00  0.00    +0.000 HD
ENDBRANCH   1   2
BRANCH   1   9
ATOM      9  C   UNL     1       1.727   3.903  17.723  0.00  0.00    +0.000 C 
BRANCH   9  11
ATOM     10  C   UNL     1       1.129   4.095  20.156  0.00  0.00    +0.000 C 
ATOM     11  C   UNL     1       1.398   3.102  19.010  0.00  0.00    +0.000 C 
BRANCH  11  12
ATOM     12  N   UNL     1       2.437   2.097  19.370  0.00  0.00    +0.000 NA
ATOM     13  C   UNL     1       3.306   1.771  18.230  0.00  0.00    +0.000 C 
ATOM     14  C   UNL     1       3.287   2.556  20.478  0.00  0.00    +0.000 C 
ENDBRANCH  11  12
ENDBRANCH   9  11
ENDBRANCH   1   9
TORSDOF 4
ENDMDL
MODEL 6
REMARK VINA RESULT:      -4.8      1.285      2.482
REMARK  Name = 
REMARK  9 active torsions:
REMARK  status: ('A' for Active; 'I' for Inactive)
REMARK    1  A    between atoms: C_1  and  C_2
REMARK    2  A    between atoms: C_2  and  C_3
REMARK    3  A    between atoms: C_2  and  N_11
REMARK    4  A    between atoms: C_3  and  C_4
REMARK    5  A    between atoms: C_4  and  N_5
REMARK    6  A    between atoms: N_8  and  C_9
REMARK    7  A    between atoms: N_8  and  C_10
REMARK    8  A    between atoms: N_11  and  C_12
REMARK    9  A    between atoms: N_11  and  C_13
REMARK                            x       y       z     vdW  Elec       q    Type
REMARK                         _______ _______ _______ _____ _____    ______ ____
ROOT
ATOM      1  C   UNL     1       4.547   2.597  19.743  0.00  0.00    +0.000 C 
ENDROOT
BRANCH   1   2
ATOM      2  N   UNL     1       4.954   3.116  18.443  0.00  0.00    +0.000 N 
ATOM      3  C   UNL     1       5.777   4.209  18.353  0.00  0.00    +0.000 C 
ATOM      4  O   UNL     1       6.142   4.822  19.354  0.00  0.00    +0.000 OA
ATOM      5  N   UNL     1       6.156   4.572  17.072  0.00  0.00    +0.000 N 
ATOM      6  C   UNL     1       5.644   4.018  15.826  0.00  0.00    +0.000 C 
ATOM      7  C   UNL     1       7.057   5.704  16.919  0.00  0.00    +0.000 C 
ATOM      8  H   UNL     1       5.053   2.427  17.721  0.00  0.00    +0.000 HD
ENDBRANCH   1   2
BRANCH   1   9
ATOM      9  C   UNL     1       3.030   2.644  19.929  0.00  0.00    +0.000 C 
BRANCH   9  11
ATOM     10  C   UNL     1       0.970   3.992  20.434  0.00  0.00    +0.000 C 
ATOM     11  C   UNL     1       2.442   4.078  19.986  0.00  0.00    +0.000 C 
BRANCH  11  12
ATOM     12  N   UNL     1       2.599   4.840  18.717  0.00  0.00    +0.000 NA
ATOM     13  C   UNL     1       1.618   4.428  17.703  0.00  0.00    +0.000 C 
ATOM     14  C   UNL     1       2.463   6.289  18.923  0.00  0.00    +0.000 C 
ENDBRANCH  11  12
ENDBRANCH   9  11
ENDBRANCH   1   9
TORSDOF 4
ENDMDL
MODEL 7
REMARK VINA RESULT:      -4.8      1.702      5.103
REMARK  Name = 
REMARK  9 active torsions:
REMARK  status: ('A' for Active; 'I' for Inactive)
REMARK    1  A    between atoms: C_1  and  C_2
REMARK    2  A    between atoms: C_2  and  C_3
REMARK    3  A    between atoms: C_2  and  N_11
REMARK    4  A    between atoms: C_3  and  C_4
REMARK    5  A    between atoms: C_4  and  N_5
REMARK    6  A    between atoms: N_8  and  C_9
REMARK    7  A    between atoms: N_8  and  C_10
REMARK    8  A    between atoms: N_11  and  C_12
REMARK    9  A    between atoms: N_11  and  C_13
REMARK                            x       y       z     vdW  Elec       q    Type
REMARK                         _______ _______ _______ _____ _____    ______ ____
ROOT
ATOM      1  C   UNL     1       6.152   5.182  19.049  0.00  0.00    +0.000 C 
ENDROOT
BRANCH   1   2
ATOM      2  N   UNL     1       4.764   4.839  18.764  0.00  0.00    +0.000 N 
ATOM      3  C   UNL     1       4.230   3.659  19.214  0.00  0.00    +0.000 C 
ATOM      4  O   UNL     1       4.915   2.829  19.807  0.00  0.00    +0.000 OA
ATOM      5  N   UNL     1       2.885   3.469  18.947  0.00  0.00    +0.000 N 
ATOM      6  C   UNL     1       2.039   4.308  18.111  0.00  0.00    +0.000 C 
ATOM      7  C   UNL     1       2.257   2.248  19.431  0.00  0.00    +0.000 C 
ATOM      8  H   UNL     1       4.135   5.618  18.712  0.00  0.00    +0.000 HD
ENDBRANCH   1   2
BRANCH   1   9
ATOM      9  C   UNL     1       7.089   4.759  17.917  0.00  0.00    +0.000 C 
BRANCH   9  11
ATOM     10  C   UNL     1       7.107   7.236  17.486  0.00  0.00    +0.000 C 
ATOM     11  C   UNL     1       7.316   5.853  16.840  0.00  0.00    +0.000 C 
BRANCH  11  12
ATOM     12  N   UNL     1       6.484   5.672  15.619  0.00  0.00    +0.000 NA
ATOM     13  C   UNL     1       6.169   4.257  15.372  0.00  0.00    +0.000 C 
ATOM     14  C   UNL     1       5.218   6.415  15.699  0.00  0.00    +0.000 C 
ENDBRANCH  11  12
ENDBRANCH   9  11
ENDBRANCH   1   9
TORSDOF 4
ENDMDL
MODEL 8
REMARK VINA RESULT:      -4.8      1.596      2.349
REMARK  Name = 
REMARK  9 active torsions:
REMARK  status: ('A' for Active; 'I' for Inactive)
REMARK    1  A    between atoms: C_1  and  C_2
REMARK    2  A    between atoms: C_2  and  C_3
REMARK    3  A    between atoms: C_2  and  N_11
REMARK    4  A    between atoms: C_3  and  C_4
REMARK    5  A    between atoms: C_4  and  N_5
REMARK    6  A    between atoms: N_8  and  C_9
REMARK    7  A    between atoms: N_8  and  C_10
REMARK    8  A    between atoms: N_11  and  C_12
REMARK    9  A    between atoms: N_11  and  C_13
REMARK                            x       y       z     vdW  Elec       q    Type
REMARK                         _______ _______ _______ _____ _____    ______ ____
ROOT
ATOM      1  C   UNL     1       3.784   2.705  17.754  0.00  0.00    +0.000 C 
ENDROOT
BRANCH   1   2
ATOM      2  N   UNL     1       5.056   3.418  17.755  0.00  0.00    +0.000 N 
ATOM      3  C   UNL     1       5.113   4.745  17.419  0.00  0.00    +0.000 C 
ATOM      4  O   UNL     1       4.114   5.356  17.043  0.00  0.00    +0.000 OA
ATOM      5  N   UNL     1       6.359   5.338  17.522  0.00  0.00    +0.000 N 
ATOM      6  C   UNL     1       7.622   4.663  17.790  0.00  0.00    +0.000 C 
ATOM      7  C   UNL     1       6.472   6.755  17.210  0.00  0.00    +0.000 C 
ATOM      8  H   UNL     1       5.718   3.106  18.441  0.00  0.00    +0.000 HD
ENDBRANCH   1   2
BRANCH   1   9
ATOM      9  C   UNL     1       3.194   2.586  19.160  0.00  0.00    +0.000 C 
BRANCH   9  11
ATOM     10  C   UNL     1       1.323   3.836  18.041  0.00  0.00    +0.000 C 
ATOM     11  C   UNL     1       1.690   2.954  19.250  0.00  0.00    +0.000 C 
BRANCH  11  12
ATOM     12  N   UNL     1       1.306   3.585  20.543  0.00  0.00    +0.000 NA
ATOM     13  C   UNL     1       1.593   2.711  21.689  0.00  0.00    +0.000 C 
ATOM     14  C   UNL     1       1.995   4.865  20.758  0.00  0.00    +0.000 C 
ENDBRANCH  11  12
ENDBRANCH   9  11
ENDBRANCH   1   9
TORSDOF 4
ENDMDL
MODEL 9
REMARK VINA RESULT:      -4.7      1.910      5.098
REMARK  Name = 
REMARK  9 active torsions:
REMARK  status: ('A' for Active; 'I' for Inactive)
REMARK    1  A    between atoms: C_1  and  C_2
REMARK    2  A    between atoms: C_2  and  C_3
REMARK    3  A    between atoms: C_2  and  N_11
REMARK    4  A    between atoms: C_3  and  C_4
REMARK    5  A    between atoms: C_4  and  N_5
REMARK    6  A    between atoms: N_8  and  C_9
REMARK    7  A    between atoms: N_8  and  C_10
REMARK    8  A    between atoms: N_11  and  C_12
REMARK    9  A    between atoms: N_11  and  C_13
REMARK                            x       y       z     vdW  Elec       q    Type
REMARK                         _______ _______ _______ _____ _____    ______ ____
ROOT
ATOM      1  C   UNL     1       4.179   6.178  17.573  0.00  0.00    +0.000 C 
ENDROOT
BRANCH   1   2
ATOM      2  N   UNL     1       4.049   4.963  18.367  0.00  0.00    +0.000 N 
ATOM      3  C   UNL     1       2.906   4.208  18.307  0.00  0.00    +0.000 C 
ATOM      4  O   UNL     1       1.936   4.563  17.640  0.00  0.00    +0.000 OA
ATOM      5  N   UNL     1       2.918   3.039  19.048  0.00  0.00    +0.000 N 
ATOM      6  C   UNL     1       3.944   2.623  19.995  0.00  0.00    +0.000 C 
ATOM      7  C   UNL     1       1.744   2.181  18.995  0.00  0.00    +0.000 C 
ATOM      8  H   UNL     1       4.903   4.460  18.521  0.00  0.00    +0.000 HD
ENDBRANCH   1   2
BRANCH   1   9
ATOM      9  C   UNL     1       5.028   5.954  16.320  0.00  0.00    +0.000 C 
BRANCH   9  11
ATOM     10  C   UNL     1       7.088   4.523  16.480  0.00  0.00    +0.000 C 
ATOM     11  C   UNL     1       6.557   5.966  16.580  0.00  0.00    +0.000 C 
BRANCH  11  12
ATOM     12  N   UNL     1       6.941   6.618  17.863  0.00  0.00    +0.000 NA
ATOM     13  C   UNL     1       7.724   5.720  18.723  0.00  0.00    +0.000 C 
ATOM     14  C   UNL     1       7.723   7.843  17.647  0.00  0.00    +0.000 C 
ENDBRANCH  11  12
ENDBRANCH   9  11
ENDBRANCH   1   9
TORSDOF 4
ENDMDL
