MODEL 1
REMARK VINA RESULT:      -7.6      0.000      0.000
REMARK  Name = 
REMARK  11 active torsions:
REMARK  status: ('A' for Active; 'I' for Inactive)
REMARK    1  A    between atoms: C_1  and  C_2
REMARK    2  A    between atoms: C_2  and  N_3
REMARK    3  A    between atoms: N_3  and  C_4
REMARK    4  A    between atoms: N_3  and  C_6
REMARK    5  A    between atoms: C_4  and  C_5
REMARK    6  A    between atoms: C_6  and  C_7
REMARK    7  A    between atoms: C_7  and  O_8
REMARK    8  A    between atoms: O_8  and  C_9
REMARK    9  A    between atoms: C_12  and  C_13
REMARK   10  A    between atoms: C_13  and  C_14
REMARK   11  A    between atoms: C_15  and  O_16
REMARK                            x       y       z     vdW  Elec       q    Type
REMARK                         _______ _______ _______ _____ _____    ______ ____
ROOT
ATOM      1  C   UNL     1       7.750   7.101  18.246  0.00  0.00    +0.000 A 
ATOM      2  C   UNL     1       6.823   7.424  17.236  0.00  0.00    +0.000 A 
ATOM      3  C   UNL     1       5.853   6.530  16.833  0.00  0.00    +0.000 A 
ATOM      4  C   UNL     1       5.737   5.264  17.425  0.00  0.00    +0.000 A 
ATOM      5  C   UNL     1       6.670   4.923  18.418  0.00  0.00    +0.000 A 
ATOM      6  C   UNL     1       7.671   5.837  18.826  0.00  0.00    +0.000 A 
ENDROOT
BRANCH   1   7
ATOM      7  O   UNL     1       8.735   7.944  18.710  0.00  0.00    +0.000 OA
BRANCH   7   8
ATOM      8  C   UNL     1       8.572   9.298  18.269  0.00  0.00    +0.000 C 
BRANCH   8   9
ATOM      9  C   UNL     1       9.129  10.327  19.258  0.00  0.00    +0.000 C 
BRANCH   9  10
ATOM     10  N   UNL     1       9.962  11.366  18.599  0.00  0.00    +0.000 NA
BRANCH  10  12
ATOM     11  C   UNL     1       9.416  13.680  17.759  0.00  0.00    +0.000 C 
ATOM     12  C   UNL     1       9.127  12.182  17.704  0.00  0.00    +0.000 C 
ENDBRANCH  10  12
BRANCH  10  13
ATOM     13  C   UNL     1      10.788  12.156  19.531  0.00  0.00    +0.000 C 
ATOM     14  C   UNL     1      12.278  11.835  19.538  0.00  0.00    +0.000 C 
ENDBRANCH  10  13
ENDBRANCH   9  10
ENDBRANCH   8   9
ENDBRANCH   7   8
ENDBRANCH   1   7
BRANCH   4  15
ATOM     15  C   UNL     1       4.621   4.343  16.977  0.00  0.00    +0.000 C 
BRANCH  15  16
ATOM     16  C   UNL     1       3.801   3.739  18.106  0.00  0.00    +0.000 A 
ATOM     17  C   UNL     1       3.627   2.341  18.171  0.00  0.00    +0.000 A 
ATOM     18  C   UNL     1       2.765   1.756  19.086  0.00  0.00    +0.000 A 
ATOM     19  C   UNL     1       2.009   2.547  19.934  0.00  0.00    +0.000 A 
ATOM     20  C   UNL     1       2.109   3.938  19.876  0.00  0.00    +0.000 A 
ATOM     21  C   UNL     1       1.198   4.703  20.618  0.00  0.00    +0.000 A 
ATOM     22  C   UNL     1       1.223   6.090  20.563  0.00  0.00    +0.000 A 
ATOM     23  C   UNL     1       2.276   6.723  19.921  0.00  0.00    +0.000 A 
ATOM     24  C   UNL     1       3.185   5.972  19.164  0.00  0.00    +0.000 A 
ATOM     25  C   UNL     1       3.066   4.562  19.031  0.00  0.00    +0.000 A 
BRANCH  17  26
ATOM     26  O   UNL     1       4.262   1.458  17.342  0.00  0.00    +0.000 OA
ATOM     27  H   UNL     1       5.203   1.428  17.563  0.00  0.00    +0.000 HD
ENDBRANCH  17  26
ENDBRANCH  15  16
ENDBRANCH   4  15
TORSDOF 9
ENDMDL
MODEL 2
REMARK VINA RESULT:      -7.5      5.337      8.468
REMARK  Name = 
REMARK  11 active torsions:
REMARK  status: ('A' for Active; 'I' for Inactive)
REMARK    1  A    between atoms: C_1  and  C_2
REMARK    2  A    between atoms: C_2  and  N_3
REMARK    3  A    between atoms: N_3  and  C_4
REMARK    4  A    between atoms: N_3  and  C_6
REMARK    5  A    between atoms: C_4  and  C_5
REMARK    6  A    between atoms: C_6  and  C_7
REMARK    7  A    between atoms: C_7  and  O_8
REMARK    8  A    between atoms: O_8  and  C_9
REMARK    9  A    between atoms: C_12  and  C_13
REMARK   10  A    between atoms: C_13  and  C_14
REMARK   11  A    between atoms: C_15  and  O_16
REMARK                            x       y       z     vdW  Elec       q    Type
REMARK                         _______ _______ _______ _____ _____    ______ ____
ROOT
ATOM      1  C   UNL     1       0.344   9.886  19.547  0.00  0.00    +0.000 A 
ATOM      2  C   UNL     1       1.240   9.376  18.586  0.00  0.00    +0.000 A 
ATOM      3  C   UNL     1       2.006   8.258  18.835  0.00  0.00    +0.000 A 
ATOM      4  C   UNL     1       1.913   7.566  20.052  0.00  0.00    +0.000 A 
ATOM      5  C   UNL     1       1.039   8.078  21.024  0.00  0.00    +0.000 A 
ATOM      6  C   UNL     1       0.258   9.231  20.773  0.00  0.00    +0.000 A 
ENDROOT
BRANCH   1   7
ATOM      7  O   UNL     1      -0.463  10.987  19.366  0.00  0.00    +0.000 OA
BRANCH   7   8
ATOM      8  C   UNL     1      -1.189  10.958  18.129  0.00  0.00    +0.000 C 
BRANCH   8   9
ATOM      9  C   UNL     1      -2.565  11.625  18.221  0.00  0.00    +0.000 C 
BRANCH   9  10
ATOM     10  N   UNL     1      -3.344  11.509  16.961  0.00  0.00    +0.000 NA
BRANCH  10  12
ATOM     11  C   UNL     1      -3.431  10.252  14.776  0.00  0.00    +0.000 C 
ATOM     12  C   UNL     1      -2.616  10.666  16.000  0.00  0.00    +0.000 C 
ENDBRANCH  10  12
BRANCH  10  13
ATOM     13  C   UNL     1      -4.751  11.113  17.158  0.00  0.00    +0.000 C 
ATOM     14  C   UNL     1      -5.734  12.250  17.410  0.00  0.00    +0.000 C 
ENDBRANCH  10  13
ENDBRANCH   9  10
ENDBRANCH   8   9
ENDBRANCH   7   8
ENDBRANCH   1   7
BRANCH   4  15
ATOM     15  C   UNL     1       2.742   6.314  20.249  0.00  0.00    +0.000 C 
BRANCH  15  16
ATOM     16  C   UNL     1       2.590   5.269  19.155  0.00  0.00    +0.000 A 
ATOM     17  C   UNL     1       1.609   4.265  19.282  0.00  0.00    +0.000 A 
ATOM     18  C   UNL     1       1.533   3.204  18.391  0.00  0.00    +0.000 A 
ATOM     19  C   UNL     1       2.465   3.082  17.374  0.00  0.00    +0.000 A 
ATOM     20  C   UNL     1       3.484   4.024  17.235  0.00  0.00    +0.000 A 
ATOM     21  C   UNL     1       4.509   3.767  16.314  0.00  0.00    +0.000 A 
ATOM     22  C   UNL     1       5.572   4.648  16.166  0.00  0.00    +0.000 A 
ATOM     23  C   UNL     1       5.520   5.881  16.797  0.00  0.00    +0.000 A 
ATOM     24  C   UNL     1       4.511   6.146  17.731  0.00  0.00    +0.000 A 
ATOM     25  C   UNL     1       3.520   5.181  18.060  0.00  0.00    +0.000 A 
BRANCH  17  26
ATOM     26  O   UNL     1       0.677   4.235  20.282  0.00  0.00    +0.000 OA
ATOM     27  H   UNL     1       1.116   4.065  21.126  0.00  0.00    +0.000 HD
ENDBRANCH  17  26
ENDBRANCH  15  16
ENDBRANCH   4  15
TORSDOF 9
ENDMDL
MODEL 3
REMARK VINA RESULT:      -7.5      5.289      8.472
REMARK  Name = 
REMARK  11 active torsions:
REMARK  status: ('A' for Active; 'I' for Inactive)
REMARK    1  A    between atoms: C_1  and  C_2
REMARK    2  A    between atoms: C_2  and  N_3
REMARK    3  A    between atoms: N_3  and  C_4
REMARK    4  A    between atoms: N_3  and  C_6
REMARK    5  A    between atoms: C_4  and  C_5
REMARK    6  A    between atoms: C_6  and  C_7
REMARK    7  A    between atoms: C_7  and  O_8
REMARK    8  A    between atoms: O_8  and  C_9
REMARK    9  A    between atoms: C_12  and  C_13
REMARK   10  A    between atoms: C_13  and  C_14
REMARK   11  A    between atoms: C_15  and  O_16
REMARK                            x       y       z     vdW  Elec       q    Type
REMARK                         _______ _______ _______ _____ _____    ______ ____
ROOT
ATOM      1  C   UNL     1       0.041   9.875  19.728  0.00  0.00    +0.000 A 
ATOM      2  C   UNL     1       0.926   9.493  18.700  0.00  0.00    +0.000 A 
ATOM      3  C   UNL     1       1.814   8.452  18.861  0.00  0.00    +0.000 A 
ATOM      4  C   UNL     1       1.864   7.713  20.052  0.00  0.00    +0.000 A 
ATOM      5  C   UNL     1       1.001   8.098  21.091  0.00  0.00    +0.000 A 
ATOM      6  C   UNL     1       0.094   9.172  20.929  0.00  0.00    +0.000 A 
ENDROOT
BRANCH   1   7
ATOM      7  O   UNL     1      -0.882  10.893  19.636  0.00  0.00    +0.000 OA
BRANCH   7   8
ATOM      8  C   UNL     1      -1.097  11.340  18.291  0.00  0.00    +0.000 C 
BRANCH   8   9
ATOM      9  C   UNL     1      -2.539  11.786  18.025  0.00  0.00    +0.000 C 
BRANCH   9  10
ATOM     10  N   UNL     1      -3.374  10.708  17.436  0.00  0.00    +0.000 NA
BRANCH  10  12
ATOM     11  C   UNL     1      -5.796  11.186  17.954  0.00  0.00    +0.000 C 
ATOM     12  C   UNL     1      -4.646  11.270  16.954  0.00  0.00    +0.000 C 
ENDBRANCH  10  12
BRANCH  10  13
ATOM     13  C   UNL     1      -2.672   9.878  16.441  0.00  0.00    +0.000 C 
ATOM     14  C   UNL     1      -2.885  10.265  14.982  0.00  0.00    +0.000 C 
ENDBRANCH  10  13
ENDBRANCH   9  10
ENDBRANCH   8   9
ENDBRANCH   7   8
ENDBRANCH   1   7
BRANCH   4  15
ATOM     15  C   UNL     1       2.824   6.546  20.153  0.00  0.00    +0.000 C 
BRANCH  15  16
ATOM     16  C   UNL     1       2.668   5.495  19.066  0.00  0.00    +0.000 A 
ATOM     17  C   UNL     1       1.724   4.460  19.228  0.00  0.00    +0.000 A 
ATOM     18  C   UNL     1       1.652   3.395  18.342  0.00  0.00    +0.000 A 
ATOM     19  C   UNL     1       2.551   3.300  17.293  0.00  0.00    +0.000 A 
ATOM     20  C   UNL     1       3.534   4.275  17.117  0.00  0.00    +0.000 A 
ATOM     21  C   UNL     1       4.534   4.048  16.161  0.00  0.00    +0.000 A 
ATOM     22  C   UNL     1       5.561   4.963  15.975  0.00  0.00    +0.000 A 
ATOM     23  C   UNL     1       5.493   6.195  16.606  0.00  0.00    +0.000 A 
ATOM     24  C   UNL     1       4.508   6.430  17.574  0.00  0.00    +0.000 A 
ATOM     25  C   UNL     1       3.561   5.435  17.939  0.00  0.00    +0.000 A 
BRANCH  17  26
ATOM     26  O   UNL     1       0.830   4.402  20.261  0.00  0.00    +0.000 OA
ATOM     27  H   UNL     1       1.250   3.990  21.028  0.00  0.00    +0.000 HD
ENDBRANCH  17  26
ENDBRANCH  15  16
ENDBRANCH   4  15
TORSDOF 9
ENDMDL
MODEL 4
REMARK VINA RESULT:      -7.5      0.528      1.145
REMARK  Name = 
REMARK  11 active torsions:
REMARK  status: ('A' for Active; 'I' for Inactive)
REMARK    1  A    between atoms: C_1  and  C_2
REMARK    2  A    between atoms: C_2  and  N_3
REMARK    3  A    between atoms: N_3  and  C_4
REMARK    4  A    between atoms: N_3  and  C_6
REMARK    5  A    between atoms: C_4  and  C_5
REMARK    6  A    between atoms: C_6  and  C_7
REMARK    7  A    between atoms: C_7  and  O_8
REMARK    8  A    between atoms: O_8  and  C_9
REMARK    9  A    between atoms: C_12  and  C_13
REMARK   10  A    between atoms: C_13  and  C_14
REMARK   11  A    between atoms: C_15  and  O_16
REMARK                            x       y       z     vdW  Elec       q    Type
REMARK                         _______ _______ _______ _____ _____    ______ ____
ROOT
ATOM      1  C   UNL     1       7.836   7.148  18.327  0.00  0.00    +0.000 A 
ATOM      2  C   UNL     1       7.608   5.882  18.902  0.00  0.00    +0.000 A 
ATOM      3  C   UNL     1       6.577   5.072  18.479  0.00  0.00    +0.000 A 
ATOM      4  C   UNL     1       5.717   5.466  17.442  0.00  0.00    +0.000 A 
ATOM      5  C   UNL     1       5.923   6.735  16.876  0.00  0.00    +0.000 A 
ATOM      6  C   UNL     1       6.977   7.571  17.316  0.00  0.00    +0.000 A 
ENDROOT
BRANCH   1   7
ATOM      7  O   UNL     1       8.853   8.005  18.686  0.00  0.00    +0.000 OA
BRANCH   7   8
ATOM      8  C   UNL     1       8.551   9.381  18.419  0.00  0.00    +0.000 C 
BRANCH   8   9
ATOM      9  C   UNL     1       9.164  10.344  19.441  0.00  0.00    +0.000 C 
BRANCH   9  10
ATOM     10  N   UNL     1      10.296  11.128  18.885  0.00  0.00    +0.000 NA
BRANCH  10  12
ATOM     11  C   UNL     1      10.867  12.942  17.228  0.00  0.00    +0.000 C 
ATOM     12  C   UNL     1       9.818  11.983  17.787  0.00  0.00    +0.000 C 
ENDBRANCH  10  12
BRANCH  10  13
ATOM     13  C   UNL     1      11.086  11.848  19.901  0.00  0.00    +0.000 C 
ATOM     14  C   UNL     1      10.306  12.382  21.097  0.00  0.00    +0.000 C 
ENDBRANCH  10  13
ENDBRANCH   9  10
ENDBRANCH   8   9
ENDBRANCH   7   8
ENDBRANCH   1   7
BRANCH   4  15
ATOM     15  C   UNL     1       4.633   4.513  16.985  0.00  0.00    +0.000 C 
BRANCH  15  16
ATOM     16  C   UNL     1       3.823   3.883  18.107  0.00  0.00    +0.000 A 
ATOM     17  C   UNL     1       3.669   2.482  18.153  0.00  0.00    +0.000 A 
ATOM     18  C   UNL     1       2.816   1.872  19.062  0.00  0.00    +0.000 A 
ATOM     19  C   UNL     1       2.050   2.642  19.921  0.00  0.00    +0.000 A 
ATOM     20  C   UNL     1       2.131   4.035  19.882  0.00  0.00    +0.000 A 
ATOM     21  C   UNL     1       1.210   4.778  20.634  0.00  0.00    +0.000 A 
ATOM     22  C   UNL     1       1.216   6.165  20.597  0.00  0.00    +0.000 A 
ATOM     23  C   UNL     1       2.259   6.821  19.962  0.00  0.00    +0.000 A 
ATOM     24  C   UNL     1       3.177   6.093  19.195  0.00  0.00    +0.000 A 
ATOM     25  C   UNL     1       3.078   4.683  19.043  0.00  0.00    +0.000 A 
BRANCH  17  26
ATOM     26  O   UNL     1       4.315   1.618  17.313  0.00  0.00    +0.000 OA
ATOM     27  H   UNL     1       5.232   1.516  17.599  0.00  0.00    +0.000 HD
ENDBRANCH  17  26
ENDBRANCH  15  16
ENDBRANCH   4  15
TORSDOF 9
ENDMDL
MODEL 5
REMARK VINA RESULT:      -7.5      5.349      8.496
REMARK  Name = 
REMARK  11 active torsions:
REMARK  status: ('A' for Active; 'I' for Inactive)
REMARK    1  A    between atoms: C_1  and  C_2
REMARK    2  A    between atoms: C_2  and  N_3
REMARK    3  A    between atoms: N_3  and  C_4
REMARK    4  A    between atoms: N_3  and  C_6
REMARK    5  A    between atoms: C_4  and  C_5
REMARK    6  A    between atoms: C_6  and  C_7
REMARK    7  A    between atoms: C_7  and  O_8
REMARK    8  A    between atoms: O_8  and  C_9
REMARK    9  A    between atoms: C_12  and  C_13
REMARK   10  A    between atoms: C_13  and  C_14
REMARK   11  A    between atoms: C_15  and  O_16
REMARK                            x       y       z     vdW  Elec       q    Type
REMARK                         _______ _______ _______ _____ _____    ______ ____
ROOT
ATOM      1  C   UNL     1       0.213  10.150  19.178  0.00  0.00    +0.000 A 
ATOM      2  C   UNL     1       0.303   9.504  20.427  0.00  0.00    +0.000 A 
ATOM      3  C   UNL     1       1.121   8.411  20.618  0.00  0.00    +0.000 A 
ATOM      4  C   UNL     1       1.915   7.904  19.578  0.00  0.00    +0.000 A 
ATOM      5  C   UNL     1       1.817   8.528  18.323  0.00  0.00    +0.000 A 
ATOM      6  C   UNL     1       0.971   9.645  18.125  0.00  0.00    +0.000 A 
ENDROOT
BRANCH   1   7
ATOM      7  O   UNL     1      -0.569  11.253  18.916  0.00  0.00    +0.000 OA
BRANCH   7   8
ATOM      8  C   UNL     1      -1.356  11.117  17.725  0.00  0.00    +0.000 C 
BRANCH   8   9
ATOM      9  C   UNL     1      -2.705  10.432  17.968  0.00  0.00    +0.000 C 
BRANCH   9  10
ATOM     10  N   UNL     1      -3.662  10.635  16.850  0.00  0.00    +0.000 NA
BRANCH  10  12
ATOM     11  C   UNL     1      -4.715  11.905  18.758  0.00  0.00    +0.000 C 
ATOM     12  C   UNL     1      -4.742  11.539  17.275  0.00  0.00    +0.000 C 
ENDBRANCH  10  12
BRANCH  10  13
ATOM     13  C   UNL     1      -3.026  11.023  15.577  0.00  0.00    +0.000 C 
ATOM     14  C   UNL     1      -2.992   9.950  14.495  0.00  0.00    +0.000 C 
ENDBRANCH  10  13
ENDBRANCH   9  10
ENDBRANCH   8   9
ENDBRANCH   7   8
ENDBRANCH   1   7
BRANCH   4  15
ATOM     15  C   UNL     1       2.833   6.733  19.859  0.00  0.00    +0.000 C 
BRANCH  15  16
ATOM     16  C   UNL     1       2.764   5.609  18.838  0.00  0.00    +0.000 A 
ATOM     17  C   UNL     1       1.877   4.532  19.046  0.00  0.00    +0.000 A 
ATOM     18  C   UNL     1       1.887   3.412  18.229  0.00  0.00    +0.000 A 
ATOM     19  C   UNL     1       2.816   3.305  17.206  0.00  0.00    +0.000 A 
ATOM     20  C   UNL     1       3.745   4.323  16.989  0.00  0.00    +0.000 A 
ATOM     21  C   UNL     1       4.779   4.096  16.070  0.00  0.00    +0.000 A 
ATOM     22  C   UNL     1       5.757   5.056  15.847  0.00  0.00    +0.000 A 
ATOM     23  C   UNL     1       5.602   6.320  16.397  0.00  0.00    +0.000 A 
ATOM     24  C   UNL     1       4.583   6.555  17.328  0.00  0.00    +0.000 A 
ATOM     25  C   UNL     1       3.686   5.531  17.736  0.00  0.00    +0.000 A 
BRANCH  17  26
ATOM     26  O   UNL     1       0.963   4.486  20.062  0.00  0.00    +0.000 OA
ATOM     27  H   UNL     1       0.496   5.331  20.114  0.00  0.00    +0.000 HD
ENDBRANCH  17  26
ENDBRANCH  15  16
ENDBRANCH   4  15
TORSDOF 9
ENDMDL
MODEL 6
REMARK VINA RESULT:      -7.3      0.495      1.327
REMARK  Name = 
REMARK  11 active torsions:
REMARK  status: ('A' for Active; 'I' for Inactive)
REMARK    1  A    between atoms: C_1  and  C_2
REMARK    2  A    between atoms: C_2  and  N_3
REMARK    3  A    between atoms: N_3  and  C_4
REMARK    4  A    between atoms: N_3  and  C_6
REMARK    5  A    between atoms: C_4  and  C_5
REMARK    6  A    between atoms: C_6  and  C_7
REMARK    7  A    between atoms: C_7  and  O_8
REMARK    8  A    between atoms: O_8  and  C_9
REMARK    9  A    between atoms: C_12  and  C_13
REMARK   10  A    between atoms: C_13  and  C_14
REMARK   11  A    between atoms: C_15  and  O_16
REMARK                            x       y       z     vdW  Elec       q    Type
REMARK                         _______ _______ _______ _____ _____    ______ ____
ROOT
ATOM      1  C   UNL     1       7.708   7.230  18.146  0.00  0.00    +0.000 A 
ATOM      2  C   UNL     1       6.787   7.458  17.104  0.00  0.00    +0.000 A 
ATOM      3  C   UNL     1       5.842   6.517  16.756  0.00  0.00    +0.000 A 
ATOM      4  C   UNL     1       5.744   5.295  17.439  0.00  0.00    +0.000 A 
ATOM      5  C   UNL     1       6.671   5.049  18.465  0.00  0.00    +0.000 A 
ATOM      6  C   UNL     1       7.647   6.012  18.817  0.00  0.00    +0.000 A 
ENDROOT
BRANCH   1   7
ATOM      7  O   UNL     1       8.669   8.127  18.559  0.00  0.00    +0.000 OA
BRANCH   7   8
ATOM      8  C   UNL     1       8.390   9.476  18.159  0.00  0.00    +0.000 C 
BRANCH   8   9
ATOM      9  C   UNL     1       9.568  10.429  18.390  0.00  0.00    +0.000 C 
BRANCH   9  10
ATOM     10  N   UNL     1       9.136  11.778  18.835  0.00  0.00    +0.000 NA
BRANCH  10  12
ATOM     11  C   UNL     1      11.196  12.036  20.267  0.00  0.00    +0.000 C 
ATOM     12  C   UNL     1       9.672  12.057  20.177  0.00  0.00    +0.000 C 
ENDBRANCH  10  12
BRANCH  10  13
ATOM     13  C   UNL     1       9.396  12.848  17.854  0.00  0.00    +0.000 C 
ATOM     14  C   UNL     1       8.833  14.222  18.201  0.00  0.00    +0.000 C 
ENDBRANCH  10  13
ENDBRANCH   9  10
ENDBRANCH   8   9
ENDBRANCH   7   8
ENDBRANCH   1   7
BRANCH   4  15
ATOM     15  C   UNL     1       4.654   4.321  17.047  0.00  0.00    +0.000 C 
BRANCH  15  16
ATOM     16  C   UNL     1       3.820   3.797  18.205  0.00  0.00    +0.000 A 
ATOM     17  C   UNL     1       3.617   2.408  18.346  0.00  0.00    +0.000 A 
ATOM     18  C   UNL     1       2.742   1.892  19.290  0.00  0.00    +0.000 A 
ATOM     19  C   UNL     1       2.001   2.745  20.092  0.00  0.00    +0.000 A 
ATOM     20  C   UNL     1       2.132   4.128  19.959  0.00  0.00    +0.000 A 
ATOM     21  C   UNL     1       1.236   4.952  20.655  0.00  0.00    +0.000 A 
ATOM     22  C   UNL     1       1.290   6.332  20.524  0.00  0.00    +0.000 A 
ATOM     23  C   UNL     1       2.357   6.907  19.851  0.00  0.00    +0.000 A 
ATOM     24  C   UNL     1       3.250   6.097  19.139  0.00  0.00    +0.000 A 
ATOM     25  C   UNL     1       3.102   4.684  19.082  0.00  0.00    +0.000 A 
BRANCH  17  26
ATOM     26  O   UNL     1       4.234   1.468  17.569  0.00  0.00    +0.000 OA
ATOM     27  H   UNL     1       3.591   1.081  16.960  0.00  0.00    +0.000 HD
ENDBRANCH  17  26
ENDBRANCH  15  16
ENDBRANCH   4  15
TORSDOF 9
ENDMDL
MODEL 7
REMARK VINA RESULT:      -7.2      5.333      8.361
REMARK  Name = 
REMARK  11 active torsions:
REMARK  status: ('A' for Active; 'I' for Inactive)
REMARK    1  A    between atoms: C_1  and  C_2
REMARK    2  A    between atoms: C_2  and  N_3
REMARK    3  A    between atoms: N_3  and  C_4
REMARK    4  A    between atoms: N_3  and  C_6
REMARK    5  A    between atoms: C_4  and  C_5
REMARK    6  A    between atoms: C_6  and  C_7
REMARK    7  A    between atoms: C_7  and  O_8
REMARK    8  A    between atoms: O_8  and  C_9
REMARK    9  A    between atoms: C_12  and  C_13
REMARK   10  A    between atoms: C_13  and  C_14
REMARK   11  A    between atoms: C_15  and  O_16
REMARK                            x       y       z     vdW  Elec       q    Type
REMARK                         _______ _______ _______ _____ _____    ______ ____
ROOT
ATOM      1  C   UNL     1       0.366   9.615  18.850  0.00  0.00    +0.000 A 
ATOM      2  C   UNL     1       0.690   9.043  20.096  0.00  0.00    +0.000 A 
ATOM      3  C   UNL     1       1.712   8.129  20.228  0.00  0.00    +0.000 A 
ATOM      4  C   UNL     1       2.489   7.739  19.126  0.00  0.00    +0.000 A 
ATOM      5  C   UNL     1       2.161   8.287  17.875  0.00  0.00    +0.000 A 
ATOM      6  C   UNL     1       1.106   9.220  17.738  0.00  0.00    +0.000 A 
ENDROOT
BRANCH   1   7
ATOM      7  O   UNL     1      -0.630  10.544  18.644  0.00  0.00    +0.000 OA
BRANCH   7   8
ATOM      8  C   UNL     1      -1.385  10.306  17.448  0.00  0.00    +0.000 C 
BRANCH   8   9
ATOM      9  C   UNL     1      -2.824   9.855  17.722  0.00  0.00    +0.000 C 
BRANCH   9  10
ATOM     10  N   UNL     1      -3.815  10.544  16.857  0.00  0.00    +0.000 NA
BRANCH  10  12
ATOM     11  C   UNL     1      -6.002  11.303  17.859  0.00  0.00    +0.000 C 
ATOM     12  C   UNL     1      -4.518  11.580  17.630  0.00  0.00    +0.000 C 
ENDBRANCH  10  12
BRANCH  10  13
ATOM     13  C   UNL     1      -3.266  11.025  15.576  0.00  0.00    +0.000 C 
ATOM     14  C   UNL     1      -3.376  10.061  14.400  0.00  0.00    +0.000 C 
ENDBRANCH  10  13
ENDBRANCH   9  10
ENDBRANCH   8   9
ENDBRANCH   7   8
ENDBRANCH   1   7
BRANCH   4  15
ATOM     15  C   UNL     1       3.632   6.769  19.339  0.00  0.00    +0.000 C 
BRANCH  15  16
ATOM     16  C   UNL     1       3.487   5.442  18.611  0.00  0.00    +0.000 A 
ATOM     17  C   UNL     1       4.096   5.269  17.351  0.00  0.00    +0.000 A 
ATOM     18  C   UNL     1       3.866   4.139  16.580  0.00  0.00    +0.000 A 
ATOM     19  C   UNL     1       2.981   3.167  17.017  0.00  0.00    +0.000 A 
ATOM     20  C   UNL     1       2.317   3.315  18.235  0.00  0.00    +0.000 A 
ATOM     21  C   UNL     1       1.298   2.406  18.553  0.00  0.00    +0.000 A 
ATOM     22  C   UNL     1       0.574   2.532  19.731  0.00  0.00    +0.000 A 
ATOM     23  C   UNL     1       0.989   3.448  20.685  0.00  0.00    +0.000 A 
ATOM     24  C   UNL     1       1.995   4.371  20.375  0.00  0.00    +0.000 A 
ATOM     25  C   UNL     1       2.618   4.403  19.098  0.00  0.00    +0.000 A 
BRANCH  17  26
ATOM     26  O   UNL     1       4.932   6.187  16.779  0.00  0.00    +0.000 OA
ATOM     27  H   UNL     1       4.625   7.078  16.990  0.00  0.00    +0.000 HD
ENDBRANCH  17  26
ENDBRANCH  15  16
ENDBRANCH   4  15
TORSDOF 9
ENDMDL
MODEL 8
REMARK VINA RESULT:      -7.1      1.055      1.287
REMARK  Name = 
REMARK  11 active torsions:
REMARK  status: ('A' for Active; 'I' for Inactive)
REMARK    1  A    between atoms: C_1  and  C_2
REMARK    2  A    between atoms: C_2  and  N_3
REMARK    3  A    between atoms: N_3  and  C_4
REMARK    4  A    between atoms: N_3  and  C_6
REMARK    5  A    between atoms: C_4  and  C_5
REMARK    6  A    between atoms: C_6  and  C_7
REMARK    7  A    between atoms: C_7  and  O_8
REMARK    8  A    between atoms: O_8  and  C_9
REMARK    9  A    between atoms: C_12  and  C_13
REMARK   10  A    between atoms: C_13  and  C_14
REMARK   11  A    between atoms: C_15  and  O_16
REMARK                            x       y       z     vdW  Elec       q    Type
REMARK                         _______ _______ _______ _____ _____    ______ ____
ROOT
ATOM      1  C   UNL     1       7.044   6.761  16.869  0.00  0.00    +0.000 A 
ATOM      2  C   UNL     1       5.834   6.945  16.170  0.00  0.00    +0.000 A 
ATOM      3  C   UNL     1       4.822   6.010  16.221  0.00  0.00    +0.000 A 
ATOM      4  C   UNL     1       4.947   4.841  16.986  0.00  0.00    +0.000 A 
ATOM      5  C   UNL     1       6.157   4.637  17.669  0.00  0.00    +0.000 A 
ATOM      6  C   UNL     1       7.199   5.593  17.611  0.00  0.00    +0.000 A 
ENDROOT
BRANCH   1   7
ATOM      7  O   UNL     1       8.092   7.655  16.878  0.00  0.00    +0.000 OA
BRANCH   7   8
ATOM      8  C   UNL     1       8.236   8.341  18.129  0.00  0.00    +0.000 C 
BRANCH   8   9
ATOM      9  C   UNL     1       8.315   9.864  17.976  0.00  0.00    +0.000 C 
BRANCH   9  10
ATOM     10  N   UNL     1       9.536  10.441  18.596  0.00  0.00    +0.000 NA
BRANCH  10  12
ATOM     11  C   UNL     1       8.731  12.616  17.603  0.00  0.00    +0.000 C 
ATOM     12  C   UNL     1       9.905  11.687  17.906  0.00  0.00    +0.000 C 
ENDBRANCH  10  12
BRANCH  10  13
ATOM     13  C   UNL     1       9.462  10.571  20.063  0.00  0.00    +0.000 C 
ATOM     14  C   UNL     1      10.286  11.697  20.675  0.00  0.00    +0.000 C 
ENDBRANCH  10  13
ENDBRANCH   9  10
ENDBRANCH   8   9
ENDBRANCH   7   8
ENDBRANCH   1   7
BRANCH   4  15
ATOM     15  C   UNL     1       3.782   3.874  17.044  0.00  0.00    +0.000 C 
BRANCH  15  16
ATOM     16  C   UNL     1       3.141   3.731  18.415  0.00  0.00    +0.000 A 
ATOM     17  C   UNL     1       2.789   2.450  18.889  0.00  0.00    +0.000 A 
ATOM     18  C   UNL     1       2.064   2.280  20.060  0.00  0.00    +0.000 A 
ATOM     19  C   UNL     1       1.622   3.384  20.771  0.00  0.00    +0.000 A 
ATOM     20  C   UNL     1       1.905   4.673  20.318  0.00  0.00    +0.000 A 
ATOM     21  C   UNL     1       1.288   5.756  20.960  0.00  0.00    +0.000 A 
ATOM     22  C   UNL     1       1.497   7.056  20.523  0.00  0.00    +0.000 A 
ATOM     23  C   UNL     1       2.471   7.301  19.567  0.00  0.00    +0.000 A 
ATOM     24  C   UNL     1       3.084   6.229  18.906  0.00  0.00    +0.000 A 
ATOM     25  C   UNL     1       2.741   4.878  19.187  0.00  0.00    +0.000 A 
BRANCH  17  26
ATOM     26  O   UNL     1       3.103   1.287  18.243  0.00  0.00    +0.000 OA
ATOM     27  H   UNL     1       2.328   0.965  17.763  0.00  0.00    +0.000 HD
ENDBRANCH  17  26
ENDBRANCH  15  16
ENDBRANCH   4  15
TORSDOF 9
ENDMDL
MODEL 9
REMARK VINA RESULT:      -7.0      4.826      8.057
REMARK  Name = 
REMARK  11 active torsions:
REMARK  status: ('A' for Active; 'I' for Inactive)
REMARK    1  A    between atoms: C_1  and  C_2
REMARK    2  A    between atoms: C_2  and  N_3
REMARK    3  A    between atoms: N_3  and  C_4
REMARK    4  A    between atoms: N_3  and  C_6
REMARK    5  A    between atoms: C_4  and  C_5
REMARK    6  A    between atoms: C_6  and  C_7
REMARK    7  A    between atoms: C_7  and  O_8
REMARK    8  A    between atoms: O_8  and  C_9
REMARK    9  A    between atoms: C_12  and  C_13
REMARK   10  A    between atoms: C_13  and  C_14
REMARK   11  A    between atoms: C_15  and  O_16
REMARK                            x       y       z     vdW  Elec       q    Type
REMARK                         _______ _______ _______ _____ _____    ______ ____
ROOT
ATOM      1  C   UNL     1       1.019   9.444  19.640  0.00  0.00    +0.000 A 
ATOM      2  C   UNL     1       1.744   8.859  18.583  0.00  0.00    +0.000 A 
ATOM      3  C   UNL     1       2.349   7.627  18.716  0.00  0.00    +0.000 A 
ATOM      4  C   UNL     1       2.254   6.893  19.908  0.00  0.00    +0.000 A 
ATOM      5  C   UNL     1       1.552   7.477  20.976  0.00  0.00    +0.000 A 
ATOM      6  C   UNL     1       0.938   8.745  20.842  0.00  0.00    +0.000 A 
ENDROOT
BRANCH   1   7
ATOM      7  O   UNL     1       0.377  10.661  19.577  0.00  0.00    +0.000 OA
BRANCH   7   8
ATOM      8  C   UNL     1      -0.342  10.856  18.352  0.00  0.00    +0.000 C 
BRANCH   8   9
ATOM      9  C   UNL     1      -1.749  11.425  18.562  0.00  0.00    +0.000 C 
BRANCH   9  10
ATOM     10  N   UNL     1      -2.798  10.639  17.863  0.00  0.00    +0.000 NA
BRANCH  10  12
ATOM     11  C   UNL     1      -4.782  11.877  18.806  0.00  0.00    +0.000 C 
ATOM     12  C   UNL     1      -3.958  11.498  17.578  0.00  0.00    +0.000 C 
ENDBRANCH  10  12
BRANCH  10  13
ATOM     13  C   UNL     1      -2.307   9.891  16.691  0.00  0.00    +0.000 C 
ATOM     14  C   UNL     1      -2.840  10.347  15.338  0.00  0.00    +0.000 C 
ENDBRANCH  10  13
ENDBRANCH   9  10
ENDBRANCH   8   9
ENDBRANCH   7   8
ENDBRANCH   1   7
BRANCH   4  15
ATOM     15  C   UNL     1       2.896   5.524  19.980  0.00  0.00    +0.000 C 
BRANCH  15  16
ATOM     16  C   UNL     1       3.471   5.019  18.666  0.00  0.00    +0.000 A 
ATOM     17  C   UNL     1       2.650   4.293  17.779  0.00  0.00    +0.000 A 
ATOM     18  C   UNL     1       3.165   3.682  16.645  0.00  0.00    +0.000 A 
ATOM     19  C   UNL     1       4.524   3.730  16.385  0.00  0.00    +0.000 A 
ATOM     20  C   UNL     1       5.386   4.396  17.258  0.00  0.00    +0.000 A 
ATOM     21  C   UNL     1       6.767   4.267  17.059  0.00  0.00    +0.000 A 
ATOM     22  C   UNL     1       7.670   4.870  17.923  0.00  0.00    +0.000 A 
ATOM     23  C   UNL     1       7.203   5.762  18.876  0.00  0.00    +0.000 A 
ATOM     24  C   UNL     1       5.826   5.890  19.096  0.00  0.00    +0.000 A 
ATOM     25  C   UNL     1       4.874   5.128  18.364  0.00  0.00    +0.000 A 
BRANCH  17  26
ATOM     26  O   UNL     1       1.307   4.113  17.961  0.00  0.00    +0.000 OA
ATOM     27  H   UNL     1       0.875   4.973  18.042  0.00  0.00    +0.000 HD
ENDBRANCH  17  26
ENDBRANCH  15  16
ENDBRANCH   4  15
TORSDOF 9
ENDMDL
