MODEL 1
REMARK VINA RESULT:      -8.2      0.000      0.000
REMARK  Name = 
REMARK  5 active torsions:
REMARK  status: ('A' for Active; 'I' for Inactive)
REMARK    1  A    between atoms: N_4  and  C_5
REMARK    2  A    between atoms: C_14  and  C_15
REMARK    3  A    between atoms: C_18  and  O_19
REMARK    4  A    between atoms: O_19  and  C_20
REMARK    5  A    between atoms: C_20  and  C_21
REMARK                            x       y       z     vdW  Elec       q    Type
REMARK                         _______ _______ _______ _____ _____    ______ ____
ROOT
ATOM      1  O   UNL     1       2.121   8.617  17.637  0.00  0.00    +0.000 OA
ATOM      2  C   UNL     1       1.650   8.864  18.730  0.00  0.00    +0.000 C 
ATOM      3  N   UNL     1       0.981  10.014  19.092  0.00  0.00    +0.000 N 
ATOM      4  N   UNL     1       0.790  10.083  20.482  0.00  0.00    +0.000 N 
ATOM      5  C   UNL     1       1.180   8.882  21.089  0.00  0.00    +0.000 C 
ATOM      6  O   UNL     1       1.153   8.521  22.253  0.00  0.00    +0.000 OA
ATOM      7  C   UNL     1       1.711   8.065  19.970  0.00  0.00    +0.000 C 
ATOM      8  C   UNL     1       2.200   6.837  20.174  0.00  0.00    +0.000 C 
ATOM      9  H   UNL     1       1.070  10.841  18.518  0.00  0.00    +0.000 HD
ENDROOT
BRANCH   4  10
ATOM     10  C   UNL     1       0.293  11.242  21.125  0.00  0.00    +0.000 A 
ATOM     11  C   UNL     1      -0.739  11.164  22.071  0.00  0.00    +0.000 A 
ATOM     12  C   UNL     1      -1.205  12.307  22.725  0.00  0.00    +0.000 A 
ATOM     13  C   UNL     1      -0.653  13.551  22.439  0.00  0.00    +0.000 A 
ATOM     14  C   UNL     1       0.364  13.651  21.495  0.00  0.00    +0.000 A 
ATOM     15  C   UNL     1       0.834  12.507  20.845  0.00  0.00    +0.000 A 
ENDBRANCH   4  10
BRANCH   8  16
ATOM     16  C   UNL     1       2.853   6.042  19.144  0.00  0.00    +0.000 A 
ATOM     17  C   UNL     1       2.096   5.091  18.458  0.00  0.00    +0.000 A 
ATOM     18  C   UNL     1       2.680   4.330  17.450  0.00  0.00    +0.000 A 
ATOM     19  C   UNL     1       4.016   4.537  17.102  0.00  0.00    +0.000 A 
ATOM     20  C   UNL     1       4.786   5.449  17.822  0.00  0.00    +0.000 A 
ATOM     21  C   UNL     1       4.207   6.207  18.843  0.00  0.00    +0.000 A 
BRANCH  19  22
ATOM     22  O   UNL     1       4.650   3.899  16.070  0.00  0.00    +0.000 OA
BRANCH  22  23
ATOM     23  C   UNL     1       6.042   4.195  15.958  0.00  0.00    +0.000 C 
BRANCH  23  24
ATOM     24  C   UNL     1       6.413   4.240  14.501  0.00  0.00    +0.000 A 
ATOM     25  C   UNL     1       5.737   3.450  13.565  0.00  0.00    +0.000 A 
ATOM     26  C   UNL     1       6.094   3.499  12.218  0.00  0.00    +0.000 A 
ATOM     27  C   UNL     1       7.133   4.331  11.801  0.00  0.00    +0.000 A 
ATOM     28  C   UNL     1       7.817   5.115  12.727  0.00  0.00    +0.000 A 
ATOM     29  C   UNL     1       7.462   5.067  14.074  0.00  0.00    +0.000 A 
ENDBRANCH  23  24
ENDBRANCH  22  23
ENDBRANCH  19  22
ENDBRANCH   8  16
TORSDOF 5
ENDMDL
MODEL 2
REMARK VINA RESULT:      -8.1      0.845      1.052
REMARK  Name = 
REMARK  5 active torsions:
REMARK  status: ('A' for Active; 'I' for Inactive)
REMARK    1  A    between atoms: N_4  and  C_5
REMARK    2  A    between atoms: C_14  and  C_15
REMARK    3  A    between atoms: C_18  and  O_19
REMARK    4  A    between atoms: O_19  and  C_20
REMARK    5  A    between atoms: C_20  and  C_21
REMARK                            x       y       z     vdW  Elec       q    Type
REMARK                         _______ _______ _______ _____ _____    ______ ____
ROOT
ATOM      1  O   UNL     1       2.605   8.465  17.300  0.00  0.00    +0.000 OA
ATOM      2  C   UNL     1       1.927   8.749  18.268  0.00  0.00    +0.000 C 
ATOM      3  N   UNL     1       1.184   9.898  18.437  0.00  0.00    +0.000 N 
ATOM      4  N   UNL     1       0.725  10.024  19.759  0.00  0.00    +0.000 N 
ATOM      5  C   UNL     1       1.005   8.860  20.487  0.00  0.00    +0.000 C 
ATOM      6  O   UNL     1       0.756   8.551  21.639  0.00  0.00    +0.000 OA
ATOM      7  C   UNL     1       1.755   8.007  19.533  0.00  0.00    +0.000 C 
ATOM      8  C   UNL     1       2.211   6.801  19.886  0.00  0.00    +0.000 C 
ATOM      9  H   UNL     1       1.372  10.701  17.854  0.00  0.00    +0.000 HD
ENDROOT
BRANCH   4  10
ATOM     10  C   UNL     1       0.096  11.199  20.237  0.00  0.00    +0.000 A 
ATOM     11  C   UNL     1       0.771  12.095  21.079  0.00  0.00    +0.000 A 
ATOM     12  C   UNL     1       0.157  13.269  21.523  0.00  0.00    +0.000 A 
ATOM     13  C   UNL     1      -1.146  13.564  21.140  0.00  0.00    +0.000 A 
ATOM     14  C   UNL     1      -1.837  12.683  20.314  0.00  0.00    +0.000 A 
ATOM     15  C   UNL     1      -1.221  11.512  19.866  0.00  0.00    +0.000 A 
ENDBRANCH   4  10
BRANCH   8  16
ATOM     16  C   UNL     1       3.064   5.976  19.042  0.00  0.00    +0.000 A 
ATOM     17  C   UNL     1       2.459   5.130  18.110  0.00  0.00    +0.000 A 
ATOM     18  C   UNL     1       3.243   4.346  17.269  0.00  0.00    +0.000 A 
ATOM     19  C   UNL     1       4.635   4.426  17.334  0.00  0.00    +0.000 A 
ATOM     20  C   UNL     1       5.239   5.230  18.299  0.00  0.00    +0.000 A 
ATOM     21  C   UNL     1       4.456   6.011  19.155  0.00  0.00    +0.000 A 
BRANCH  19  22
ATOM     22  O   UNL     1       5.484   3.759  16.492  0.00  0.00    +0.000 OA
BRANCH  22  23
ATOM     23  C   UNL     1       6.611   4.523  16.063  0.00  0.00    +0.000 C 
BRANCH  23  24
ATOM     24  C   UNL     1       6.725   4.422  14.567  0.00  0.00    +0.000 A 
ATOM     25  C   UNL     1       5.936   3.516  13.848  0.00  0.00    +0.000 A 
ATOM     26  C   UNL     1       6.055   3.430  12.461  0.00  0.00    +0.000 A 
ATOM     27  C   UNL     1       6.966   4.243  11.787  0.00  0.00    +0.000 A 
ATOM     28  C   UNL     1       7.761   5.142  12.495  0.00  0.00    +0.000 A 
ATOM     29  C   UNL     1       7.644   5.229  13.881  0.00  0.00    +0.000 A 
ENDBRANCH  23  24
ENDBRANCH  22  23
ENDBRANCH  19  22
ENDBRANCH   8  16
TORSDOF 5
ENDMDL
MODEL 3
REMARK VINA RESULT:      -8.0      0.236      1.306
REMARK  Name = 
REMARK  5 active torsions:
REMARK  status: ('A' for Active; 'I' for Inactive)
REMARK    1  A    between atoms: N_4  and  C_5
REMARK    2  A    between atoms: C_14  and  C_15
REMARK    3  A    between atoms: C_18  and  O_19
REMARK    4  A    between atoms: O_19  and  C_20
REMARK    5  A    between atoms: C_20  and  C_21
REMARK                            x       y       z     vdW  Elec       q    Type
REMARK                         _______ _______ _______ _____ _____    ______ ____
ROOT
ATOM      1  O   UNL     1       1.799   8.755  17.613  0.00  0.00    +0.000 OA
ATOM      2  C   UNL     1       1.414   8.976  18.744  0.00  0.00    +0.000 C 
ATOM      3  N   UNL     1       0.707  10.081  19.166  0.00  0.00    +0.000 N 
ATOM      4  N   UNL     1       0.639  10.145  20.569  0.00  0.00    +0.000 N 
ATOM      5  C   UNL     1       1.159   8.974  21.136  0.00  0.00    +0.000 C 
ATOM      6  O   UNL     1       1.261   8.617  22.297  0.00  0.00    +0.000 OA
ATOM      7  C   UNL     1       1.638   8.188  19.973  0.00  0.00    +0.000 C 
ATOM      8  C   UNL     1       2.221   6.995  20.129  0.00  0.00    +0.000 C 
ATOM      9  H   UNL     1       0.691  10.910  18.589  0.00  0.00    +0.000 HD
ENDROOT
BRANCH   4  10
ATOM     10  C   UNL     1       0.129  11.272  21.255  0.00  0.00    +0.000 A 
ATOM     11  C   UNL     1      -0.891  11.144  22.209  0.00  0.00    +0.000 A 
ATOM     12  C   UNL     1      -1.370  12.256  22.907  0.00  0.00    +0.000 A 
ATOM     13  C   UNL     1      -0.844  13.518  22.656  0.00  0.00    +0.000 A 
ATOM     14  C   UNL     1       0.160  13.669  21.706  0.00  0.00    +0.000 A 
ATOM     15  C   UNL     1       0.643  12.556  21.012  0.00  0.00    +0.000 A 
ENDBRANCH   4  10
BRANCH   8  16
ATOM     16  C   UNL     1       2.829   6.239  19.044  0.00  0.00    +0.000 A 
ATOM     17  C   UNL     1       4.083   6.637  18.576  0.00  0.00    +0.000 A 
ATOM     18  C   UNL     1       4.706   5.923  17.557  0.00  0.00    +0.000 A 
ATOM     19  C   UNL     1       4.092   4.789  17.022  0.00  0.00    +0.000 A 
ATOM     20  C   UNL     1       2.818   4.422  17.452  0.00  0.00    +0.000 A 
ATOM     21  C   UNL     1       2.183   5.143  18.466  0.00  0.00    +0.000 A 
BRANCH  19  22
ATOM     22  O   UNL     1       4.665   3.977  16.079  0.00  0.00    +0.000 OA
BRANCH  22  23
ATOM     23  C   UNL     1       6.084   4.097  15.981  0.00  0.00    +0.000 C 
BRANCH  23  24
ATOM     24  C   UNL     1       6.463   4.205  14.529  0.00  0.00    +0.000 A 
ATOM     25  C   UNL     1       7.473   5.079  14.116  0.00  0.00    +0.000 A 
ATOM     26  C   UNL     1       7.811   5.172  12.766  0.00  0.00    +0.000 A 
ATOM     27  C   UNL     1       7.135   4.398  11.823  0.00  0.00    +0.000 A 
ATOM     28  C   UNL     1       6.122   3.531  12.224  0.00  0.00    +0.000 A 
ATOM     29  C   UNL     1       5.783   3.436  13.573  0.00  0.00    +0.000 A 
ENDBRANCH  23  24
ENDBRANCH  22  23
ENDBRANCH  19  22
ENDBRANCH   8  16
TORSDOF 5
ENDMDL
MODEL 4
REMARK VINA RESULT:      -8.0      0.774      1.201
REMARK  Name = 
REMARK  5 active torsions:
REMARK  status: ('A' for Active; 'I' for Inactive)
REMARK    1  A    between atoms: N_4  and  C_5
REMARK    2  A    between atoms: C_14  and  C_15
REMARK    3  A    between atoms: C_18  and  O_19
REMARK    4  A    between atoms: O_19  and  C_20
REMARK    5  A    between atoms: C_20  and  C_21
REMARK                            x       y       z     vdW  Elec       q    Type
REMARK                         _______ _______ _______ _____ _____    ______ ____
ROOT
ATOM      1  O   UNL     1       2.582   8.575  17.117  0.00  0.00    +0.000 OA
ATOM      2  C   UNL     1       1.944   8.912  18.095  0.00  0.00    +0.000 C 
ATOM      3  N   UNL     1       1.267  10.101  18.259  0.00  0.00    +0.000 N 
ATOM      4  N   UNL     1       0.847  10.276  19.589  0.00  0.00    +0.000 N 
ATOM      5  C   UNL     1       1.085   9.113  20.332  0.00  0.00    +0.000 C 
ATOM      6  O   UNL     1       0.849   8.838  21.496  0.00  0.00    +0.000 OA
ATOM      7  C   UNL     1       1.765   8.204  19.378  0.00  0.00    +0.000 C 
ATOM      8  C   UNL     1       2.167   6.982  19.744  0.00  0.00    +0.000 C 
ATOM      9  H   UNL     1       1.482  10.882  17.655  0.00  0.00    +0.000 HD
ENDROOT
BRANCH   4  10
ATOM     10  C   UNL     1       0.293  11.491  20.058  0.00  0.00    +0.000 A 
ATOM     11  C   UNL     1      -1.056  11.580  20.431  0.00  0.00    +0.000 A 
ATOM     12  C   UNL     1      -1.591  12.773  20.923  0.00  0.00    +0.000 A 
ATOM     13  C   UNL     1      -0.789  13.902  21.042  0.00  0.00    +0.000 A 
ATOM     14  C   UNL     1       0.549  13.839  20.667  0.00  0.00    +0.000 A 
ATOM     15  C   UNL     1       1.086  12.643  20.180  0.00  0.00    +0.000 A 
ENDBRANCH   4  10
BRANCH   8  16
ATOM     16  C   UNL     1       2.954   6.098  18.897  0.00  0.00    +0.000 A 
ATOM     17  C   UNL     1       2.282   5.171  18.097  0.00  0.00    +0.000 A 
ATOM     18  C   UNL     1       3.000   4.327  17.256  0.00  0.00    +0.000 A 
ATOM     19  C   UNL     1       4.391   4.426  17.187  0.00  0.00    +0.000 A 
ATOM     20  C   UNL     1       5.065   5.314  18.023  0.00  0.00    +0.000 A 
ATOM     21  C   UNL     1       4.350   6.156  18.878  0.00  0.00    +0.000 A 
BRANCH  19  22
ATOM     22  O   UNL     1       5.172   3.699  16.328  0.00  0.00    +0.000 OA
BRANCH  22  23
ATOM     23  C   UNL     1       6.435   4.295  16.030  0.00  0.00    +0.000 C 
BRANCH  23  24
ATOM     24  C   UNL     1       6.633   4.293  14.539  0.00  0.00    +0.000 A 
ATOM     25  C   UNL     1       7.571   5.139  13.940  0.00  0.00    +0.000 A 
ATOM     26  C   UNL     1       7.741   5.130  12.556  0.00  0.00    +0.000 A 
ATOM     27  C   UNL     1       6.969   4.280  11.764  0.00  0.00    +0.000 A 
ATOM     28  C   UNL     1       6.026   3.439  12.351  0.00  0.00    +0.000 A 
ATOM     29  C   UNL     1       5.855   3.447  13.735  0.00  0.00    +0.000 A 
ENDBRANCH  23  24
ENDBRANCH  22  23
ENDBRANCH  19  22
ENDBRANCH   8  16
TORSDOF 5
ENDMDL
MODEL 5
REMARK VINA RESULT:      -8.0      2.558      3.579
REMARK  Name = 
REMARK  5 active torsions:
REMARK  status: ('A' for Active; 'I' for Inactive)
REMARK    1  A    between atoms: N_4  and  C_5
REMARK    2  A    between atoms: C_14  and  C_15
REMARK    3  A    between atoms: C_18  and  O_19
REMARK    4  A    between atoms: O_19  and  C_20
REMARK    5  A    between atoms: C_20  and  C_21
REMARK                            x       y       z     vdW  Elec       q    Type
REMARK                         _______ _______ _______ _____ _____    ______ ____
ROOT
ATOM      1  O   UNL     1       0.002   9.509  19.011  0.00  0.00    +0.000 OA
ATOM      2  C   UNL     1      -0.207   9.785  20.175  0.00  0.00    +0.000 C 
ATOM      3  N   UNL     1      -1.016  10.798  20.644  0.00  0.00    +0.000 N 
ATOM      4  N   UNL     1      -0.841  11.002  22.023  0.00  0.00    +0.000 N 
ATOM      5  C   UNL     1      -0.022  10.002  22.564  0.00  0.00    +0.000 C 
ATOM      6  O   UNL     1       0.351   9.796  23.706  0.00  0.00    +0.000 OA
ATOM      7  C   UNL     1       0.375   9.184  21.392  0.00  0.00    +0.000 C 
ATOM      8  C   UNL     1       1.186   8.128  21.521  0.00  0.00    +0.000 C 
ATOM      9  H   UNL     1      -1.288  11.545  20.020  0.00  0.00    +0.000 HD
ENDROOT
BRANCH   4  10
ATOM     10  C   UNL     1      -1.417  12.098  22.709  0.00  0.00    +0.000 A 
ATOM     11  C   UNL     1      -0.744  13.323  22.817  0.00  0.00    +0.000 A 
ATOM     12  C   UNL     1      -1.330  14.412  23.469  0.00  0.00    +0.000 A 
ATOM     13  C   UNL     1      -2.595  14.291  24.032  0.00  0.00    +0.000 A 
ATOM     14  C   UNL     1      -3.275  13.081  23.946  0.00  0.00    +0.000 A 
ATOM     15  C   UNL     1      -2.691  11.994  23.289  0.00  0.00    +0.000 A 
ENDBRANCH   4  10
BRANCH   8  16
ATOM     16  C   UNL     1       1.716   7.369  20.397  0.00  0.00    +0.000 A 
ATOM     17  C   UNL     1       2.290   8.068  19.334  0.00  0.00    +0.000 A 
ATOM     18  C   UNL     1       2.830   7.375  18.255  0.00  0.00    +0.000 A 
ATOM     19  C   UNL     1       2.826   5.979  18.247  0.00  0.00    +0.000 A 
ATOM     20  C   UNL     1       2.206   5.283  19.283  0.00  0.00    +0.000 A 
ATOM     21  C   UNL     1       1.652   5.974  20.363  0.00  0.00    +0.000 A 
BRANCH  19  22
ATOM     22  O   UNL     1       3.408   5.214  17.273  0.00  0.00    +0.000 OA
BRANCH  22  23
ATOM     23  C   UNL     1       4.453   4.359  17.738  0.00  0.00    +0.000 C 
BRANCH  23  24
ATOM     24  C   UNL     1       5.679   5.190  17.998  0.00  0.00    +0.000 A 
ATOM     25  C   UNL     1       6.368   5.089  19.211  0.00  0.00    +0.000 A 
ATOM     26  C   UNL     1       7.502   5.869  19.441  0.00  0.00    +0.000 A 
ATOM     27  C   UNL     1       7.947   6.758  18.463  0.00  0.00    +0.000 A 
ATOM     28  C   UNL     1       7.263   6.871  17.255  0.00  0.00    +0.000 A 
ATOM     29  C   UNL     1       6.129   6.093  17.024  0.00  0.00    +0.000 A 
ENDBRANCH  23  24
ENDBRANCH  22  23
ENDBRANCH  19  22
ENDBRANCH   8  16
TORSDOF 5
ENDMDL
MODEL 6
REMARK VINA RESULT:      -8.0      3.541      9.973
REMARK  Name = 
REMARK  5 active torsions:
REMARK  status: ('A' for Active; 'I' for Inactive)
REMARK    1  A    between atoms: N_4  and  C_5
REMARK    2  A    between atoms: C_14  and  C_15
REMARK    3  A    between atoms: C_18  and  O_19
REMARK    4  A    between atoms: O_19  and  C_20
REMARK    5  A    between atoms: C_20  and  C_21
REMARK                            x       y       z     vdW  Elec       q    Type
REMARK                         _______ _______ _______ _____ _____    ______ ____
ROOT
ATOM      1  O   UNL     1       1.923   9.980  17.453  0.00  0.00    +0.000 OA
ATOM      2  C   UNL     1       2.091   9.000  18.152  0.00  0.00    +0.000 C 
ATOM      3  N   UNL     1       2.764   7.850  17.799  0.00  0.00    +0.000 N 
ATOM      4  N   UNL     1       2.560   6.825  18.739  0.00  0.00    +0.000 N 
ATOM      5  C   UNL     1       1.874   7.317  19.857  0.00  0.00    +0.000 C 
ATOM      6  O   UNL     1       1.527   6.776  20.892  0.00  0.00    +0.000 OA
ATOM      7  C   UNL     1       1.587   8.732  19.514  0.00  0.00    +0.000 C 
ATOM      8  C   UNL     1       0.917   9.531  20.351  0.00  0.00    +0.000 C 
ATOM      9  H   UNL     1       2.940   7.658  16.823  0.00  0.00    +0.000 HD
ENDROOT
BRANCH   4  10
ATOM     10  C   UNL     1       2.990   5.495  18.519  0.00  0.00    +0.000 A 
ATOM     11  C   UNL     1       4.195   5.021  19.057  0.00  0.00    +0.000 A 
ATOM     12  C   UNL     1       4.601   3.698  18.863  0.00  0.00    +0.000 A 
ATOM     13  C   UNL     1       3.812   2.827  18.120  0.00  0.00    +0.000 A 
ATOM     14  C   UNL     1       2.618   3.280  17.568  0.00  0.00    +0.000 A 
ATOM     15  C   UNL     1       2.210   4.602  17.767  0.00  0.00    +0.000 A 
ENDBRANCH   4  10
BRANCH   8  16
ATOM     16  C   UNL     1       0.491  10.882  20.018  0.00  0.00    +0.000 A 
ATOM     17  C   UNL     1      -0.758  11.057  19.418  0.00  0.00    +0.000 A 
ATOM     18  C   UNL     1      -1.210  12.337  19.108  0.00  0.00    +0.000 A 
ATOM     19  C   UNL     1      -0.428  13.450  19.425  0.00  0.00    +0.000 A 
ATOM     20  C   UNL     1       0.840  13.272  19.975  0.00  0.00    +0.000 A 
ATOM     21  C   UNL     1       1.303  11.989  20.277  0.00  0.00    +0.000 A 
BRANCH  19  22
ATOM     22  O   UNL     1      -0.825  14.747  19.237  0.00  0.00    +0.000 OA
BRANCH  22  23
ATOM     23  C   UNL     1       0.111  15.723  19.694  0.00  0.00    +0.000 C 
BRANCH  23  24
ATOM     24  C   UNL     1       0.373  16.701  18.581  0.00  0.00    +0.000 A 
ATOM     25  C   UNL     1      -0.673  17.433  18.010  0.00  0.00    +0.000 A 
ATOM     26  C   UNL     1      -0.415  18.334  16.977  0.00  0.00    +0.000 A 
ATOM     27  C   UNL     1       0.886  18.501  16.504  0.00  0.00    +0.000 A 
ATOM     28  C   UNL     1       1.933  17.770  17.062  0.00  0.00    +0.000 A 
ATOM     29  C   UNL     1       1.678  16.869  18.095  0.00  0.00    +0.000 A 
ENDBRANCH  23  24
ENDBRANCH  22  23
ENDBRANCH  19  22
ENDBRANCH   8  16
TORSDOF 5
ENDMDL
MODEL 7
REMARK VINA RESULT:      -8.0      5.456      7.703
REMARK  Name = 
REMARK  5 active torsions:
REMARK  status: ('A' for Active; 'I' for Inactive)
REMARK    1  A    between atoms: N_4  and  C_5
REMARK    2  A    between atoms: C_14  and  C_15
REMARK    3  A    between atoms: C_18  and  O_19
REMARK    4  A    between atoms: O_19  and  C_20
REMARK    5  A    between atoms: C_20  and  C_21
REMARK                            x       y       z     vdW  Elec       q    Type
REMARK                         _______ _______ _______ _____ _____    ______ ____
ROOT
ATOM      1  O   UNL     1       7.674   6.097  19.067  0.00  0.00    +0.000 OA
ATOM      2  C   UNL     1       7.941   7.217  18.679  0.00  0.00    +0.000 C 
ATOM      3  N   UNL     1       8.963   8.020  19.139  0.00  0.00    +0.000 N 
ATOM      4  N   UNL     1       8.840   9.335  18.660  0.00  0.00    +0.000 N 
ATOM      5  C   UNL     1       7.812   9.415  17.712  0.00  0.00    +0.000 C 
ATOM      6  O   UNL     1       7.402  10.349  17.045  0.00  0.00    +0.000 OA
ATOM      7  C   UNL     1       7.236   8.049  17.683  0.00  0.00    +0.000 C 
ATOM      8  C   UNL     1       6.203   7.744  16.891  0.00  0.00    +0.000 C 
ATOM      9  H   UNL     1       9.400   7.807  20.025  0.00  0.00    +0.000 HD
ENDROOT
BRANCH   4  10
ATOM     10  C   UNL     1       9.654  10.394  19.128  0.00  0.00    +0.000 A 
ATOM     11  C   UNL     1       9.529  10.884  20.436  0.00  0.00    +0.000 A 
ATOM     12  C   UNL     1      10.357  11.909  20.904  0.00  0.00    +0.000 A 
ATOM     13  C   UNL     1      11.318  12.467  20.069  0.00  0.00    +0.000 A 
ATOM     14  C   UNL     1      11.451  12.002  18.765  0.00  0.00    +0.000 A 
ATOM     15  C   UNL     1      10.627  10.974  18.299  0.00  0.00    +0.000 A 
ENDBRANCH   4  10
BRANCH   8  16
ATOM     16  C   UNL     1       5.511   6.463  16.915  0.00  0.00    +0.000 A 
ATOM     17  C   UNL     1       4.381   6.333  17.725  0.00  0.00    +0.000 A 
ATOM     18  C   UNL     1       3.679   5.131  17.754  0.00  0.00    +0.000 A 
ATOM     19  C   UNL     1       4.085   4.064  16.950  0.00  0.00    +0.000 A 
ATOM     20  C   UNL     1       5.243   4.177  16.183  0.00  0.00    +0.000 A 
ATOM     21  C   UNL     1       5.958   5.377  16.159  0.00  0.00    +0.000 A 
BRANCH  19  22
ATOM     22  O   UNL     1       3.410   2.877  16.849  0.00  0.00    +0.000 OA
BRANCH  22  23
ATOM     23  C   UNL     1       3.668   1.958  17.910  0.00  0.00    +0.000 C 
BRANCH  23  24
ATOM     24  C   UNL     1       2.811   2.326  19.090  0.00  0.00    +0.000 A 
ATOM     25  C   UNL     1       1.437   2.541  18.937  0.00  0.00    +0.000 A 
ATOM     26  C   UNL     1       0.655   2.886  20.040  0.00  0.00    +0.000 A 
ATOM     27  C   UNL     1       1.243   3.024  21.297  0.00  0.00    +0.000 A 
ATOM     28  C   UNL     1       2.612   2.819  21.456  0.00  0.00    +0.000 A 
ATOM     29  C   UNL     1       3.395   2.475  20.356  0.00  0.00    +0.000 A 
ENDBRANCH  23  24
ENDBRANCH  22  23
ENDBRANCH  19  22
ENDBRANCH   8  16
TORSDOF 5
ENDMDL
MODEL 8
REMARK VINA RESULT:      -7.9      3.343     10.036
REMARK  Name = 
REMARK  5 active torsions:
REMARK  status: ('A' for Active; 'I' for Inactive)
REMARK    1  A    between atoms: N_4  and  C_5
REMARK    2  A    between atoms: C_14  and  C_15
REMARK    3  A    between atoms: C_18  and  O_19
REMARK    4  A    between atoms: O_19  and  C_20
REMARK    5  A    between atoms: C_20  and  C_21
REMARK                            x       y       z     vdW  Elec       q    Type
REMARK                         _______ _______ _______ _____ _____    ______ ____
ROOT
ATOM      1  O   UNL     1       1.836  10.220  17.518  0.00  0.00    +0.000 OA
ATOM      2  C   UNL     1       2.037   9.195  18.138  0.00  0.00    +0.000 C 
ATOM      3  N   UNL     1       2.720   8.086  17.687  0.00  0.00    +0.000 N 
ATOM      4  N   UNL     1       2.555   6.991  18.552  0.00  0.00    +0.000 N 
ATOM      5  C   UNL     1       1.887   7.387  19.718  0.00  0.00    +0.000 C 
ATOM      6  O   UNL     1       1.573   6.765  20.718  0.00  0.00    +0.000 OA
ATOM      7  C   UNL     1       1.569   8.817  19.487  0.00  0.00    +0.000 C 
ATOM      8  C   UNL     1       0.906   9.540  20.395  0.00  0.00    +0.000 C 
ATOM      9  H   UNL     1       2.876   7.969  16.695  0.00  0.00    +0.000 HD
ENDROOT
BRANCH   4  10
ATOM     10  C   UNL     1       3.002   5.688  18.225  0.00  0.00    +0.000 A 
ATOM     11  C   UNL     1       2.099   4.683  17.848  0.00  0.00    +0.000 A 
ATOM     12  C   UNL     1       2.548   3.407  17.495  0.00  0.00    +0.000 A 
ATOM     13  C   UNL     1       3.906   3.112  17.522  0.00  0.00    +0.000 A 
ATOM     14  C   UNL     1       4.816   4.092  17.903  0.00  0.00    +0.000 A 
ATOM     15  C   UNL     1       4.368   5.369  18.251  0.00  0.00    +0.000 A 
ENDBRANCH   4  10
BRANCH   8  16
ATOM     16  C   UNL     1       0.450  10.905  20.173  0.00  0.00    +0.000 A 
ATOM     17  C   UNL     1       1.283  11.956  20.560  0.00  0.00    +0.000 A 
ATOM     18  C   UNL     1       0.892  13.273  20.340  0.00  0.00    +0.000 A 
ATOM     19  C   UNL     1      -0.320  13.546  19.703  0.00  0.00    +0.000 A 
ATOM     20  C   UNL     1      -1.175  12.499  19.364  0.00  0.00    +0.000 A 
ATOM     21  C   UNL     1      -0.793  11.175  19.594  0.00  0.00    +0.000 A 
BRANCH  19  22
ATOM     22  O   UNL     1      -0.748  14.803  19.369  0.00  0.00    +0.000 OA
BRANCH  22  23
ATOM     23  C   UNL     1       0.126  15.853  19.783  0.00  0.00    +0.000 C 
BRANCH  23  24
ATOM     24  C   UNL     1       0.348  16.785  18.623  0.00  0.00    +0.000 A 
ATOM     25  C   UNL     1      -0.723  17.474  18.044  0.00  0.00    +0.000 A 
ATOM     26  C   UNL     1      -0.504  18.332  16.966  0.00  0.00    +0.000 A 
ATOM     27  C   UNL     1       0.785  18.500  16.459  0.00  0.00    +0.000 A 
ATOM     28  C   UNL     1       1.856  17.812  17.025  0.00  0.00    +0.000 A 
ATOM     29  C   UNL     1       1.638  16.954  18.101  0.00  0.00    +0.000 A 
ENDBRANCH  23  24
ENDBRANCH  22  23
ENDBRANCH  19  22
ENDBRANCH   8  16
TORSDOF 5
ENDMDL
MODEL 9
REMARK VINA RESULT:      -7.9      3.367     10.046
REMARK  Name = 
REMARK  5 active torsions:
REMARK  status: ('A' for Active; 'I' for Inactive)
REMARK    1  A    between atoms: N_4  and  C_5
REMARK    2  A    between atoms: C_14  and  C_15
REMARK    3  A    between atoms: C_18  and  O_19
REMARK    4  A    between atoms: O_19  and  C_20
REMARK    5  A    between atoms: C_20  and  C_21
REMARK                            x       y       z     vdW  Elec       q    Type
REMARK                         _______ _______ _______ _____ _____    ______ ____
ROOT
ATOM      1  O   UNL     1       1.874  10.254  17.461  0.00  0.00    +0.000 OA
ATOM      2  C   UNL     1       2.050   9.241  18.108  0.00  0.00    +0.000 C 
ATOM      3  N   UNL     1       2.706   8.104  17.686  0.00  0.00    +0.000 N 
ATOM      4  N   UNL     1       2.515   7.037  18.580  0.00  0.00    +0.000 N 
ATOM      5  C   UNL     1       1.858   7.480  19.735  0.00  0.00    +0.000 C 
ATOM      6  O   UNL     1       1.530   6.892  20.751  0.00  0.00    +0.000 OA
ATOM      7  C   UNL     1       1.575   8.911  19.466  0.00  0.00    +0.000 C 
ATOM      8  C   UNL     1       0.930   9.674  20.356  0.00  0.00    +0.000 C 
ATOM      9  H   UNL     1       2.858   7.958  16.698  0.00  0.00    +0.000 HD
ENDROOT
BRANCH   4  10
ATOM     10  C   UNL     1       2.929   5.716  18.287  0.00  0.00    +0.000 A 
ATOM     11  C   UNL     1       2.013   4.743  17.862  0.00  0.00    +0.000 A 
ATOM     12  C   UNL     1       2.432   3.449  17.543  0.00  0.00    +0.000 A 
ATOM     13  C   UNL     1       3.773   3.101  17.653  0.00  0.00    +0.000 A 
ATOM     14  C   UNL     1       4.697   4.048  18.084  0.00  0.00    +0.000 A 
ATOM     15  C   UNL     1       4.278   5.344  18.397  0.00  0.00    +0.000 A 
ENDBRANCH   4  10
BRANCH   8  16
ATOM     16  C   UNL     1       0.507  11.043  20.097  0.00  0.00    +0.000 A 
ATOM     17  C   UNL     1      -0.742  11.253  19.511  0.00  0.00    +0.000 A 
ATOM     18  C   UNL     1      -1.191  12.549  19.272  0.00  0.00    +0.000 A 
ATOM     19  C   UNL     1      -0.405  13.641  19.647  0.00  0.00    +0.000 A 
ATOM     20  C   UNL     1       0.864  13.430  20.184  0.00  0.00    +0.000 A 
ATOM     21  C   UNL     1       1.323  12.131  20.414  0.00  0.00    +0.000 A 
BRANCH  19  22
ATOM     22  O   UNL     1      -0.799  14.947  19.530  0.00  0.00    +0.000 OA
BRANCH  22  23
ATOM     23  C   UNL     1       0.220  15.900  19.831  0.00  0.00    +0.000 C 
BRANCH  23  24
ATOM     24  C   UNL     1       0.387  16.821  18.654  0.00  0.00    +0.000 A 
ATOM     25  C   UNL     1       1.645  17.024  18.076  0.00  0.00    +0.000 A 
ATOM     26  C   UNL     1       1.786  17.884  16.987  0.00  0.00    +0.000 A 
ATOM     27  C   UNL     1       0.672  18.551  16.476  0.00  0.00    +0.000 A 
ATOM     28  C   UNL     1      -0.583  18.361  17.050  0.00  0.00    +0.000 A 
ATOM     29  C   UNL     1      -0.725  17.502  18.139  0.00  0.00    +0.000 A 
ENDBRANCH  23  24
ENDBRANCH  22  23
ENDBRANCH  19  22
ENDBRANCH   8  16
TORSDOF 5
ENDMDL
