MODEL 1
REMARK VINA RESULT:      -8.4      0.000      0.000
REMARK  Name = 
REMARK  12 active torsions:
REMARK  status: ('A' for Active; 'I' for Inactive)
REMARK    1  A    between atoms: C_2  and  O_3
REMARK    2  A    between atoms: C_2  and  C_4
REMARK    3  A    between atoms: C_4  and  C_5
REMARK    4  A    between atoms: C_5  and  C_6
REMARK    5  A    between atoms: C_6  and  O_7
REMARK    6  A    between atoms: C_6  and  C_26
REMARK    7  A    between atoms: O_7  and  C_8
REMARK    8  A    between atoms: C_10  and  O_11
REMARK    9  A    between atoms: O_11  and  C_12
REMARK   10  A    between atoms: C_12  and  C_13
REMARK   11  A    between atoms: C_22  and  C_23
REMARK   12  A    between atoms: C_23  and  O_25
REMARK                            x       y       z     vdW  Elec       q    Type
REMARK                         _______ _______ _______ _____ _____    ______ ____
ROOT
ATOM      1  C   UNL     1       5.277   6.388  17.497  0.00  0.00    +0.000 A 
ATOM      2  C   UNL     1       6.036   7.572  17.437  0.00  0.00    +0.000 A 
ATOM      3  C   UNL     1       7.394   7.592  17.805  0.00  0.00    +0.000 A 
ATOM      4  C   UNL     1       7.976   6.433  18.312  0.00  0.00    +0.000 A 
ATOM      5  C   UNL     1       7.246   5.248  18.353  0.00  0.00    +0.000 A 
ATOM      6  C   UNL     1       5.913   5.199  17.910  0.00  0.00    +0.000 A 
ENDROOT
BRANCH   6   7
ATOM      7  C   UNL     1       5.318   3.825  17.870  0.00  0.00    +0.000 C 
ATOM      8  O   UNL     1       4.866   3.334  16.847  0.00  0.00    +0.000 OA
BRANCH   7   9
ATOM      9  O   UNL     1       5.274   3.176  19.046  0.00  0.00    +0.000 OA
ATOM     10  H   UNL     1       5.717   2.309  18.988  0.00  0.00    +0.000 HD
ENDBRANCH   7   9
ENDBRANCH   6   7
BRANCH   1  11
ATOM     11  O   UNL     1       3.912   6.356  17.274  0.00  0.00    +0.000 OA
BRANCH  11  12
ATOM     12  C   UNL     1       3.036   6.113  18.398  0.00  0.00    +0.000 C 
BRANCH  12  13
ATOM     13  C   UNL     1       2.320   7.424  18.700  0.00  0.00    +0.000 A 
ATOM     14  C   UNL     1       1.854   7.676  19.998  0.00  0.00    +0.000 A 
ATOM     15  C   UNL     1       1.246   8.890  20.306  0.00  0.00    +0.000 A 
ATOM     16  C   UNL     1       1.103   9.876  19.325  0.00  0.00    +0.000 A 
ATOM     17  C   UNL     1       1.558   9.642  18.036  0.00  0.00    +0.000 A 
ATOM     18  C   UNL     1       2.152   8.420  17.718  0.00  0.00    +0.000 A 
ENDBRANCH  12  13
BRANCH  12  19
ATOM     19  C   UNL     1       1.999   5.011  18.060  0.00  0.00    +0.000 C 
BRANCH  19  20
ATOM     20  C   UNL     1       1.806   3.910  19.102  0.00  0.00    +0.000 C 
BRANCH  20  22
ATOM     21  O   UNL     1       0.274   2.149  18.454  0.00  0.00    +0.000 OA
ATOM     22  C   UNL     1       1.414   2.578  18.519  0.00  0.00    +0.000 C 
BRANCH  22  23
ATOM     23  O   UNL     1       2.478   1.877  18.064  0.00  0.00    +0.000 OA
ATOM     24  H   UNL     1       3.337   2.172  18.425  0.00  0.00    +0.000 HD
ENDBRANCH  22  23
ENDBRANCH  20  22
ENDBRANCH  19  20
ENDBRANCH  12  19
ENDBRANCH  11  12
ENDBRANCH   1  11
BRANCH   3  25
ATOM     25  O   UNL     1       8.049   8.781  17.592  0.00  0.00    +0.000 OA
BRANCH  25  26
ATOM     26  C   UNL     1       8.740   9.343  18.712  0.00  0.00    +0.000 C 
BRANCH  26  27
ATOM     27  C   UNL     1       9.253  10.751  18.474  0.00  0.00    +0.000 A 
ATOM     28  C   UNL     1       8.518  11.732  17.797  0.00  0.00    +0.000 A 
ATOM     29  C   UNL     1       9.072  12.997  17.565  0.00  0.00    +0.000 A 
ATOM     30  C   UNL     1      10.365  13.283  17.999  0.00  0.00    +0.000 A 
ATOM     31 CL   UNL     1      11.043  14.840  17.717  0.00  0.00    +0.000 Cl
ATOM     32  C   UNL     1      11.115  12.316  18.659  0.00  0.00    +0.000 A 
ATOM     33  C   UNL     1      10.562  11.055  18.892  0.00  0.00    +0.000 A 
ENDBRANCH  26  27
ENDBRANCH  25  26
ENDBRANCH   3  25
TORSDOF 12
ENDMDL
MODEL 2
REMARK VINA RESULT:      -8.2      3.755      7.121
REMARK  Name = 
REMARK  12 active torsions:
REMARK  status: ('A' for Active; 'I' for Inactive)
REMARK    1  A    between atoms: C_2  and  O_3
REMARK    2  A    between atoms: C_2  and  C_4
REMARK    3  A    between atoms: C_4  and  C_5
REMARK    4  A    between atoms: C_5  and  C_6
REMARK    5  A    between atoms: C_6  and  O_7
REMARK    6  A    between atoms: C_6  and  C_26
REMARK    7  A    between atoms: O_7  and  C_8
REMARK    8  A    between atoms: C_10  and  O_11
REMARK    9  A    between atoms: O_11  and  C_12
REMARK   10  A    between atoms: C_12  and  C_13
REMARK   11  A    between atoms: C_22  and  C_23
REMARK   12  A    between atoms: C_23  and  O_25
REMARK                            x       y       z     vdW  Elec       q    Type
REMARK                         _______ _______ _______ _____ _____    ______ ____
ROOT
ATOM      1  C   UNL     1       3.909   4.343  18.189  0.00  0.00    +0.000 A 
ATOM      2  C   UNL     1       3.346   5.633  18.204  0.00  0.00    +0.000 A 
ATOM      3  C   UNL     1       2.525   6.063  19.262  0.00  0.00    +0.000 A 
ATOM      4  C   UNL     1       2.199   5.165  20.276  0.00  0.00    +0.000 A 
ATOM      5  C   UNL     1       2.768   3.893  20.288  0.00  0.00    +0.000 A 
ATOM      6  C   UNL     1       3.655   3.484  19.279  0.00  0.00    +0.000 A 
ENDROOT
BRANCH   6   7
ATOM      7  C   UNL     1       4.301   2.154  19.517  0.00  0.00    +0.000 C 
ATOM      8  O   UNL     1       5.003   1.928  20.492  0.00  0.00    +0.000 OA
BRANCH   7   9
ATOM      9  O   UNL     1       4.095   1.229  18.564  0.00  0.00    +0.000 OA
ATOM     10  H   UNL     1       4.375   1.555  17.688  0.00  0.00    +0.000 HD
ENDBRANCH   7   9
ENDBRANCH   6   7
BRANCH   1  11
ATOM     11  O   UNL     1       4.608   3.838  17.108  0.00  0.00    +0.000 OA
BRANCH  11  12
ATOM     12  C   UNL     1       5.294   4.767  16.238  0.00  0.00    +0.000 C 
BRANCH  12  13
ATOM     13  C   UNL     1       6.273   5.552  17.103  0.00  0.00    +0.000 A 
ATOM     14  C   UNL     1       6.980   4.895  18.120  0.00  0.00    +0.000 A 
ATOM     15  C   UNL     1       7.918   5.582  18.885  0.00  0.00    +0.000 A 
ATOM     16  C   UNL     1       8.174   6.935  18.639  0.00  0.00    +0.000 A 
ATOM     17  C   UNL     1       7.482   7.599  17.638  0.00  0.00    +0.000 A 
ATOM     18  C   UNL     1       6.529   6.919  16.880  0.00  0.00    +0.000 A 
ENDBRANCH  12  13
BRANCH  12  19
ATOM     19  C   UNL     1       6.063   4.011  15.124  0.00  0.00    +0.000 C 
BRANCH  19  20
ATOM     20  C   UNL     1       5.406   3.973  13.743  0.00  0.00    +0.000 C 
BRANCH  20  22
ATOM     21  O   UNL     1       7.250   4.319  12.212  0.00  0.00    +0.000 OA
ATOM     22  C   UNL     1       6.349   3.610  12.627  0.00  0.00    +0.000 C 
BRANCH  22  23
ATOM     23  O   UNL     1       6.093   2.386  12.108  0.00  0.00    +0.000 OA
ATOM     24  H   UNL     1       6.791   2.048  11.515  0.00  0.00    +0.000 HD
ENDBRANCH  22  23
ENDBRANCH  20  22
ENDBRANCH  19  20
ENDBRANCH  12  19
ENDBRANCH  11  12
ENDBRANCH   1  11
BRANCH   3  25
ATOM     25  O   UNL     1       2.135   7.380  19.214  0.00  0.00    +0.000 OA
BRANCH  25  26
ATOM     26  C   UNL     1       1.751   7.981  20.455  0.00  0.00    +0.000 C 
BRANCH  26  27
ATOM     27  C   UNL     1       0.878   9.212  20.297  0.00  0.00    +0.000 A 
ATOM     28  C   UNL     1       0.212   9.824  21.366  0.00  0.00    +0.000 A 
ATOM     29  C   UNL     1      -0.621  10.927  21.142  0.00  0.00    +0.000 A 
ATOM     30  C   UNL     1      -0.798  11.417  19.849  0.00  0.00    +0.000 A 
ATOM     31 CL   UNL     1      -1.819  12.775  19.576  0.00  0.00    +0.000 Cl
ATOM     32  C   UNL     1      -0.156  10.812  18.774  0.00  0.00    +0.000 A 
ATOM     33  C   UNL     1       0.676   9.713  18.997  0.00  0.00    +0.000 A 
ENDBRANCH  26  27
ENDBRANCH  25  26
ENDBRANCH   3  25
TORSDOF 12
ENDMDL
MODEL 3
REMARK VINA RESULT:      -8.2      3.580      7.335
REMARK  Name = 
REMARK  12 active torsions:
REMARK  status: ('A' for Active; 'I' for Inactive)
REMARK    1  A    between atoms: C_2  and  O_3
REMARK    2  A    between atoms: C_2  and  C_4
REMARK    3  A    between atoms: C_4  and  C_5
REMARK    4  A    between atoms: C_5  and  C_6
REMARK    5  A    between atoms: C_6  and  O_7
REMARK    6  A    between atoms: C_6  and  C_26
REMARK    7  A    between atoms: O_7  and  C_8
REMARK    8  A    between atoms: C_10  and  O_11
REMARK    9  A    between atoms: O_11  and  C_12
REMARK   10  A    between atoms: C_12  and  C_13
REMARK   11  A    between atoms: C_22  and  C_23
REMARK   12  A    between atoms: C_23  and  O_25
REMARK                            x       y       z     vdW  Elec       q    Type
REMARK                         _______ _______ _______ _____ _____    ______ ____
ROOT
ATOM      1  C   UNL     1       3.758   4.412  19.550  0.00  0.00    +0.000 A 
ATOM      2  C   UNL     1       2.936   5.480  19.958  0.00  0.00    +0.000 A 
ATOM      3  C   UNL     1       1.585   5.277  20.296  0.00  0.00    +0.000 A 
ATOM      4  C   UNL     1       1.032   4.007  20.149  0.00  0.00    +0.000 A 
ATOM      5  C   UNL     1       1.840   2.936  19.771  0.00  0.00    +0.000 A 
ATOM      6  C   UNL     1       3.209   3.113  19.512  0.00  0.00    +0.000 A 
ENDROOT
BRANCH   6   7
ATOM      7  C   UNL     1       3.969   1.846  19.273  0.00  0.00    +0.000 C 
ATOM      8  O   UNL     1       3.607   1.004  18.465  0.00  0.00    +0.000 OA
BRANCH   7   9
ATOM      9  O   UNL     1       5.061   1.670  20.037  0.00  0.00    +0.000 OA
ATOM     10  H   UNL     1       5.519   2.516  20.198  0.00  0.00    +0.000 HD
ENDBRANCH   7   9
ENDBRANCH   6   7
BRANCH   1  11
ATOM     11  O   UNL     1       5.048   4.591  19.083  0.00  0.00    +0.000 OA
BRANCH  11  12
ATOM     12  C   UNL     1       5.230   5.165  17.769  0.00  0.00    +0.000 C 
BRANCH  12  13
ATOM     13  C   UNL     1       6.326   6.216  17.887  0.00  0.00    +0.000 A 
ATOM     14  C   UNL     1       6.206   7.425  17.187  0.00  0.00    +0.000 A 
ATOM     15  C   UNL     1       7.170   8.420  17.325  0.00  0.00    +0.000 A 
ATOM     16  C   UNL     1       8.266   8.228  18.173  0.00  0.00    +0.000 A 
ATOM     17  C   UNL     1       8.400   7.037  18.870  0.00  0.00    +0.000 A 
ATOM     18  C   UNL     1       7.446   6.031  18.722  0.00  0.00    +0.000 A 
ENDBRANCH  12  13
BRANCH  12  19
ATOM     19  C   UNL     1       5.651   4.077  16.747  0.00  0.00    +0.000 C 
BRANCH  19  20
ATOM     20  C   UNL     1       5.357   4.370  15.275  0.00  0.00    +0.000 C 
BRANCH  20  22
ATOM     21  O   UNL     1       7.551   5.266  14.777  0.00  0.00    +0.000 OA
ATOM     22  C   UNL     1       6.589   4.598  14.440  0.00  0.00    +0.000 C 
BRANCH  22  23
ATOM     23  O   UNL     1       6.524   3.977  13.239  0.00  0.00    +0.000 OA
ATOM     24  H   UNL     1       5.847   3.274  13.187  0.00  0.00    +0.000 HD
ENDBRANCH  22  23
ENDBRANCH  20  22
ENDBRANCH  19  20
ENDBRANCH  12  19
ENDBRANCH  11  12
ENDBRANCH   1  11
BRANCH   3  25
ATOM     25  O   UNL     1       0.924   6.377  20.788  0.00  0.00    +0.000 OA
BRANCH  25  26
ATOM     26  C   UNL     1       1.687   7.581  20.910  0.00  0.00    +0.000 C 
BRANCH  26  27
ATOM     27  C   UNL     1       0.854   8.804  21.246  0.00  0.00    +0.000 A 
ATOM     28  C   UNL     1       0.551   9.190  22.557  0.00  0.00    +0.000 A 
ATOM     29  C   UNL     1      -0.268  10.301  22.796  0.00  0.00    +0.000 A 
ATOM     30  C   UNL     1      -0.795  11.023  21.727  0.00  0.00    +0.000 A 
ATOM     31 CL   UNL     1      -1.799  12.390  22.023  0.00  0.00    +0.000 Cl
ATOM     32  C   UNL     1      -0.517  10.644  20.418  0.00  0.00    +0.000 A 
ATOM     33  C   UNL     1       0.301   9.538  20.180  0.00  0.00    +0.000 A 
ENDBRANCH  26  27
ENDBRANCH  25  26
ENDBRANCH   3  25
TORSDOF 12
ENDMDL
MODEL 4
REMARK VINA RESULT:      -8.1      0.566      1.170
REMARK  Name = 
REMARK  12 active torsions:
REMARK  status: ('A' for Active; 'I' for Inactive)
REMARK    1  A    between atoms: C_2  and  O_3
REMARK    2  A    between atoms: C_2  and  C_4
REMARK    3  A    between atoms: C_4  and  C_5
REMARK    4  A    between atoms: C_5  and  C_6
REMARK    5  A    between atoms: C_6  and  O_7
REMARK    6  A    between atoms: C_6  and  C_26
REMARK    7  A    between atoms: O_7  and  C_8
REMARK    8  A    between atoms: C_10  and  O_11
REMARK    9  A    between atoms: O_11  and  C_12
REMARK   10  A    between atoms: C_12  and  C_13
REMARK   11  A    between atoms: C_22  and  C_23
REMARK   12  A    between atoms: C_23  and  O_25
REMARK                            x       y       z     vdW  Elec       q    Type
REMARK                         _______ _______ _______ _____ _____    ______ ____
ROOT
ATOM      1  C   UNL     1       5.282   6.332  17.906  0.00  0.00    +0.000 A 
ATOM      2  C   UNL     1       6.038   7.500  17.690  0.00  0.00    +0.000 A 
ATOM      3  C   UNL     1       7.429   7.522  17.900  0.00  0.00    +0.000 A 
ATOM      4  C   UNL     1       8.057   6.386  18.405  0.00  0.00    +0.000 A 
ATOM      5  C   UNL     1       7.327   5.215  18.599  0.00  0.00    +0.000 A 
ATOM      6  C   UNL     1       5.953   5.159  18.313  0.00  0.00    +0.000 A 
ENDROOT
BRANCH   6   7
ATOM      7  C   UNL     1       5.347   3.794  18.423  0.00  0.00    +0.000 C 
ATOM      8  O   UNL     1       5.224   3.212  19.490  0.00  0.00    +0.000 OA
BRANCH   7   9
ATOM      9  O   UNL     1       4.981   3.226  17.260  0.00  0.00    +0.000 OA
ATOM     10  H   UNL     1       4.015   3.275  17.132  0.00  0.00    +0.000 HD
ENDBRANCH   7   9
ENDBRANCH   6   7
BRANCH   1  11
ATOM     11  O   UNL     1       3.901   6.306  17.841  0.00  0.00    +0.000 OA
BRANCH  11  12
ATOM     12  C   UNL     1       3.152   6.400  19.074  0.00  0.00    +0.000 C 
BRANCH  12  13
ATOM     13  C   UNL     1       2.319   7.673  18.997  0.00  0.00    +0.000 A 
ATOM     14  C   UNL     1       1.621   8.115  20.130  0.00  0.00    +0.000 A 
ATOM     15  C   UNL     1       0.899   9.304  20.095  0.00  0.00    +0.000 A 
ATOM     16  C   UNL     1       0.870  10.078  18.930  0.00  0.00    +0.000 A 
ATOM     17  C   UNL     1       1.554   9.655  17.801  0.00  0.00    +0.000 A 
ATOM     18  C   UNL     1       2.265   8.454  17.826  0.00  0.00    +0.000 A 
ENDBRANCH  12  13
BRANCH  12  19
ATOM     19  C   UNL     1       2.222   5.171  19.248  0.00  0.00    +0.000 C 
BRANCH  19  20
ATOM     20  C   UNL     1       1.730   4.498  17.966  0.00  0.00    +0.000 C 
BRANCH  20  22
ATOM     21  O   UNL     1       0.700   2.501  18.871  0.00  0.00    +0.000 OA
ATOM     22  C   UNL     1       1.496   3.016  18.105  0.00  0.00    +0.000 C 
BRANCH  22  23
ATOM     23  O   UNL     1       2.281   2.287  17.278  0.00  0.00    +0.000 OA
ATOM     24  H   UNL     1       1.901   2.143  16.389  0.00  0.00    +0.000 HD
ENDBRANCH  22  23
ENDBRANCH  20  22
ENDBRANCH  19  20
ENDBRANCH  12  19
ENDBRANCH  11  12
ENDBRANCH   1  11
BRANCH   3  25
ATOM     25  O   UNL     1       8.064   8.687  17.544  0.00  0.00    +0.000 OA
BRANCH  25  26
ATOM     26  C   UNL     1       8.599   9.478  18.610  0.00  0.00    +0.000 C 
BRANCH  26  27
ATOM     27  C   UNL     1       9.279  10.753  18.147  0.00  0.00    +0.000 A 
ATOM     28  C   UNL     1      10.669  10.885  18.035  0.00  0.00    +0.000 A 
ATOM     29  C   UNL     1      11.235  12.107  17.651  0.00  0.00    +0.000 A 
ATOM     30  C   UNL     1      10.416  13.203  17.387  0.00  0.00    +0.000 A 
ATOM     31 CL   UNL     1      11.113  14.704  16.912  0.00  0.00    +0.000 Cl
ATOM     32  C   UNL     1       9.035  13.094  17.507  0.00  0.00    +0.000 A 
ATOM     33  C   UNL     1       8.470  11.874  17.888  0.00  0.00    +0.000 A 
ENDBRANCH  26  27
ENDBRANCH  25  26
ENDBRANCH   3  25
TORSDOF 12
ENDMDL
MODEL 5
REMARK VINA RESULT:      -8.1      3.669      7.375
REMARK  Name = 
REMARK  12 active torsions:
REMARK  status: ('A' for Active; 'I' for Inactive)
REMARK    1  A    between atoms: C_2  and  O_3
REMARK    2  A    between atoms: C_2  and  C_4
REMARK    3  A    between atoms: C_4  and  C_5
REMARK    4  A    between atoms: C_5  and  C_6
REMARK    5  A    between atoms: C_6  and  O_7
REMARK    6  A    between atoms: C_6  and  C_26
REMARK    7  A    between atoms: O_7  and  C_8
REMARK    8  A    between atoms: C_10  and  O_11
REMARK    9  A    between atoms: O_11  and  C_12
REMARK   10  A    between atoms: C_12  and  C_13
REMARK   11  A    between atoms: C_22  and  C_23
REMARK   12  A    between atoms: C_23  and  O_25
REMARK                            x       y       z     vdW  Elec       q    Type
REMARK                         _______ _______ _______ _____ _____    ______ ____
ROOT
ATOM      1  C   UNL     1       3.438   5.311  18.397  0.00  0.00    +0.000 A 
ATOM      2  C   UNL     1       2.861   6.526  18.812  0.00  0.00    +0.000 A 
ATOM      3  C   UNL     1       2.045   6.597  19.957  0.00  0.00    +0.000 A 
ATOM      4  C   UNL     1       1.741   5.426  20.646  0.00  0.00    +0.000 A 
ATOM      5  C   UNL     1       2.325   4.221  20.263  0.00  0.00    +0.000 A 
ATOM      6  C   UNL     1       3.206   4.154  19.171  0.00  0.00    +0.000 A 
ENDROOT
BRANCH   6   7
ATOM      7  C   UNL     1       3.870   2.825  18.984  0.00  0.00    +0.000 C 
ATOM      8  O   UNL     1       3.383   1.937  18.302  0.00  0.00    +0.000 OA
BRANCH   7   9
ATOM      9  O   UNL     1       5.025   2.654  19.650  0.00  0.00    +0.000 OA
ATOM     10  H   UNL     1       5.729   3.227  19.291  0.00  0.00    +0.000 HD
ENDBRANCH   7   9
ENDBRANCH   6   7
BRANCH   1  11
ATOM     11  O   UNL     1       4.132   5.174  17.208  0.00  0.00    +0.000 OA
BRANCH  11  12
ATOM     12  C   UNL     1       4.792   6.337  16.659  0.00  0.00    +0.000 C 
BRANCH  12  13
ATOM     13  C   UNL     1       6.059   6.561  17.474  0.00  0.00    +0.000 A 
ATOM     14  C   UNL     1       6.503   5.563  18.353  0.00  0.00    +0.000 A 
ATOM     15  C   UNL     1       7.688   5.726  19.065  0.00  0.00    +0.000 A 
ATOM     16  C   UNL     1       8.454   6.885  18.905  0.00  0.00    +0.000 A 
ATOM     17  C   UNL     1       8.027   7.882  18.041  0.00  0.00    +0.000 A 
ATOM     18  C   UNL     1       6.832   7.731  17.338  0.00  0.00    +0.000 A 
ENDBRANCH  12  13
BRANCH  12  19
ATOM     19  C   UNL     1       5.156   6.110  15.169  0.00  0.00    +0.000 C 
BRANCH  19  20
ATOM     20  C   UNL     1       5.393   4.663  14.735  0.00  0.00    +0.000 C 
BRANCH  20  22
ATOM     21  O   UNL     1       7.669   5.171  14.082  0.00  0.00    +0.000 OA
ATOM     22  C   UNL     1       6.689   4.450  13.999  0.00  0.00    +0.000 C 
BRANCH  22  23
ATOM     23  O   UNL     1       6.663   3.352  13.208  0.00  0.00    +0.000 OA
ATOM     24  H   UNL     1       6.395   2.532  13.668  0.00  0.00    +0.000 HD
ENDBRANCH  22  23
ENDBRANCH  20  22
ENDBRANCH  19  20
ENDBRANCH  12  19
ENDBRANCH  11  12
ENDBRANCH   1  11
BRANCH   3  25
ATOM     25  O   UNL     1       1.640   7.859  20.319  0.00  0.00    +0.000 OA
BRANCH  25  26
ATOM     26  C   UNL     1       0.875   7.966  21.524  0.00  0.00    +0.000 C 
BRANCH  26  27
ATOM     27  C   UNL     1       0.096   9.262  21.644  0.00  0.00    +0.000 A 
ATOM     28  C   UNL     1      -0.068  10.161  20.582  0.00  0.00    +0.000 A 
ATOM     29  C   UNL     1      -0.755  11.365  20.775  0.00  0.00    +0.000 A 
ATOM     30  C   UNL     1      -1.273  11.681  22.030  0.00  0.00    +0.000 A 
ATOM     31 CL   UNL     1      -2.120  13.161  22.264  0.00  0.00    +0.000 Cl
ATOM     32  C   UNL     1      -1.106  10.808  23.099  0.00  0.00    +0.000 A 
ATOM     33  C   UNL     1      -0.422   9.605  22.906  0.00  0.00    +0.000 A 
ENDBRANCH  26  27
ENDBRANCH  25  26
ENDBRANCH   3  25
TORSDOF 12
ENDMDL
MODEL 6
REMARK VINA RESULT:      -8.0      3.722      7.416
REMARK  Name = 
REMARK  12 active torsions:
REMARK  status: ('A' for Active; 'I' for Inactive)
REMARK    1  A    between atoms: C_2  and  O_3
REMARK    2  A    between atoms: C_2  and  C_4
REMARK    3  A    between atoms: C_4  and  C_5
REMARK    4  A    between atoms: C_5  and  C_6
REMARK    5  A    between atoms: C_6  and  O_7
REMARK    6  A    between atoms: C_6  and  C_26
REMARK    7  A    between atoms: O_7  and  C_8
REMARK    8  A    between atoms: C_10  and  O_11
REMARK    9  A    between atoms: O_11  and  C_12
REMARK   10  A    between atoms: C_12  and  C_13
REMARK   11  A    between atoms: C_22  and  C_23
REMARK   12  A    between atoms: C_23  and  O_25
REMARK                            x       y       z     vdW  Elec       q    Type
REMARK                         _______ _______ _______ _____ _____    ______ ____
ROOT
ATOM      1  C   UNL     1       3.679   4.688  18.461  0.00  0.00    +0.000 A 
ATOM      2  C   UNL     1       3.122   5.945  18.765  0.00  0.00    +0.000 A 
ATOM      3  C   UNL     1       2.246   6.115  19.853  0.00  0.00    +0.000 A 
ATOM      4  C   UNL     1       1.863   5.001  20.596  0.00  0.00    +0.000 A 
ATOM      5  C   UNL     1       2.425   3.755  20.323  0.00  0.00    +0.000 A 
ATOM      6  C   UNL     1       3.364   3.591  19.291  0.00  0.00    +0.000 A 
ENDROOT
BRANCH   6   7
ATOM      7  C   UNL     1       3.991   2.233  19.226  0.00  0.00    +0.000 C 
ATOM      8  O   UNL     1       3.552   1.339  18.520  0.00  0.00    +0.000 OA
BRANCH   7   9
ATOM      9  O   UNL     1       5.051   2.044  20.031  0.00  0.00    +0.000 OA
ATOM     10  H   UNL     1       5.227   2.834  20.576  0.00  0.00    +0.000 HD
ENDBRANCH   7   9
ENDBRANCH   6   7
BRANCH   1  11
ATOM     11  O   UNL     1       4.434   4.454  17.326  0.00  0.00    +0.000 OA
BRANCH  11  12
ATOM     12  C   UNL     1       4.944   5.590  16.592  0.00  0.00    +0.000 C 
BRANCH  12  13
ATOM     13  C   UNL     1       6.168   6.097  17.344  0.00  0.00    +0.000 A 
ATOM     14  C   UNL     1       6.652   7.388  17.089  0.00  0.00    +0.000 A 
ATOM     15  C   UNL     1       7.735   7.889  17.805  0.00  0.00    +0.000 A 
ATOM     16  C   UNL     1       8.348   7.113  18.794  0.00  0.00    +0.000 A 
ATOM     17  C   UNL     1       7.882   5.834  19.056  0.00  0.00    +0.000 A 
ATOM     18  C   UNL     1       6.808   5.321  18.330  0.00  0.00    +0.000 A 
ENDBRANCH  12  13
BRANCH  12  19
ATOM     19  C   UNL     1       5.342   5.179  15.151  0.00  0.00    +0.000 C 
BRANCH  19  20
ATOM     20  C   UNL     1       6.812   4.825  14.921  0.00  0.00    +0.000 C 
BRANCH  20  22
ATOM     21  O   UNL     1       8.045   5.535  12.961  0.00  0.00    +0.000 OA
ATOM     22  C   UNL     1       7.216   4.801  13.470  0.00  0.00    +0.000 C 
BRANCH  22  23
ATOM     23  O   UNL     1       6.546   3.863  12.761  0.00  0.00    +0.000 OA
ATOM     24  H   UNL     1       5.627   3.716  13.058  0.00  0.00    +0.000 HD
ENDBRANCH  22  23
ENDBRANCH  20  22
ENDBRANCH  19  20
ENDBRANCH  12  19
ENDBRANCH  11  12
ENDBRANCH   1  11
BRANCH   3  25
ATOM     25  O   UNL     1       1.864   7.409  20.112  0.00  0.00    +0.000 OA
BRANCH  25  26
ATOM     26  C   UNL     1       1.441   7.698  21.448  0.00  0.00    +0.000 C 
BRANCH  26  27
ATOM     27  C   UNL     1       0.608   8.961  21.567  0.00  0.00    +0.000 A 
ATOM     28  C   UNL     1       0.060   9.408  22.776  0.00  0.00    +0.000 A 
ATOM     29  C   UNL     1      -0.743  10.555  22.808  0.00  0.00    +0.000 A 
ATOM     30  C   UNL     1      -1.009  11.254  21.631  0.00  0.00    +0.000 A 
ATOM     31 CL   UNL     1      -1.994  12.665  21.672  0.00  0.00    +0.000 Cl
ATOM     32  C   UNL     1      -0.486  10.815  20.420  0.00  0.00    +0.000 A 
ATOM     33  C   UNL     1       0.317   9.672  20.389  0.00  0.00    +0.000 A 
ENDBRANCH  26  27
ENDBRANCH  25  26
ENDBRANCH   3  25
TORSDOF 12
ENDMDL
MODEL 7
REMARK VINA RESULT:      -8.0      3.769      7.174
REMARK  Name = 
REMARK  12 active torsions:
REMARK  status: ('A' for Active; 'I' for Inactive)
REMARK    1  A    between atoms: C_2  and  O_3
REMARK    2  A    between atoms: C_2  and  C_4
REMARK    3  A    between atoms: C_4  and  C_5
REMARK    4  A    between atoms: C_5  and  C_6
REMARK    5  A    between atoms: C_6  and  O_7
REMARK    6  A    between atoms: C_6  and  C_26
REMARK    7  A    between atoms: O_7  and  C_8
REMARK    8  A    between atoms: C_10  and  O_11
REMARK    9  A    between atoms: O_11  and  C_12
REMARK   10  A    between atoms: C_12  and  C_13
REMARK   11  A    between atoms: C_22  and  C_23
REMARK   12  A    between atoms: C_23  and  O_25
REMARK                            x       y       z     vdW  Elec       q    Type
REMARK                         _______ _______ _______ _____ _____    ______ ____
ROOT
ATOM      1  C   UNL     1       3.912   4.074  18.529  0.00  0.00    +0.000 A 
ATOM      2  C   UNL     1       3.236   5.305  18.432  0.00  0.00    +0.000 A 
ATOM      3  C   UNL     1       2.342   5.731  19.432  0.00  0.00    +0.000 A 
ATOM      4  C   UNL     1       2.063   4.882  20.499  0.00  0.00    +0.000 A 
ATOM      5  C   UNL     1       2.744   3.672  20.622  0.00  0.00    +0.000 A 
ATOM      6  C   UNL     1       3.699   3.275  19.672  0.00  0.00    +0.000 A 
ENDROOT
BRANCH   6   7
ATOM      7  C   UNL     1       4.454   2.031  20.026  0.00  0.00    +0.000 C 
ATOM      8  O   UNL     1       4.988   1.873  21.113  0.00  0.00    +0.000 OA
BRANCH   7   9
ATOM      9  O   UNL     1       4.543   1.109  19.052  0.00  0.00    +0.000 OA
ATOM     10  H   UNL     1       4.252   0.232  19.368  0.00  0.00    +0.000 HD
ENDBRANCH   7   9
ENDBRANCH   6   7
BRANCH   1  11
ATOM     11  O   UNL     1       4.691   3.561  17.508  0.00  0.00    +0.000 OA
BRANCH  11  12
ATOM     12  C   UNL     1       5.239   4.477  16.533  0.00  0.00    +0.000 C 
BRANCH  12  13
ATOM     13  C   UNL     1       6.199   5.399  17.274  0.00  0.00    +0.000 A 
ATOM     14  C   UNL     1       7.017   4.880  18.287  0.00  0.00    +0.000 A 
ATOM     15  C   UNL     1       7.939   5.695  18.938  0.00  0.00    +0.000 A 
ATOM     16  C   UNL     1       8.065   7.041  18.581  0.00  0.00    +0.000 A 
ATOM     17  C   UNL     1       7.262   7.571  17.583  0.00  0.00    +0.000 A 
ATOM     18  C   UNL     1       6.325   6.762  16.940  0.00  0.00    +0.000 A 
ENDBRANCH  12  13
BRANCH  12  19
ATOM     19  C   UNL     1       6.000   3.708  15.422  0.00  0.00    +0.000 C 
BRANCH  19  20
ATOM     20  C   UNL     1       5.752   4.162  13.983  0.00  0.00    +0.000 C 
BRANCH  20  22
ATOM     21  O   UNL     1       7.298   4.378  12.131  0.00  0.00    +0.000 OA
ATOM     22  C   UNL     1       6.988   4.655  13.277  0.00  0.00    +0.000 C 
BRANCH  22  23
ATOM     23  O   UNL     1       7.748   5.455  14.059  0.00  0.00    +0.000 OA
ATOM     24  H   UNL     1       7.762   5.199  15.002  0.00  0.00    +0.000 HD
ENDBRANCH  22  23
ENDBRANCH  20  22
ENDBRANCH  19  20
ENDBRANCH  12  19
ENDBRANCH  11  12
ENDBRANCH   1  11
BRANCH   3  25
ATOM     25  O   UNL     1       1.837   7.000  19.275  0.00  0.00    +0.000 OA
BRANCH  25  26
ATOM     26  C   UNL     1       1.896   7.859  20.418  0.00  0.00    +0.000 C 
BRANCH  26  27
ATOM     27  C   UNL     1       0.964   9.054  20.336  0.00  0.00    +0.000 A 
ATOM     28  C   UNL     1       0.817   9.835  19.183  0.00  0.00    +0.000 A 
ATOM     29  C   UNL     1      -0.022  10.957  19.191  0.00  0.00    +0.000 A 
ATOM     30  C   UNL     1      -0.709  11.307  20.352  0.00  0.00    +0.000 A 
ATOM     31 CL   UNL     1      -1.742  12.684  20.358  0.00  0.00    +0.000 Cl
ATOM     32  C   UNL     1      -0.563  10.551  21.510  0.00  0.00    +0.000 A 
ATOM     33  C   UNL     1       0.272   9.431  21.501  0.00  0.00    +0.000 A 
ENDBRANCH  26  27
ENDBRANCH  25  26
ENDBRANCH   3  25
TORSDOF 12
ENDMDL
MODEL 8
REMARK VINA RESULT:      -8.0      1.452      2.234
REMARK  Name = 
REMARK  12 active torsions:
REMARK  status: ('A' for Active; 'I' for Inactive)
REMARK    1  A    between atoms: C_2  and  O_3
REMARK    2  A    between atoms: C_2  and  C_4
REMARK    3  A    between atoms: C_4  and  C_5
REMARK    4  A    between atoms: C_5  and  C_6
REMARK    5  A    between atoms: C_6  and  O_7
REMARK    6  A    between atoms: C_6  and  C_26
REMARK    7  A    between atoms: O_7  and  C_8
REMARK    8  A    between atoms: C_10  and  O_11
REMARK    9  A    between atoms: O_11  and  C_12
REMARK   10  A    between atoms: C_12  and  C_13
REMARK   11  A    between atoms: C_22  and  C_23
REMARK   12  A    between atoms: C_23  and  O_25
REMARK                            x       y       z     vdW  Elec       q    Type
REMARK                         _______ _______ _______ _____ _____    ______ ____
ROOT
ATOM      1  C   UNL     1       4.027   5.897  17.775  0.00  0.00    +0.000 A 
ATOM      2  C   UNL     1       5.019   6.889  17.661  0.00  0.00    +0.000 A 
ATOM      3  C   UNL     1       6.341   6.566  17.300  0.00  0.00    +0.000 A 
ATOM      4  C   UNL     1       6.689   5.229  17.128  0.00  0.00    +0.000 A 
ATOM      5  C   UNL     1       5.712   4.239  17.211  0.00  0.00    +0.000 A 
ATOM      6  C   UNL     1       4.373   4.559  17.490  0.00  0.00    +0.000 A 
ENDROOT
BRANCH   6   7
ATOM      7  C   UNL     1       3.421   3.408  17.390  0.00  0.00    +0.000 C 
ATOM      8  O   UNL     1       3.770   2.250  17.559  0.00  0.00    +0.000 OA
BRANCH   7   9
ATOM      9  O   UNL     1       2.157   3.726  17.061  0.00  0.00    +0.000 OA
ATOM     10  H   UNL     1       1.919   3.366  16.186  0.00  0.00    +0.000 HD
ENDBRANCH   7   9
ENDBRANCH   6   7
BRANCH   1  11
ATOM     11  O   UNL     1       2.756   6.155  18.256  0.00  0.00    +0.000 OA
BRANCH  11  12
ATOM     12  C   UNL     1       2.618   6.648  19.607  0.00  0.00    +0.000 C 
BRANCH  12  13
ATOM     13  C   UNL     1       1.894   7.986  19.526  0.00  0.00    +0.000 A 
ATOM     14  C   UNL     1       1.816   8.658  18.298  0.00  0.00    +0.000 A 
ATOM     15  C   UNL     1       1.112   9.854  18.191  0.00  0.00    +0.000 A 
ATOM     16  C   UNL     1       0.464  10.394  19.307  0.00  0.00    +0.000 A 
ATOM     17  C   UNL     1       0.533   9.742  20.529  0.00  0.00    +0.000 A 
ATOM     18  C   UNL     1       1.252   8.552  20.645  0.00  0.00    +0.000 A 
ENDBRANCH  12  13
BRANCH  12  19
ATOM     19  C   UNL     1       1.800   5.657  20.474  0.00  0.00    +0.000 C 
BRANCH  19  20
ATOM     20  C   UNL     1       2.464   4.317  20.795  0.00  0.00    +0.000 C 
BRANCH  20  22
ATOM     21  O   UNL     1       0.937   2.731  19.787  0.00  0.00    +0.000 OA
ATOM     22  C   UNL     1       1.519   3.146  20.774  0.00  0.00    +0.000 C 
BRANCH  22  23
ATOM     23  O   UNL     1       1.365   2.581  21.995  0.00  0.00    +0.000 OA
ATOM     24  H   UNL     1       0.505   2.137  22.126  0.00  0.00    +0.000 HD
ENDBRANCH  22  23
ENDBRANCH  20  22
ENDBRANCH  19  20
ENDBRANCH  12  19
ENDBRANCH  11  12
ENDBRANCH   1  11
BRANCH   3  25
ATOM     25  O   UNL     1       7.183   7.635  17.112  0.00  0.00    +0.000 OA
BRANCH  25  26
ATOM     26  C   UNL     1       8.109   7.916  18.166  0.00  0.00    +0.000 C 
BRANCH  26  27
ATOM     27  C   UNL     1       8.495   9.380  18.270  0.00  0.00    +0.000 A 
ATOM     28  C   UNL     1       9.405   9.869  19.216  0.00  0.00    +0.000 A 
ATOM     29  C   UNL     1       9.678  11.240  19.291  0.00  0.00    +0.000 A 
ATOM     30  C   UNL     1       9.037  12.128  18.430  0.00  0.00    +0.000 A 
ATOM     31 CL   UNL     1       9.376  13.813  18.522  0.00  0.00    +0.000 Cl
ATOM     32  C   UNL     1       8.120  11.662  17.494  0.00  0.00    +0.000 A 
ATOM     33  C   UNL     1       7.849  10.294  17.417  0.00  0.00    +0.000 A 
ENDBRANCH  26  27
ENDBRANCH  25  26
ENDBRANCH   3  25
TORSDOF 12
ENDMDL
MODEL 9
REMARK VINA RESULT:      -8.0      3.608      7.235
REMARK  Name = 
REMARK  12 active torsions:
REMARK  status: ('A' for Active; 'I' for Inactive)
REMARK    1  A    between atoms: C_2  and  O_3
REMARK    2  A    between atoms: C_2  and  C_4
REMARK    3  A    between atoms: C_4  and  C_5
REMARK    4  A    between atoms: C_5  and  C_6
REMARK    5  A    between atoms: C_6  and  O_7
REMARK    6  A    between atoms: C_6  and  C_26
REMARK    7  A    between atoms: O_7  and  C_8
REMARK    8  A    between atoms: C_10  and  O_11
REMARK    9  A    between atoms: O_11  and  C_12
REMARK   10  A    between atoms: C_12  and  C_13
REMARK   11  A    between atoms: C_22  and  C_23
REMARK   12  A    between atoms: C_23  and  O_25
REMARK                            x       y       z     vdW  Elec       q    Type
REMARK                         _______ _______ _______ _____ _____    ______ ____
ROOT
ATOM      1  C   UNL     1       3.419   4.732  18.749  0.00  0.00    +0.000 A 
ATOM      2  C   UNL     1       2.977   6.011  19.137  0.00  0.00    +0.000 A 
ATOM      3  C   UNL     1       1.995   6.177  20.132  0.00  0.00    +0.000 A 
ATOM      4  C   UNL     1       1.394   5.049  20.685  0.00  0.00    +0.000 A 
ATOM      5  C   UNL     1       1.839   3.777  20.330  0.00  0.00    +0.000 A 
ATOM      6  C   UNL     1       2.876   3.604  19.399  0.00  0.00    +0.000 A 
ENDROOT
BRANCH   6   7
ATOM      7  C   UNL     1       3.345   2.191  19.242  0.00  0.00    +0.000 C 
ATOM      8  O   UNL     1       4.388   1.785  19.732  0.00  0.00    +0.000 OA
BRANCH   7   9
ATOM      9  O   UNL     1       2.563   1.399  18.488  0.00  0.00    +0.000 OA
ATOM     10  H   UNL     1       3.082   0.940  17.801  0.00  0.00    +0.000 HD
ENDBRANCH   7   9
ENDBRANCH   6   7
BRANCH   1  11
ATOM     11  O   UNL     1       4.280   4.524  17.687  0.00  0.00    +0.000 OA
BRANCH  11  12
ATOM     12  C   UNL     1       4.723   5.670  16.924  0.00  0.00    +0.000 C 
BRANCH  12  13
ATOM     13  C   UNL     1       6.032   6.142  17.543  0.00  0.00    +0.000 A 
ATOM     14  C   UNL     1       6.600   7.353  17.122  0.00  0.00    +0.000 A 
ATOM     15  C   UNL     1       7.767   7.828  17.715  0.00  0.00    +0.000 A 
ATOM     16  C   UNL     1       8.380   7.107  18.744  0.00  0.00    +0.000 A 
ATOM     17  C   UNL     1       7.831   5.907  19.171  0.00  0.00    +0.000 A 
ATOM     18  C   UNL     1       6.672   5.419  18.569  0.00  0.00    +0.000 A 
ENDBRANCH  12  13
BRANCH  12  19
ATOM     19  C   UNL     1       4.949   5.287  15.438  0.00  0.00    +0.000 C 
BRANCH  19  20
ATOM     20  C   UNL     1       6.057   4.272  15.154  0.00  0.00    +0.000 C 
BRANCH  20  22
ATOM     21  O   UNL     1       7.908   5.510  14.203  0.00  0.00    +0.000 OA
ATOM     22  C   UNL     1       7.011   4.696  14.069  0.00  0.00    +0.000 C 
BRANCH  22  23
ATOM     23  O   UNL     1       6.767   4.075  12.891  0.00  0.00    +0.000 OA
ATOM     24  H   UNL     1       6.030   4.461  12.379  0.00  0.00    +0.000 HD
ENDBRANCH  22  23
ENDBRANCH  20  22
ENDBRANCH  19  20
ENDBRANCH  12  19
ENDBRANCH  11  12
ENDBRANCH   1  11
BRANCH   3  25
ATOM     25  O   UNL     1       1.736   7.475  20.500  0.00  0.00    +0.000 OA
BRANCH  25  26
ATOM     26  C   UNL     1       1.803   8.461  19.465  0.00  0.00    +0.000 C 
BRANCH  26  27
ATOM     27  C   UNL     1       0.705   9.505  19.540  0.00  0.00    +0.000 A 
ATOM     28  C   UNL     1       0.037  10.000  18.413  0.00  0.00    +0.000 A 
ATOM     29  C   UNL     1      -0.931  11.003  18.548  0.00  0.00    +0.000 A 
ATOM     30  C   UNL     1      -1.229  11.521  19.807  0.00  0.00    +0.000 A 
ATOM     31 CL   UNL     1      -2.421  12.751  19.972  0.00  0.00    +0.000 Cl
ATOM     32  C   UNL     1      -0.564  11.052  20.935  0.00  0.00    +0.000 A 
ATOM     33  C   UNL     1       0.400  10.051  20.801  0.00  0.00    +0.000 A 
ENDBRANCH  26  27
ENDBRANCH  25  26
ENDBRANCH   3  25
TORSDOF 12
ENDMDL
