MODEL 1
REMARK VINA RESULT:      -7.9      0.000      0.000
REMARK  Name = 
REMARK  10 active torsions:
REMARK  status: ('A' for Active; 'I' for Inactive)
REMARK    1  A    between atoms: C_1  and  C_2
REMARK    2  A    between atoms: C_3  and  C_4
REMARK    3  A    between atoms: N_6  and  N_7
REMARK    4  A    between atoms: C_8  and  C_10
REMARK    5  A    between atoms: C_10  and  C_11
REMARK    6  A    between atoms: C_18  and  C_19
REMARK    7  A    between atoms: N_21  and  N_22
REMARK    8  A    between atoms: C_23  and  C_25
REMARK    9  A    between atoms: C_25  and  C_26
REMARK   10  A    between atoms: C_32  and  C_33
REMARK                            x       y       z     vdW  Elec       q    Type
REMARK                         _______ _______ _______ _____ _____    ______ ____
ROOT
ATOM      1  C   UNL     1      -1.627  11.422  18.838  0.00  0.00    +0.000 C 
ATOM      2  C   UNL     1      -0.221  11.962  18.751  0.00  0.00    +0.000 C 
ATOM      3  C   UNL     1       0.936  11.255  18.742  0.00  0.00    +0.000 C 
ATOM      4  C   UNL     1       2.266  11.989  18.554  0.00  0.00    +0.000 C 
ATOM      5  C   UNL     1       2.194  13.504  18.682  0.00  0.00    +0.000 C 
ATOM      6  C   UNL     1       0.981  14.116  18.717  0.00  0.00    +0.000 C 
ATOM      7  C   UNL     1       0.702  15.596  18.822  0.00  0.00    +0.000 C 
ATOM      8  N   UNL     1      -0.168  13.343  18.659  0.00  0.00    +0.000 N 
ATOM      9  H   UNL     1      -1.053  13.843  18.752  0.00  0.00    +0.000 HD
ENDROOT
BRANCH   3  10
ATOM     10  C   UNL     1       1.089   9.764  18.887  0.00  0.00    +0.000 C 
ATOM     11  O   UNL     1       0.703   9.187  19.902  0.00  0.00    +0.000 OA
ATOM     12  N   UNL     1       1.575   9.094  17.790  0.00  0.00    +0.000 N 
ATOM     13  H   UNL     1       1.842   9.549  16.921  0.00  0.00    +0.000 HD
BRANCH  12  14
ATOM     14  N   UNL     1       1.786   7.704  17.819  0.00  0.00    +0.000 N 
ATOM     15  C   UNL     1       3.103   7.282  17.762  0.00  0.00    +0.000 C 
ATOM     16  O   UNL     1       4.037   8.087  17.766  0.00  0.00    +0.000 OA
ATOM     17  H   UNL     1       0.983   7.103  17.638  0.00  0.00    +0.000 HD
BRANCH  15  18
ATOM     18  C   UNL     1       3.323   5.781  17.699  0.00  0.00    +0.000 C 
BRANCH  18  19
ATOM     19  C   UNL     1       2.570   4.966  18.729  0.00  0.00    +0.000 A 
ATOM     20  C   UNL     1       2.656   5.221  20.106  0.00  0.00    +0.000 A 
ATOM     21  C   UNL     1       1.925   4.456  21.020  0.00  0.00    +0.000 A 
ATOM     22  C   UNL     1       1.078   3.445  20.572  0.00  0.00    +0.000 A 
ATOM     23  C   UNL     1       0.948   3.211  19.207  0.00  0.00    +0.000 A 
ATOM     24  C   UNL     1       1.683   3.968  18.292  0.00  0.00    +0.000 A 
ENDBRANCH  18  19
ENDBRANCH  15  18
ENDBRANCH  12  14
ENDBRANCH   3  10
BRANCH   5  25
ATOM     25  C   UNL     1       3.464  14.279  18.853  0.00  0.00    +0.000 C 
ATOM     26  O   UNL     1       3.769  14.831  19.910  0.00  0.00    +0.000 OA
ATOM     27  N   UNL     1       4.318  14.319  17.775  0.00  0.00    +0.000 N 
ATOM     28  H   UNL     1       4.163  13.888  16.867  0.00  0.00    +0.000 HD
BRANCH  27  29
ATOM     29  N   UNL     1       5.490  15.085  17.917  0.00  0.00    +0.000 N 
ATOM     30  C   UNL     1       6.720  14.494  17.724  0.00  0.00    +0.000 C 
ATOM     31  O   UNL     1       6.847  13.313  17.402  0.00  0.00    +0.000 OA
ATOM     32  H   UNL     1       5.366  16.023  18.299  0.00  0.00    +0.000 HD
BRANCH  30  33
ATOM     33  C   UNL     1       7.899  15.434  17.919  0.00  0.00    +0.000 C 
BRANCH  33  34
ATOM     34  C   UNL     1       9.109  14.776  18.536  0.00  0.00    +0.000 A 
ATOM     35  C   UNL     1       9.136  14.483  19.908  0.00  0.00    +0.000 A 
ATOM     36  C   UNL     1      10.242  13.850  20.478  0.00  0.00    +0.000 A 
ATOM     37  C   UNL     1      11.330  13.495  19.684  0.00  0.00    +0.000 A 
ATOM     38  C   UNL     1      11.311  13.768  18.317  0.00  0.00    +0.000 A 
ATOM     39  C   UNL     1      10.206  14.403  17.744  0.00  0.00    +0.000 A 
ENDBRANCH  33  34
ENDBRANCH  30  33
ENDBRANCH  27  29
ENDBRANCH   5  25
TORSDOF 8
ENDMDL
MODEL 2
REMARK VINA RESULT:      -7.9      5.479     10.041
REMARK  Name = 
REMARK  10 active torsions:
REMARK  status: ('A' for Active; 'I' for Inactive)
REMARK    1  A    between atoms: C_1  and  C_2
REMARK    2  A    between atoms: C_3  and  C_4
REMARK    3  A    between atoms: N_6  and  N_7
REMARK    4  A    between atoms: C_8  and  C_10
REMARK    5  A    between atoms: C_10  and  C_11
REMARK    6  A    between atoms: C_18  and  C_19
REMARK    7  A    between atoms: N_21  and  N_22
REMARK    8  A    between atoms: C_23  and  C_25
REMARK    9  A    between atoms: C_25  and  C_26
REMARK   10  A    between atoms: C_32  and  C_33
REMARK                            x       y       z     vdW  Elec       q    Type
REMARK                         _______ _______ _______ _____ _____    ______ ____
ROOT
ATOM      1  C   UNL     1       1.909   3.497  21.900  0.00  0.00    +0.000 C 
ATOM      2  C   UNL     1       2.592   3.761  20.581  0.00  0.00    +0.000 C 
ATOM      3  C   UNL     1       2.629   4.927  19.890  0.00  0.00    +0.000 C 
ATOM      4  C   UNL     1       3.459   5.016  18.606  0.00  0.00    +0.000 C 
ATOM      5  C   UNL     1       3.947   3.683  18.057  0.00  0.00    +0.000 C 
ATOM      6  C   UNL     1       3.834   2.563  18.819  0.00  0.00    +0.000 C 
ATOM      7  C   UNL     1       4.271   1.162  18.463  0.00  0.00    +0.000 C 
ATOM      8  N   UNL     1       3.252   2.655  20.074  0.00  0.00    +0.000 N 
ATOM      9  H   UNL     1       3.133   1.777  20.580  0.00  0.00    +0.000 HD
ENDROOT
BRANCH   3  10
ATOM     10  C   UNL     1       1.935   6.215  20.245  0.00  0.00    +0.000 C 
ATOM     11  O   UNL     1       1.184   6.279  21.217  0.00  0.00    +0.000 OA
ATOM     12  N   UNL     1       2.276   7.315  19.496  0.00  0.00    +0.000 N 
ATOM     13  H   UNL     1       2.940   7.293  18.728  0.00  0.00    +0.000 HD
BRANCH  12  14
ATOM     14  N   UNL     1       1.671   8.566  19.719  0.00  0.00    +0.000 N 
ATOM     15  C   UNL     1       1.581   9.409  18.625  0.00  0.00    +0.000 C 
ATOM     16  O   UNL     1       1.940   9.046  17.503  0.00  0.00    +0.000 OA
ATOM     17  H   UNL     1       1.560   8.868  20.686  0.00  0.00    +0.000 HD
BRANCH  15  18
ATOM     18  C   UNL     1       1.013  10.791  18.890  0.00  0.00    +0.000 C 
BRANCH  18  19
ATOM     19  C   UNL     1      -0.470  10.949  18.633  0.00  0.00    +0.000 A 
ATOM     20  C   UNL     1      -1.166  10.162  17.704  0.00  0.00    +0.000 A 
ATOM     21  C   UNL     1      -2.541  10.328  17.516  0.00  0.00    +0.000 A 
ATOM     22  C   UNL     1      -3.247  11.262  18.271  0.00  0.00    +0.000 A 
ATOM     23  C   UNL     1      -2.578  12.019  19.228  0.00  0.00    +0.000 A 
ATOM     24  C   UNL     1      -1.203  11.860  19.413  0.00  0.00    +0.000 A 
ENDBRANCH  18  19
ENDBRANCH  15  18
ENDBRANCH  12  14
ENDBRANCH   3  10
BRANCH   5  25
ATOM     25  C   UNL     1       4.465   3.622  16.653  0.00  0.00    +0.000 C 
ATOM     26  O   UNL     1       3.728   3.479  15.678  0.00  0.00    +0.000 OA
ATOM     27  N   UNL     1       5.821   3.778  16.483  0.00  0.00    +0.000 N 
ATOM     28  H   UNL     1       6.510   3.912  17.220  0.00  0.00    +0.000 HD
BRANCH  27  29
ATOM     29  N   UNL     1       6.316   3.674  15.170  0.00  0.00    +0.000 N 
ATOM     30  C   UNL     1       6.999   4.733  14.613  0.00  0.00    +0.000 C 
ATOM     31  O   UNL     1       7.226   5.776  15.226  0.00  0.00    +0.000 OA
ATOM     32  H   UNL     1       6.015   2.855  14.643  0.00  0.00    +0.000 HD
BRANCH  30  33
ATOM     33  C   UNL     1       7.468   4.490  13.187  0.00  0.00    +0.000 C 
BRANCH  33  34
ATOM     34  C   UNL     1       6.541   3.613  12.380  0.00  0.00    +0.000 A 
ATOM     35  C   UNL     1       7.006   2.414  11.819  0.00  0.00    +0.000 A 
ATOM     36  C   UNL     1       6.146   1.587  11.095  0.00  0.00    +0.000 A 
ATOM     37  C   UNL     1       4.808   1.943  10.931  0.00  0.00    +0.000 A 
ATOM     38  C   UNL     1       4.330   3.124  11.494  0.00  0.00    +0.000 A 
ATOM     39  C   UNL     1       5.190   3.956  12.218  0.00  0.00    +0.000 A 
ENDBRANCH  33  34
ENDBRANCH  30  33
ENDBRANCH  27  29
ENDBRANCH   5  25
TORSDOF 8
ENDMDL
MODEL 3
REMARK VINA RESULT:      -7.9      3.530      7.186
REMARK  Name = 
REMARK  10 active torsions:
REMARK  status: ('A' for Active; 'I' for Inactive)
REMARK    1  A    between atoms: C_1  and  C_2
REMARK    2  A    between atoms: C_3  and  C_4
REMARK    3  A    between atoms: N_6  and  N_7
REMARK    4  A    between atoms: C_8  and  C_10
REMARK    5  A    between atoms: C_10  and  C_11
REMARK    6  A    between atoms: C_18  and  C_19
REMARK    7  A    between atoms: N_21  and  N_22
REMARK    8  A    between atoms: C_23  and  C_25
REMARK    9  A    between atoms: C_25  and  C_26
REMARK   10  A    between atoms: C_32  and  C_33
REMARK                            x       y       z     vdW  Elec       q    Type
REMARK                         _______ _______ _______ _____ _____    ______ ____
ROOT
ATOM      1  C   UNL     1       2.734   3.094  17.356  0.00  0.00    +0.000 C 
ATOM      2  C   UNL     1       3.881   3.851  17.978  0.00  0.00    +0.000 C 
ATOM      3  C   UNL     1       3.859   4.597  19.111  0.00  0.00    +0.000 C 
ATOM      4  C   UNL     1       5.160   5.215  19.630  0.00  0.00    +0.000 C 
ATOM      5  C   UNL     1       6.330   5.176  18.658  0.00  0.00    +0.000 C 
ATOM      6  C   UNL     1       6.238   4.422  17.530  0.00  0.00    +0.000 C 
ATOM      7  C   UNL     1       7.287   4.240  16.460  0.00  0.00    +0.000 C 
ATOM      8  N   UNL     1       5.068   3.722  17.278  0.00  0.00    +0.000 N 
ATOM      9  H   UNL     1       5.025   3.223  16.390  0.00  0.00    +0.000 HD
ENDROOT
BRANCH   3  10
ATOM     10  C   UNL     1       2.664   4.899  19.975  0.00  0.00    +0.000 C 
ATOM     11  O   UNL     1       1.995   3.991  20.465  0.00  0.00    +0.000 OA
ATOM     12  N   UNL     1       2.444   6.224  20.265  0.00  0.00    +0.000 N 
ATOM     13  H   UNL     1       3.024   6.983  19.919  0.00  0.00    +0.000 HD
BRANCH  12  14
ATOM     14  N   UNL     1       1.342   6.628  21.040  0.00  0.00    +0.000 N 
ATOM     15  C   UNL     1       1.003   7.968  20.975  0.00  0.00    +0.000 C 
ATOM     16  O   UNL     1       1.590   8.743  20.216  0.00  0.00    +0.000 OA
ATOM     17  H   UNL     1       1.020   5.990  21.767  0.00  0.00    +0.000 HD
BRANCH  15  18
ATOM     18  C   UNL     1      -0.127   8.418  21.883  0.00  0.00    +0.000 C 
BRANCH  18  19
ATOM     19  C   UNL     1      -0.500   9.881  21.787  0.00  0.00    +0.000 A 
ATOM     20  C   UNL     1      -0.652  10.700  22.916  0.00  0.00    +0.000 A 
ATOM     21  C   UNL     1      -0.975  12.053  22.779  0.00  0.00    +0.000 A 
ATOM     22  C   UNL     1      -1.125  12.615  21.513  0.00  0.00    +0.000 A 
ATOM     23  C   UNL     1      -0.934  11.826  20.383  0.00  0.00    +0.000 A 
ATOM     24  C   UNL     1      -0.618  10.473  20.518  0.00  0.00    +0.000 A 
ENDBRANCH  18  19
ENDBRANCH  15  18
ENDBRANCH  12  14
ENDBRANCH   3  10
BRANCH   5  25
ATOM     25  C   UNL     1       7.525   6.038  18.924  0.00  0.00    +0.000 C 
ATOM     26  O   UNL     1       8.477   5.662  19.606  0.00  0.00    +0.000 OA
ATOM     27  N   UNL     1       7.540   7.280  18.331  0.00  0.00    +0.000 N 
ATOM     28  H   UNL     1       6.810   7.676  17.744  0.00  0.00    +0.000 HD
BRANCH  27  29
ATOM     29  N   UNL     1       8.639   8.110  18.617  0.00  0.00    +0.000 N 
ATOM     30  C   UNL     1       8.578   9.453  18.313  0.00  0.00    +0.000 C 
ATOM     31  O   UNL     1       7.581   9.977  17.817  0.00  0.00    +0.000 OA
ATOM     32  H   UNL     1       9.492   7.635  18.914  0.00  0.00    +0.000 HD
BRANCH  30  33
ATOM     33  C   UNL     1       9.837  10.229  18.665  0.00  0.00    +0.000 C 
BRANCH  33  34
ATOM     34  C   UNL     1       9.604  11.703  18.889  0.00  0.00    +0.000 A 
ATOM     35  C   UNL     1       9.781  12.618  17.841  0.00  0.00    +0.000 A 
ATOM     36  C   UNL     1       9.540  13.979  18.036  0.00  0.00    +0.000 A 
ATOM     37  C   UNL     1       9.112  14.442  19.279  0.00  0.00    +0.000 A 
ATOM     38  C   UNL     1       8.919  13.542  20.326  0.00  0.00    +0.000 A 
ATOM     39  C   UNL     1       9.161  12.179  20.133  0.00  0.00    +0.000 A 
ENDBRANCH  33  34
ENDBRANCH  30  33
ENDBRANCH  27  29
ENDBRANCH   5  25
TORSDOF 8
ENDMDL
MODEL 4
REMARK VINA RESULT:      -7.8      4.009      9.478
REMARK  Name = 
REMARK  10 active torsions:
REMARK  status: ('A' for Active; 'I' for Inactive)
REMARK    1  A    between atoms: C_1  and  C_2
REMARK    2  A    between atoms: C_3  and  C_4
REMARK    3  A    between atoms: N_6  and  N_7
REMARK    4  A    between atoms: C_8  and  C_10
REMARK    5  A    between atoms: C_10  and  C_11
REMARK    6  A    between atoms: C_18  and  C_19
REMARK    7  A    between atoms: N_21  and  N_22
REMARK    8  A    between atoms: C_23  and  C_25
REMARK    9  A    between atoms: C_25  and  C_26
REMARK   10  A    between atoms: C_32  and  C_33
REMARK                            x       y       z     vdW  Elec       q    Type
REMARK                         _______ _______ _______ _____ _____    ______ ____
ROOT
ATOM      1  C   UNL     1      -0.253   8.416  21.748  0.00  0.00    +0.000 C 
ATOM      2  C   UNL     1       0.827   7.931  20.812  0.00  0.00    +0.000 C 
ATOM      3  C   UNL     1       1.330   8.574  19.729  0.00  0.00    +0.000 C 
ATOM      4  C   UNL     1       2.495   7.949  18.956  0.00  0.00    +0.000 C 
ATOM      5  C   UNL     1       2.803   6.501  19.307  0.00  0.00    +0.000 C 
ATOM      6  C   UNL     1       2.219   5.937  20.397  0.00  0.00    +0.000 C 
ATOM      7  C   UNL     1       2.407   4.533  20.917  0.00  0.00    +0.000 C 
ATOM      8  N   UNL     1       1.334   6.690  21.155  0.00  0.00    +0.000 N 
ATOM      9  H   UNL     1       0.875   6.203  21.925  0.00  0.00    +0.000 HD
ENDROOT
BRANCH   3  10
ATOM     10  C   UNL     1       0.877   9.895  19.166  0.00  0.00    +0.000 C 
ATOM     11  O   UNL     1       0.497   9.987  18.000  0.00  0.00    +0.000 OA
ATOM     12  N   UNL     1       0.813  10.942  20.053  0.00  0.00    +0.000 N 
ATOM     13  H   UNL     1       1.066  10.869  21.035  0.00  0.00    +0.000 HD
BRANCH  12  14
ATOM     14  N   UNL     1       0.431  12.230  19.636  0.00  0.00    +0.000 N 
ATOM     15  C   UNL     1       1.040  13.292  20.282  0.00  0.00    +0.000 C 
ATOM     16  O   UNL     1       1.925  13.111  21.121  0.00  0.00    +0.000 OA
ATOM     17  H   UNL     1      -0.417  12.310  19.076  0.00  0.00    +0.000 HD
BRANCH  15  18
ATOM     18  C   UNL     1       0.558  14.678  19.894  0.00  0.00    +0.000 C 
BRANCH  18  19
ATOM     19  C   UNL     1       1.450  15.436  18.935  0.00  0.00    +0.000 A 
ATOM     20  C   UNL     1       2.621  14.885  18.394  0.00  0.00    +0.000 A 
ATOM     21  C   UNL     1       3.403  15.615  17.493  0.00  0.00    +0.000 A 
ATOM     22  C   UNL     1       3.014  16.893  17.100  0.00  0.00    +0.000 A 
ATOM     23  C   UNL     1       1.832  17.435  17.594  0.00  0.00    +0.000 A 
ATOM     24  C   UNL     1       1.053  16.711  18.499  0.00  0.00    +0.000 A 
ENDBRANCH  18  19
ENDBRANCH  15  18
ENDBRANCH  12  14
ENDBRANCH   3  10
BRANCH   5  25
ATOM     25  C   UNL     1       3.679   5.703  18.391  0.00  0.00    +0.000 C 
ATOM     26  O   UNL     1       3.229   4.912  17.562  0.00  0.00    +0.000 OA
ATOM     27  N   UNL     1       5.034   5.920  18.482  0.00  0.00    +0.000 N 
ATOM     28  H   UNL     1       5.502   6.556  19.123  0.00  0.00    +0.000 HD
BRANCH  27  29
ATOM     29  N   UNL     1       5.863   5.137  17.656  0.00  0.00    +0.000 N 
ATOM     30  C   UNL     1       6.417   5.692  16.523  0.00  0.00    +0.000 C 
ATOM     31  O   UNL     1       6.242   6.868  16.204  0.00  0.00    +0.000 OA
ATOM     32  H   UNL     1       5.895   4.141  17.872  0.00  0.00    +0.000 HD
BRANCH  30  33
ATOM     33  C   UNL     1       7.280   4.733  15.719  0.00  0.00    +0.000 C 
BRANCH  33  34
ATOM     34  C   UNL     1       6.711   4.388  14.364  0.00  0.00    +0.000 A 
ATOM     35  C   UNL     1       7.503   4.501  13.211  0.00  0.00    +0.000 A 
ATOM     36  C   UNL     1       6.989   4.158  11.959  0.00  0.00    +0.000 A 
ATOM     37  C   UNL     1       5.682   3.689  11.845  0.00  0.00    +0.000 A 
ATOM     38  C   UNL     1       4.889   3.560  12.984  0.00  0.00    +0.000 A 
ATOM     39  C   UNL     1       5.400   3.904  14.239  0.00  0.00    +0.000 A 
ENDBRANCH  33  34
ENDBRANCH  30  33
ENDBRANCH  27  29
ENDBRANCH   5  25
TORSDOF 8
ENDMDL
MODEL 5
REMARK VINA RESULT:      -7.8      3.806      7.532
REMARK  Name = 
REMARK  10 active torsions:
REMARK  status: ('A' for Active; 'I' for Inactive)
REMARK    1  A    between atoms: C_1  and  C_2
REMARK    2  A    between atoms: C_3  and  C_4
REMARK    3  A    between atoms: N_6  and  N_7
REMARK    4  A    between atoms: C_8  and  C_10
REMARK    5  A    between atoms: C_10  and  C_11
REMARK    6  A    between atoms: C_18  and  C_19
REMARK    7  A    between atoms: N_21  and  N_22
REMARK    8  A    between atoms: C_23  and  C_25
REMARK    9  A    between atoms: C_25  and  C_26
REMARK   10  A    between atoms: C_32  and  C_33
REMARK                            x       y       z     vdW  Elec       q    Type
REMARK                         _______ _______ _______ _____ _____    ______ ____
ROOT
ATOM      1  C   UNL     1      11.343  12.433  17.186  0.00  0.00    +0.000 C 
ATOM      2  C   UNL     1      10.242  13.080  17.990  0.00  0.00    +0.000 C 
ATOM      3  C   UNL     1       9.470  12.505  18.945  0.00  0.00    +0.000 C 
ATOM      4  C   UNL     1       8.462  13.362  19.715  0.00  0.00    +0.000 C 
ATOM      5  C   UNL     1       8.209  14.745  19.133  0.00  0.00    +0.000 C 
ATOM      6  C   UNL     1       9.021  15.217  18.151  0.00  0.00    +0.000 C 
ATOM      7  C   UNL     1       8.946  16.559  17.463  0.00  0.00    +0.000 C 
ATOM      8  N   UNL     1      10.052  14.417  17.684  0.00  0.00    +0.000 N 
ATOM      9  H   UNL     1      10.594  14.791  16.904  0.00  0.00    +0.000 HD
ENDROOT
BRANCH   3  10
ATOM     10  C   UNL     1       9.487  11.063  19.379  0.00  0.00    +0.000 C 
ATOM     11  O   UNL     1       9.952  10.740  20.470  0.00  0.00    +0.000 OA
ATOM     12  N   UNL     1       8.862  10.170  18.542  0.00  0.00    +0.000 N 
ATOM     13  H   UNL     1       8.420  10.430  17.666  0.00  0.00    +0.000 HD
BRANCH  12  14
ATOM     14  N   UNL     1       8.839   8.794  18.831  0.00  0.00    +0.000 N 
ATOM     15  C   UNL     1       7.981   8.021  18.069  0.00  0.00    +0.000 C 
ATOM     16  O   UNL     1       7.334   8.506  17.138  0.00  0.00    +0.000 OA
ATOM     17  H   UNL     1       9.254   8.492  19.711  0.00  0.00    +0.000 HD
BRANCH  15  18
ATOM     18  C   UNL     1       7.890   6.553  18.445  0.00  0.00    +0.000 C 
BRANCH  18  19
ATOM     19  C   UNL     1       6.833   5.754  17.713  0.00  0.00    +0.000 A 
ATOM     20  C   UNL     1       6.965   5.376  16.369  0.00  0.00    +0.000 A 
ATOM     21  C   UNL     1       5.973   4.618  15.739  0.00  0.00    +0.000 A 
ATOM     22  C   UNL     1       4.848   4.204  16.450  0.00  0.00    +0.000 A 
ATOM     23  C   UNL     1       4.725   4.534  17.796  0.00  0.00    +0.000 A 
ATOM     24  C   UNL     1       5.711   5.297  18.425  0.00  0.00    +0.000 A 
ENDBRANCH  18  19
ENDBRANCH  15  18
ENDBRANCH  12  14
ENDBRANCH   3  10
BRANCH   5  25
ATOM     25  C   UNL     1       7.014  15.521  19.597  0.00  0.00    +0.000 C 
ATOM     26  O   UNL     1       7.026  16.215  20.613  0.00  0.00    +0.000 OA
ATOM     27  N   UNL     1       5.890  15.462  18.806  0.00  0.00    +0.000 N 
ATOM     28  H   UNL     1       5.784  14.929  17.947  0.00  0.00    +0.000 HD
BRANCH  27  29
ATOM     29  N   UNL     1       4.752  16.152  19.264  0.00  0.00    +0.000 N 
ATOM     30  C   UNL     1       3.498  15.623  19.042  0.00  0.00    +0.000 C 
ATOM     31  O   UNL     1       3.322  14.545  18.476  0.00  0.00    +0.000 OA
ATOM     32  H   UNL     1       4.914  17.094  19.620  0.00  0.00    +0.000 HD
BRANCH  30  33
ATOM     33  C   UNL     1       2.360  16.476  19.579  0.00  0.00    +0.000 C 
BRANCH  33  34
ATOM     34  C   UNL     1       1.514  17.113  18.503  0.00  0.00    +0.000 A 
ATOM     35  C   UNL     1       0.129  17.254  18.679  0.00  0.00    +0.000 A 
ATOM     36  C   UNL     1      -0.654  17.866  17.698  0.00  0.00    +0.000 A 
ATOM     37  C   UNL     1      -0.061  18.353  16.535  0.00  0.00    +0.000 A 
ATOM     38  C   UNL     1       1.315  18.232  16.353  0.00  0.00    +0.000 A 
ATOM     39  C   UNL     1       2.101  17.617  17.332  0.00  0.00    +0.000 A 
ENDBRANCH  33  34
ENDBRANCH  30  33
ENDBRANCH  27  29
ENDBRANCH   5  25
TORSDOF 8
ENDMDL
MODEL 6
REMARK VINA RESULT:      -7.7      3.986      6.799
REMARK  Name = 
REMARK  10 active torsions:
REMARK  status: ('A' for Active; 'I' for Inactive)
REMARK    1  A    between atoms: C_1  and  C_2
REMARK    2  A    between atoms: C_3  and  C_4
REMARK    3  A    between atoms: N_6  and  N_7
REMARK    4  A    between atoms: C_8  and  C_10
REMARK    5  A    between atoms: C_10  and  C_11
REMARK    6  A    between atoms: C_18  and  C_19
REMARK    7  A    between atoms: N_21  and  N_22
REMARK    8  A    between atoms: C_23  and  C_25
REMARK    9  A    between atoms: C_25  and  C_26
REMARK   10  A    between atoms: C_32  and  C_33
REMARK                            x       y       z     vdW  Elec       q    Type
REMARK                         _______ _______ _______ _____ _____    ______ ____
ROOT
ATOM      1  C   UNL     1       2.356   5.022  21.033  0.00  0.00    +0.000 C 
ATOM      2  C   UNL     1       2.155   6.277  20.218  0.00  0.00    +0.000 C 
ATOM      3  C   UNL     1       2.652   6.549  18.986  0.00  0.00    +0.000 C 
ATOM      4  C   UNL     1       2.256   7.851  18.285  0.00  0.00    +0.000 C 
ATOM      5  C   UNL     1       1.554   8.874  19.167  0.00  0.00    +0.000 C 
ATOM      6  C   UNL     1       1.123   8.509  20.403  0.00  0.00    +0.000 C 
ATOM      7  C   UNL     1       0.397   9.366  21.412  0.00  0.00    +0.000 C 
ATOM      8  N   UNL     1       1.353   7.215  20.844  0.00  0.00    +0.000 N 
ATOM      9  H   UNL     1       1.067   7.009  21.802  0.00  0.00    +0.000 HD
ENDROOT
BRANCH   3  10
ATOM     10  C   UNL     1       3.580   5.687  18.171  0.00  0.00    +0.000 C 
ATOM     11  O   UNL     1       3.135   4.845  17.393  0.00  0.00    +0.000 OA
ATOM     12  N   UNL     1       4.919   5.975  18.270  0.00  0.00    +0.000 N 
ATOM     13  H   UNL     1       5.299   6.708  18.862  0.00  0.00    +0.000 HD
BRANCH  12  14
ATOM     14  N   UNL     1       5.881   5.218  17.576  0.00  0.00    +0.000 N 
ATOM     15  C   UNL     1       6.428   5.805  16.448  0.00  0.00    +0.000 C 
ATOM     16  O   UNL     1       6.142   6.959  16.121  0.00  0.00    +0.000 OA
ATOM     17  H   UNL     1       5.940   4.224  17.791  0.00  0.00    +0.000 HD
BRANCH  15  18
ATOM     18  C   UNL     1       7.395   4.949  15.651  0.00  0.00    +0.000 C 
BRANCH  18  19
ATOM     19  C   UNL     1       6.924   4.539  14.273  0.00  0.00    +0.000 A 
ATOM     20  C   UNL     1       7.668   4.792  13.111  0.00  0.00    +0.000 A 
ATOM     21  C   UNL     1       7.204   4.374  11.860  0.00  0.00    +0.000 A 
ATOM     22  C   UNL     1       6.003   3.674  11.754  0.00  0.00    +0.000 A 
ATOM     23  C   UNL     1       5.276   3.377  12.903  0.00  0.00    +0.000 A 
ATOM     24  C   UNL     1       5.735   3.800  14.152  0.00  0.00    +0.000 A 
ENDBRANCH  18  19
ENDBRANCH  15  18
ENDBRANCH  12  14
ENDBRANCH   3  10
BRANCH   5  25
ATOM     25  C   UNL     1       1.431  10.286  18.683  0.00  0.00    +0.000 C 
ATOM     26  O   UNL     1       2.388  10.925  18.246  0.00  0.00    +0.000 OA
ATOM     27  N   UNL     1       0.174  10.844  18.706  0.00  0.00    +0.000 N 
ATOM     28  H   UNL     1      -0.678  10.397  19.037  0.00  0.00    +0.000 HD
BRANCH  27  29
ATOM     29  N   UNL     1       0.063  12.185  18.297  0.00  0.00    +0.000 N 
ATOM     30  C   UNL     1      -0.085  13.177  19.242  0.00  0.00    +0.000 C 
ATOM     31  O   UNL     1      -0.099  12.948  20.451  0.00  0.00    +0.000 OA
ATOM     32  H   UNL     1      -0.044  12.339  17.294  0.00  0.00    +0.000 HD
BRANCH  30  33
ATOM     33  C   UNL     1      -0.203  14.577  18.660  0.00  0.00    +0.000 C 
BRANCH  33  34
ATOM     34  C   UNL     1       0.973  15.471  18.974  0.00  0.00    +0.000 A 
ATOM     35  C   UNL     1       0.828  16.552  19.856  0.00  0.00    +0.000 A 
ATOM     36  C   UNL     1       1.919  17.365  20.170  0.00  0.00    +0.000 A 
ATOM     37  C   UNL     1       3.169  17.102  19.613  0.00  0.00    +0.000 A 
ATOM     38  C   UNL     1       3.330  16.024  18.745  0.00  0.00    +0.000 A 
ATOM     39  C   UNL     1       2.239  15.209  18.428  0.00  0.00    +0.000 A 
ENDBRANCH  33  34
ENDBRANCH  30  33
ENDBRANCH  27  29
ENDBRANCH   5  25
TORSDOF 8
ENDMDL
MODEL 7
REMARK VINA RESULT:      -7.7      3.505      9.906
REMARK  Name = 
REMARK  10 active torsions:
REMARK  status: ('A' for Active; 'I' for Inactive)
REMARK    1  A    between atoms: C_1  and  C_2
REMARK    2  A    between atoms: C_3  and  C_4
REMARK    3  A    between atoms: N_6  and  N_7
REMARK    4  A    between atoms: C_8  and  C_10
REMARK    5  A    between atoms: C_10  and  C_11
REMARK    6  A    between atoms: C_18  and  C_19
REMARK    7  A    between atoms: N_21  and  N_22
REMARK    8  A    between atoms: C_23  and  C_25
REMARK    9  A    between atoms: C_25  and  C_26
REMARK   10  A    between atoms: C_32  and  C_33
REMARK                            x       y       z     vdW  Elec       q    Type
REMARK                         _______ _______ _______ _____ _____    ______ ____
ROOT
ATOM      1  C   UNL     1       6.174   3.703  15.438  0.00  0.00    +0.000 C 
ATOM      2  C   UNL     1       5.308   4.440  16.430  0.00  0.00    +0.000 C 
ATOM      3  C   UNL     1       5.608   5.580  17.100  0.00  0.00    +0.000 C 
ATOM      4  C   UNL     1       4.551   6.225  18.000  0.00  0.00    +0.000 C 
ATOM      5  C   UNL     1       3.334   5.360  18.292  0.00  0.00    +0.000 C 
ATOM      6  C   UNL     1       3.141   4.214  17.587  0.00  0.00    +0.000 C 
ATOM      7  C   UNL     1       1.997   3.238  17.715  0.00  0.00    +0.000 C 
ATOM      8  N   UNL     1       4.074   3.846  16.630  0.00  0.00    +0.000 N 
ATOM      9  H   UNL     1       3.918   2.947  16.172  0.00  0.00    +0.000 HD
ENDROOT
BRANCH   3  10
ATOM     10  C   UNL     1       6.907   6.341  17.060  0.00  0.00    +0.000 C 
ATOM     11  O   UNL     1       7.658   6.254  16.090  0.00  0.00    +0.000 OA
ATOM     12  N   UNL     1       7.138   7.203  18.104  0.00  0.00    +0.000 N 
ATOM     13  H   UNL     1       6.499   7.333  18.884  0.00  0.00    +0.000 HD
BRANCH  12  14
ATOM     14  N   UNL     1       8.330   7.945  18.188  0.00  0.00    +0.000 N 
ATOM     15  C   UNL     1       8.222   9.308  17.971  0.00  0.00    +0.000 C 
ATOM     16  O   UNL     1       7.127   9.846  17.795  0.00  0.00    +0.000 OA
ATOM     17  H   UNL     1       9.208   7.428  18.159  0.00  0.00    +0.000 HD
BRANCH  15  18
ATOM     18  C   UNL     1       9.523  10.091  17.971  0.00  0.00    +0.000 C 
BRANCH  18  19
ATOM     19  C   UNL     1       9.621  11.197  18.998  0.00  0.00    +0.000 A 
ATOM     20  C   UNL     1       9.522  10.961  20.377  0.00  0.00    +0.000 A 
ATOM     21  C   UNL     1       9.641  12.012  21.292  0.00  0.00    +0.000 A 
ATOM     22  C   UNL     1       9.889  13.308  20.845  0.00  0.00    +0.000 A 
ATOM     23  C   UNL     1      10.035  13.550  19.483  0.00  0.00    +0.000 A 
ATOM     24  C   UNL     1       9.909  12.503  18.567  0.00  0.00    +0.000 A 
ENDBRANCH  18  19
ENDBRANCH  15  18
ENDBRANCH  12  14
ENDBRANCH   3  10
BRANCH   5  25
ATOM     25  C   UNL     1       2.419   5.749  19.413  0.00  0.00    +0.000 C 
ATOM     26  O   UNL     1       1.559   4.992  19.862  0.00  0.00    +0.000 OA
ATOM     27  N   UNL     1       2.606   6.996  19.964  0.00  0.00    +0.000 N 
ATOM     28  H   UNL     1       3.293   7.687  19.673  0.00  0.00    +0.000 HD
BRANCH  27  29
ATOM     29  N   UNL     1       1.719   7.382  20.985  0.00  0.00    +0.000 N 
ATOM     30  C   UNL     1       1.012   8.559  20.866  0.00  0.00    +0.000 C 
ATOM     31  O   UNL     1       1.100   9.291  19.881  0.00  0.00    +0.000 OA
ATOM     32  H   UNL     1       1.752   6.825  21.840  0.00  0.00    +0.000 HD
BRANCH  30  33
ATOM     33  C   UNL     1       0.099   8.858  22.045  0.00  0.00    +0.000 C 
BRANCH  33  34
ATOM     34  C   UNL     1      -0.548  10.221  21.986  0.00  0.00    +0.000 A 
ATOM     35  C   UNL     1      -0.642  10.911  20.769  0.00  0.00    +0.000 A 
ATOM     36  C   UNL     1      -1.263  12.159  20.705  0.00  0.00    +0.000 A 
ATOM     37  C   UNL     1      -1.805  12.729  21.855  0.00  0.00    +0.000 A 
ATOM     38  C   UNL     1      -1.730  12.049  23.069  0.00  0.00    +0.000 A 
ATOM     39  C   UNL     1      -1.107  10.800  23.136  0.00  0.00    +0.000 A 
ENDBRANCH  33  34
ENDBRANCH  30  33
ENDBRANCH  27  29
ENDBRANCH   5  25
TORSDOF 8
ENDMDL
MODEL 8
REMARK VINA RESULT:      -7.6      3.996      7.227
REMARK  Name = 
REMARK  10 active torsions:
REMARK  status: ('A' for Active; 'I' for Inactive)
REMARK    1  A    between atoms: C_1  and  C_2
REMARK    2  A    between atoms: C_3  and  C_4
REMARK    3  A    between atoms: N_6  and  N_7
REMARK    4  A    between atoms: C_8  and  C_10
REMARK    5  A    between atoms: C_10  and  C_11
REMARK    6  A    between atoms: C_18  and  C_19
REMARK    7  A    between atoms: N_21  and  N_22
REMARK    8  A    between atoms: C_23  and  C_25
REMARK    9  A    between atoms: C_25  and  C_26
REMARK   10  A    between atoms: C_32  and  C_33
REMARK                            x       y       z     vdW  Elec       q    Type
REMARK                         _______ _______ _______ _____ _____    ______ ____
ROOT
ATOM      1  C   UNL     1       2.980   4.074  20.598  0.00  0.00    +0.000 C 
ATOM      2  C   UNL     1       2.646   5.329  19.831  0.00  0.00    +0.000 C 
ATOM      3  C   UNL     1       2.886   5.584  18.520  0.00  0.00    +0.000 C 
ATOM      4  C   UNL     1       2.384   6.892  17.903  0.00  0.00    +0.000 C 
ATOM      5  C   UNL     1       1.901   7.935  18.900  0.00  0.00    +0.000 C 
ATOM      6  C   UNL     1       1.725   7.587  20.202  0.00  0.00    +0.000 C 
ATOM      7  C   UNL     1       1.241   8.465  21.331  0.00  0.00    +0.000 C 
ATOM      8  N   UNL     1       2.011   6.290  20.599  0.00  0.00    +0.000 N 
ATOM      9  H   UNL     1       1.922   6.095  21.597  0.00  0.00    +0.000 HD
ENDROOT
BRANCH   3  10
ATOM     10  C   UNL     1       3.606   4.696  17.541  0.00  0.00    +0.000 C 
ATOM     11  O   UNL     1       3.053   3.707  17.063  0.00  0.00    +0.000 OA
ATOM     12  N   UNL     1       4.851   5.117  17.142  0.00  0.00    +0.000 N 
ATOM     13  H   UNL     1       5.298   5.964  17.481  0.00  0.00    +0.000 HD
BRANCH  12  14
ATOM     14  N   UNL     1       5.629   4.355  16.251  0.00  0.00    +0.000 N 
ATOM     15  C   UNL     1       6.049   4.995  15.099  0.00  0.00    +0.000 C 
ATOM     16  O   UNL     1       5.819   6.191  14.907  0.00  0.00    +0.000 OA
ATOM     17  H   UNL     1       5.633   3.344  16.379  0.00  0.00    +0.000 HD
BRANCH  15  18
ATOM     18  C   UNL     1       6.809   4.143  14.098  0.00  0.00    +0.000 C 
BRANCH  18  19
ATOM     19  C   UNL     1       5.974   3.527  12.996  0.00  0.00    +0.000 A 
ATOM     20  C   UNL     1       4.737   4.056  12.599  0.00  0.00    +0.000 A 
ATOM     21  C   UNL     1       4.010   3.467  11.559  0.00  0.00    +0.000 A 
ATOM     22  C   UNL     1       4.520   2.360  10.884  0.00  0.00    +0.000 A 
ATOM     23  C   UNL     1       5.767   1.852  11.238  0.00  0.00    +0.000 A 
ATOM     24  C   UNL     1       6.491   2.434  12.280  0.00  0.00    +0.000 A 
ENDBRANCH  18  19
ENDBRANCH  15  18
ENDBRANCH  12  14
ENDBRANCH   3  10
BRANCH   5  25
ATOM     25  C   UNL     1       1.715   9.348  18.439  0.00  0.00    +0.000 C 
ATOM     26  O   UNL     1       2.545   9.938  17.749  0.00  0.00    +0.000 OA
ATOM     27  N   UNL     1       0.535   9.964  18.786  0.00  0.00    +0.000 N 
ATOM     28  H   UNL     1      -0.216   9.560  19.342  0.00  0.00    +0.000 HD
BRANCH  27  29
ATOM     29  N   UNL     1       0.376  11.306  18.395  0.00  0.00    +0.000 N 
ATOM     30  C   UNL     1       0.054  12.259  19.337  0.00  0.00    +0.000 C 
ATOM     31  O   UNL     1      -0.079  11.995  20.532  0.00  0.00    +0.000 OA
ATOM     32  H   UNL     1       0.372  11.481  17.390  0.00  0.00    +0.000 HD
BRANCH  30  33
ATOM     33  C   UNL     1      -0.097  13.664  18.775  0.00  0.00    +0.000 C 
BRANCH  33  34
ATOM     34  C   UNL     1       1.005  14.609  19.189  0.00  0.00    +0.000 A 
ATOM     35  C   UNL     1       0.899  15.346  20.378  0.00  0.00    +0.000 A 
ATOM     36  C   UNL     1       1.927  16.201  20.779  0.00  0.00    +0.000 A 
ATOM     37  C   UNL     1       3.077  16.324  20.000  0.00  0.00    +0.000 A 
ATOM     38  C   UNL     1       3.201  15.589  18.823  0.00  0.00    +0.000 A 
ATOM     39  C   UNL     1       2.172  14.733  18.419  0.00  0.00    +0.000 A 
ENDBRANCH  33  34
ENDBRANCH  30  33
ENDBRANCH  27  29
ENDBRANCH   5  25
TORSDOF 8
ENDMDL
MODEL 9
REMARK VINA RESULT:      -7.5      0.711      1.353
REMARK  Name = 
REMARK  10 active torsions:
REMARK  status: ('A' for Active; 'I' for Inactive)
REMARK    1  A    between atoms: C_1  and  C_2
REMARK    2  A    between atoms: C_3  and  C_4
REMARK    3  A    between atoms: N_6  and  N_7
REMARK    4  A    between atoms: C_8  and  C_10
REMARK    5  A    between atoms: C_10  and  C_11
REMARK    6  A    between atoms: C_18  and  C_19
REMARK    7  A    between atoms: N_21  and  N_22
REMARK    8  A    between atoms: C_23  and  C_25
REMARK    9  A    between atoms: C_25  and  C_26
REMARK   10  A    between atoms: C_32  and  C_33
REMARK                            x       y       z     vdW  Elec       q    Type
REMARK                         _______ _______ _______ _____ _____    ______ ____
ROOT
ATOM      1  C   UNL     1      -1.602  11.061  18.776  0.00  0.00    +0.000 C 
ATOM      2  C   UNL     1      -0.213  11.640  18.665  0.00  0.00    +0.000 C 
ATOM      3  C   UNL     1       0.939  10.976  18.398  0.00  0.00    +0.000 C 
ATOM      4  C   UNL     1       2.242  11.764  18.236  0.00  0.00    +0.000 C 
ATOM      5  C   UNL     1       2.179  13.218  18.679  0.00  0.00    +0.000 C 
ATOM      6  C   UNL     1       0.974  13.782  18.957  0.00  0.00    +0.000 C 
ATOM      7  C   UNL     1       0.703  15.203  19.391  0.00  0.00    +0.000 C 
ATOM      8  N   UNL     1      -0.173  13.011  18.853  0.00  0.00    +0.000 N 
ATOM      9  H   UNL     1      -1.045  13.461  19.133  0.00  0.00    +0.000 HD
ENDROOT
BRANCH   3  10
ATOM     10  C   UNL     1       1.109   9.491  18.217  0.00  0.00    +0.000 C 
ATOM     11  O   UNL     1       0.568   8.904  17.282  0.00  0.00    +0.000 OA
ATOM     12  N   UNL     1       1.979   8.870  19.080  0.00  0.00    +0.000 N 
ATOM     13  H   UNL     1       2.482   9.351  19.821  0.00  0.00    +0.000 HD
BRANCH  12  14
ATOM     14  N   UNL     1       2.196   7.482  19.024  0.00  0.00    +0.000 N 
ATOM     15  C   UNL     1       3.169   7.047  18.142  0.00  0.00    +0.000 C 
ATOM     16  O   UNL     1       3.860   7.844  17.502  0.00  0.00    +0.000 OA
ATOM     17  H   UNL     1       1.485   6.878  19.436  0.00  0.00    +0.000 HD
BRANCH  15  18
ATOM     18  C   UNL     1       3.336   5.543  18.016  0.00  0.00    +0.000 C 
BRANCH  18  19
ATOM     19  C   UNL     1       2.523   4.712  18.983  0.00  0.00    +0.000 A 
ATOM     20  C   UNL     1       1.470   3.882  18.569  0.00  0.00    +0.000 A 
ATOM     21  C   UNL     1       0.760   3.113  19.496  0.00  0.00    +0.000 A 
ATOM     22  C   UNL     1       1.107   3.141  20.846  0.00  0.00    +0.000 A 
ATOM     23  C   UNL     1       2.177   3.925  21.265  0.00  0.00    +0.000 A 
ATOM     24  C   UNL     1       2.884   4.699  20.341  0.00  0.00    +0.000 A 
ENDBRANCH  18  19
ENDBRANCH  15  18
ENDBRANCH  12  14
ENDBRANCH   3  10
BRANCH   5  25
ATOM     25  C   UNL     1       3.458  13.971  18.881  0.00  0.00    +0.000 C 
ATOM     26  O   UNL     1       3.876  14.284  19.995  0.00  0.00    +0.000 OA
ATOM     27  N   UNL     1       4.187  14.271  17.754  0.00  0.00    +0.000 N 
ATOM     28  H   UNL     1       3.934  14.048  16.794  0.00  0.00    +0.000 HD
BRANCH  27  29
ATOM     29  N   UNL     1       5.365  15.019  17.936  0.00  0.00    +0.000 N 
ATOM     30  C   UNL     1       6.590  14.428  17.715  0.00  0.00    +0.000 C 
ATOM     31  O   UNL     1       6.708  13.264  17.335  0.00  0.00    +0.000 OA
ATOM     32  H   UNL     1       5.249  15.938  18.365  0.00  0.00    +0.000 HD
BRANCH  30  33
ATOM     33  C   UNL     1       7.777  15.346  17.960  0.00  0.00    +0.000 C 
BRANCH  33  34
ATOM     34  C   UNL     1       8.875  14.720  18.786  0.00  0.00    +0.000 A 
ATOM     35  C   UNL     1      10.155  14.534  18.243  0.00  0.00    +0.000 A 
ATOM     36  C   UNL     1      11.180  13.980  19.011  0.00  0.00    +0.000 A 
ATOM     37  C   UNL     1      10.941  13.613  20.334  0.00  0.00    +0.000 A 
ATOM     38  C   UNL     1       9.678  13.804  20.891  0.00  0.00    +0.000 A 
ATOM     39  C   UNL     1       8.648  14.358  20.123  0.00  0.00    +0.000 A 
ENDBRANCH  33  34
ENDBRANCH  30  33
ENDBRANCH  27  29
ENDBRANCH   5  25
TORSDOF 8
ENDMDL
