MODEL 1
REMARK VINA RESULT:      -8.9      0.000      0.000
REMARK  Name = 
REMARK  11 active torsions:
REMARK  status: ('A' for Active; 'I' for Inactive)
REMARK    1  A    between atoms: C_1  and  C_2
REMARK    2  A    between atoms: C_2  and  C_3
REMARK    3  A    between atoms: C_2  and  N_4
REMARK    4  A    between atoms: N_11  and  C_12
REMARK    5  A    between atoms: N_11  and  C_13
REMARK    6  A    between atoms: C_13  and  C_14
REMARK    7  A    between atoms: C_14  and  O_15
REMARK    8  A    between atoms: O_15  and  C_16
REMARK    9  A    between atoms: C_16  and  C_18
REMARK   10  A    between atoms: C_18  and  C_19
REMARK   11  A    between atoms: C_18  and  C_25
REMARK                            x       y       z     vdW  Elec       q    Type
REMARK                         _______ _______ _______ _____ _____    ______ ____
ROOT
ATOM      1  C   UNL     1       1.230  10.711  18.031  0.00  0.00    +0.000 C 
ENDROOT
BRANCH   1   9
ATOM      2  N   UNL     1      -4.632  11.948  18.082  0.00  0.00    +0.000 N 
ATOM      3  C   UNL     1      -4.431  12.483  19.326  0.00  0.00    +0.000 C 
ATOM      4  O   UNL     1      -5.209  13.122  20.013  0.00  0.00    +0.000 OA
ATOM      5  C   UNL     1      -3.094  12.036  19.814  0.00  0.00    +0.000 C 
ATOM      6  C   UNL     1      -2.363  11.563  18.553  0.00  0.00    +0.000 C 
ATOM      7  C   UNL     1      -1.748  10.166  18.732  0.00  0.00    +0.000 C 
ATOM      8  C   UNL     1      -0.618  10.178  19.739  0.00  0.00    +0.000 C 
ATOM      9  N   UNL     1       0.481  11.150  19.318  0.00  0.00    +0.000 N 
ATOM     10  C   UNL     1       1.493  11.242  20.478  0.00  0.00    +0.000 C 
ATOM     11  C   UNL     1      -0.093  12.567  19.099  0.00  0.00    +0.000 C 
ATOM     12  C   UNL     1      -1.282  12.566  18.131  0.00  0.00    +0.000 C 
ATOM     13  C   UNL     1      -3.489  11.434  17.549  0.00  0.00    +0.000 C 
ATOM     14  O   UNL     1      -3.353  10.893  16.453  0.00  0.00    +0.000 OA
BRANCH   2  16
ATOM     15  C   UNL     1      -6.604  10.628  18.616  0.00  0.00    +0.000 C 
ATOM     16  C   UNL     1      -5.965  11.586  17.599  0.00  0.00    +0.000 C 
ATOM     17  C   UNL     1      -6.876  12.778  17.328  0.00  0.00    +0.000 C 
ENDBRANCH   2  16
ENDBRANCH   1   9
BRANCH   1  18
ATOM     18  C   UNL     1       1.272   9.193  17.789  0.00  0.00    +0.000 C 
BRANCH  18  19
ATOM     19  O   UNL     1       2.548   8.654  18.172  0.00  0.00    +0.000 OA
BRANCH  19  20
ATOM     20  C   UNL     1       2.452   7.555  18.987  0.00  0.00    +0.000 C 
ATOM     21  O   UNL     1       2.058   7.637  20.147  0.00  0.00    +0.000 OA
BRANCH  20  22
ATOM     22  C   UNL     1       2.838   6.270  18.251  0.00  0.00    +0.000 C 
BRANCH  22  23
ATOM     23  C   UNL     1       4.353   6.111  18.165  0.00  0.00    +0.000 A 
ATOM     24  C   UNL     1       5.102   6.665  17.118  0.00  0.00    +0.000 A 
ATOM     25  C   UNL     1       6.496   6.600  17.120  0.00  0.00    +0.000 A 
ATOM     26  C   UNL     1       7.174   5.976  18.164  0.00  0.00    +0.000 A 
ATOM     27  C   UNL     1       6.446   5.345  19.172  0.00  0.00    +0.000 A 
ATOM     28  C   UNL     1       5.049   5.388  19.157  0.00  0.00    +0.000 A 
ENDBRANCH  22  23
BRANCH  22  29
ATOM     29  C   UNL     1       2.044   5.069  18.792  0.00  0.00    +0.000 A 
ATOM     30  C   UNL     1       1.743   4.978  20.159  0.00  0.00    +0.000 A 
ATOM     31  C   UNL     1       1.238   3.788  20.701  0.00  0.00    +0.000 A 
ATOM     32  C   UNL     1       0.975   2.698  19.875  0.00  0.00    +0.000 A 
ATOM     33  C   UNL     1       1.158   2.808  18.505  0.00  0.00    +0.000 A 
ATOM     34  C   UNL     1       1.679   3.986  17.966  0.00  0.00    +0.000 A 
ENDBRANCH  22  29
ENDBRANCH  20  22
ENDBRANCH  19  20
ENDBRANCH  18  19
ENDBRANCH   1  18
TORSDOF 8
ENDMDL
MODEL 2
REMARK VINA RESULT:      -8.3      0.837      1.093
REMARK  Name = 
REMARK  11 active torsions:
REMARK  status: ('A' for Active; 'I' for Inactive)
REMARK    1  A    between atoms: C_1  and  C_2
REMARK    2  A    between atoms: C_2  and  C_3
REMARK    3  A    between atoms: C_2  and  N_4
REMARK    4  A    between atoms: N_11  and  C_12
REMARK    5  A    between atoms: N_11  and  C_13
REMARK    6  A    between atoms: C_13  and  C_14
REMARK    7  A    between atoms: C_14  and  O_15
REMARK    8  A    between atoms: O_15  and  C_16
REMARK    9  A    between atoms: C_16  and  C_18
REMARK   10  A    between atoms: C_18  and  C_19
REMARK   11  A    between atoms: C_18  and  C_25
REMARK                            x       y       z     vdW  Elec       q    Type
REMARK                         _______ _______ _______ _____ _____    ______ ____
ROOT
ATOM      1  C   UNL     1       1.254  10.392  17.992  0.00  0.00    +0.000 C 
ENDROOT
BRANCH   1   9
ATOM      2  N   UNL     1      -4.510  12.026  17.951  0.00  0.00    +0.000 N 
ATOM      3  C   UNL     1      -4.307  12.499  19.219  0.00  0.00    +0.000 C 
ATOM      4  O   UNL     1      -5.058  13.164  19.912  0.00  0.00    +0.000 OA
ATOM      5  C   UNL     1      -3.016  11.943  19.721  0.00  0.00    +0.000 C 
ATOM      6  C   UNL     1      -2.285  11.469  18.460  0.00  0.00    +0.000 C 
ATOM      7  C   UNL     1      -1.772  10.027  18.599  0.00  0.00    +0.000 C 
ATOM      8  C   UNL     1      -0.670   9.923  19.632  0.00  0.00    +0.000 C 
ATOM      9  N   UNL     1       0.503  10.833  19.276  0.00  0.00    +0.000 N 
ATOM     10  C   UNL     1       1.488  10.812  20.463  0.00  0.00    +0.000 C 
ATOM     11  C   UNL     1       0.032  12.294  19.099  0.00  0.00    +0.000 C 
ATOM     12  C   UNL     1      -1.129  12.411  18.104  0.00  0.00    +0.000 C 
ATOM     13  C   UNL     1      -3.391  11.455  17.425  0.00  0.00    +0.000 C 
ATOM     14  O   UNL     1      -3.263  10.948  16.313  0.00  0.00    +0.000 OA
BRANCH   2  16
ATOM     15  C   UNL     1      -6.595  10.860  18.406  0.00  0.00    +0.000 C 
ATOM     16  C   UNL     1      -5.851  11.774  17.421  0.00  0.00    +0.000 C 
ATOM     17  C   UNL     1      -6.657  13.037  17.137  0.00  0.00    +0.000 C 
ENDBRANCH   2  16
ENDBRANCH   1   9
BRANCH   1  18
ATOM     18  C   UNL     1       1.306   8.873  17.757  0.00  0.00    +0.000 C 
BRANCH  18  19
ATOM     19  O   UNL     1       2.639   8.375  17.964  0.00  0.00    +0.000 OA
BRANCH  19  20
ATOM     20  C   UNL     1       2.678   7.209  18.686  0.00  0.00    +0.000 C 
ATOM     21  O   UNL     1       2.414   7.177  19.885  0.00  0.00    +0.000 OA
BRANCH  20  22
ATOM     22  C   UNL     1       3.028   6.009  17.804  0.00  0.00    +0.000 C 
BRANCH  22  23
ATOM     23  C   UNL     1       4.476   6.073  17.326  0.00  0.00    +0.000 A 
ATOM     24  C   UNL     1       5.469   6.750  18.046  0.00  0.00    +0.000 A 
ATOM     25  C   UNL     1       6.805   6.701  17.646  0.00  0.00    +0.000 A 
ATOM     26  C   UNL     1       7.179   5.980  16.516  0.00  0.00    +0.000 A 
ATOM     27  C   UNL     1       6.197   5.369  15.737  0.00  0.00    +0.000 A 
ATOM     28  C   UNL     1       4.855   5.439  16.124  0.00  0.00    +0.000 A 
ENDBRANCH  22  23
BRANCH  22  29
ATOM     29  C   UNL     1       2.571   4.695  18.460  0.00  0.00    +0.000 A 
ATOM     30  C   UNL     1       3.420   4.013  19.344  0.00  0.00    +0.000 A 
ATOM     31  C   UNL     1       3.120   2.708  19.757  0.00  0.00    +0.000 A 
ATOM     32  C   UNL     1       1.943   2.093  19.339  0.00  0.00    +0.000 A 
ATOM     33  C   UNL     1       1.037   2.794  18.558  0.00  0.00    +0.000 A 
ATOM     34  C   UNL     1       1.342   4.087  18.129  0.00  0.00    +0.000 A 
ENDBRANCH  22  29
ENDBRANCH  20  22
ENDBRANCH  19  20
ENDBRANCH  18  19
ENDBRANCH   1  18
TORSDOF 8
ENDMDL
MODEL 3
REMARK VINA RESULT:      -8.3      0.872      1.319
REMARK  Name = 
REMARK  11 active torsions:
REMARK  status: ('A' for Active; 'I' for Inactive)
REMARK    1  A    between atoms: C_1  and  C_2
REMARK    2  A    between atoms: C_2  and  C_3
REMARK    3  A    between atoms: C_2  and  N_4
REMARK    4  A    between atoms: N_11  and  C_12
REMARK    5  A    between atoms: N_11  and  C_13
REMARK    6  A    between atoms: C_13  and  C_14
REMARK    7  A    between atoms: C_14  and  O_15
REMARK    8  A    between atoms: O_15  and  C_16
REMARK    9  A    between atoms: C_16  and  C_18
REMARK   10  A    between atoms: C_18  and  C_19
REMARK   11  A    between atoms: C_18  and  C_25
REMARK                            x       y       z     vdW  Elec       q    Type
REMARK                         _______ _______ _______ _____ _____    ______ ____
ROOT
ATOM      1  C   UNL     1       1.337  10.334  18.279  0.00  0.00    +0.000 C 
ENDROOT
BRANCH   1   9
ATOM      2  N   UNL     1      -4.388  12.084  18.033  0.00  0.00    +0.000 N 
ATOM      3  C   UNL     1      -4.245  12.474  19.337  0.00  0.00    +0.000 C 
ATOM      4  O   UNL     1      -5.022  13.111  20.028  0.00  0.00    +0.000 OA
ATOM      5  C   UNL     1      -2.994  11.862  19.872  0.00  0.00    +0.000 C 
ATOM      6  C   UNL     1      -2.203  11.451  18.624  0.00  0.00    +0.000 C 
ATOM      7  C   UNL     1      -1.723   9.994  18.701  0.00  0.00    +0.000 C 
ATOM      8  C   UNL     1      -0.681   9.805  19.783  0.00  0.00    +0.000 C 
ATOM      9  N   UNL     1       0.525  10.711  19.547  0.00  0.00    +0.000 N 
ATOM     10  C   UNL     1       1.443  10.598  20.781  0.00  0.00    +0.000 C 
ATOM     11  C   UNL     1       0.089  12.189  19.436  0.00  0.00    +0.000 C 
ATOM     12  C   UNL     1      -1.014  12.389  18.389  0.00  0.00    +0.000 C 
ATOM     13  C   UNL     1      -3.251  11.523  17.533  0.00  0.00    +0.000 C 
ATOM     14  O   UNL     1      -3.072  11.081  16.400  0.00  0.00    +0.000 OA
BRANCH   2  16
ATOM     15  C   UNL     1      -6.490  10.882  18.268  0.00  0.00    +0.000 C 
ATOM     16  C   UNL     1      -5.702  11.891  17.418  0.00  0.00    +0.000 C 
ATOM     17  C   UNL     1      -6.496  13.179  17.228  0.00  0.00    +0.000 C 
ENDBRANCH   2  16
ENDBRANCH   1   9
BRANCH   1  18
ATOM     18  C   UNL     1       1.428   8.826  17.989  0.00  0.00    +0.000 C 
BRANCH  18  19
ATOM     19  O   UNL     1       2.767   8.349  18.204  0.00  0.00    +0.000 OA
BRANCH  19  20
ATOM     20  C   UNL     1       2.816   7.078  18.717  0.00  0.00    +0.000 C 
ATOM     21  O   UNL     1       2.248   6.775  19.762  0.00  0.00    +0.000 OA
BRANCH  20  22
ATOM     22  C   UNL     1       3.598   6.131  17.804  0.00  0.00    +0.000 C 
BRANCH  22  23
ATOM     23  C   UNL     1       5.102   6.242  18.044  0.00  0.00    +0.000 A 
ATOM     24  C   UNL     1       5.723   5.659  19.157  0.00  0.00    +0.000 A 
ATOM     25  C   UNL     1       7.111   5.680  19.295  0.00  0.00    +0.000 A 
ATOM     26  C   UNL     1       7.910   6.288  18.331  0.00  0.00    +0.000 A 
ATOM     27  C   UNL     1       7.307   6.947  17.260  0.00  0.00    +0.000 A 
ATOM     28  C   UNL     1       5.915   6.948  17.133  0.00  0.00    +0.000 A 
ENDBRANCH  22  23
BRANCH  22  29
ATOM     29  C   UNL     1       2.993   4.717  17.835  0.00  0.00    +0.000 A 
ATOM     30  C   UNL     1       1.603   4.543  17.908  0.00  0.00    +0.000 A 
ATOM     31  C   UNL     1       1.055   3.282  18.177  0.00  0.00    +0.000 A 
ATOM     32  C   UNL     1       1.885   2.172  18.319  0.00  0.00    +0.000 A 
ATOM     33  C   UNL     1       3.253   2.304  18.137  0.00  0.00    +0.000 A 
ATOM     34  C   UNL     1       3.803   3.563  17.888  0.00  0.00    +0.000 A 
ENDBRANCH  22  29
ENDBRANCH  20  22
ENDBRANCH  19  20
ENDBRANCH  18  19
ENDBRANCH   1  18
TORSDOF 8
ENDMDL
MODEL 4
REMARK VINA RESULT:      -8.3      1.039      1.428
REMARK  Name = 
REMARK  11 active torsions:
REMARK  status: ('A' for Active; 'I' for Inactive)
REMARK    1  A    between atoms: C_1  and  C_2
REMARK    2  A    between atoms: C_2  and  C_3
REMARK    3  A    between atoms: C_2  and  N_4
REMARK    4  A    between atoms: N_11  and  C_12
REMARK    5  A    between atoms: N_11  and  C_13
REMARK    6  A    between atoms: C_13  and  C_14
REMARK    7  A    between atoms: C_14  and  O_15
REMARK    8  A    between atoms: O_15  and  C_16
REMARK    9  A    between atoms: C_16  and  C_18
REMARK   10  A    between atoms: C_18  and  C_19
REMARK   11  A    between atoms: C_18  and  C_25
REMARK                            x       y       z     vdW  Elec       q    Type
REMARK                         _______ _______ _______ _____ _____    ______ ____
ROOT
ATOM      1  C   UNL     1       0.758   9.868  17.914  0.00  0.00    +0.000 C 
ENDROOT
BRANCH   1   9
ATOM      2  N   UNL     1      -4.714  12.165  18.739  0.00  0.00    +0.000 N 
ATOM      3  C   UNL     1      -4.166  12.910  19.749  0.00  0.00    +0.000 C 
ATOM      4  O   UNL     1      -4.674  13.817  20.385  0.00  0.00    +0.000 OA
ATOM      5  C   UNL     1      -2.828  12.336  20.077  0.00  0.00    +0.000 C 
ATOM      6  C   UNL     1      -2.472  11.472  18.862  0.00  0.00    +0.000 C 
ATOM      7  C   UNL     1      -2.032  10.058  19.270  0.00  0.00    +0.000 C 
ATOM      8  C   UNL     1      -0.713  10.075  20.014  0.00  0.00    +0.000 C 
ATOM      9  N   UNL     1       0.386  10.708  19.165  0.00  0.00    +0.000 N 
ATOM     10  C   UNL     1       1.636  10.859  20.056  0.00  0.00    +0.000 C 
ATOM     11  C   UNL     1      -0.021  12.127  18.707  0.00  0.00    +0.000 C 
ATOM     12  C   UNL     1      -1.386  12.139  18.008  0.00  0.00    +0.000 C 
ATOM     13  C   UNL     1      -3.802  11.342  18.150  0.00  0.00    +0.000 C 
ATOM     14  O   UNL     1      -3.992  10.561  17.221  0.00  0.00    +0.000 OA
BRANCH   2  16
ATOM     15  C   UNL     1      -6.628  12.604  17.304  0.00  0.00    +0.000 C 
ATOM     16  C   UNL     1      -6.158  11.963  18.619  0.00  0.00    +0.000 C 
ATOM     17  C   UNL     1      -6.592  10.504  18.698  0.00  0.00    +0.000 C 
ENDBRANCH   2  16
ENDBRANCH   1   9
BRANCH   1  18
ATOM     18  C   UNL     1       2.169   9.256  17.938  0.00  0.00    +0.000 C 
BRANCH  18  19
ATOM     19  O   UNL     1       2.135   7.890  17.492  0.00  0.00    +0.000 OA
BRANCH  19  20
ATOM     20  C   UNL     1       2.473   6.990  18.471  0.00  0.00    +0.000 C 
ATOM     21  O   UNL     1       2.431   7.279  19.664  0.00  0.00    +0.000 OA
BRANCH  20  22
ATOM     22  C   UNL     1       2.837   5.625  17.883  0.00  0.00    +0.000 C 
BRANCH  22  23
ATOM     23  C   UNL     1       4.252   5.626  17.310  0.00  0.00    +0.000 A 
ATOM     24  C   UNL     1       5.196   6.602  17.656  0.00  0.00    +0.000 A 
ATOM     25  C   UNL     1       6.513   6.517  17.204  0.00  0.00    +0.000 A 
ATOM     26  C   UNL     1       6.917   5.461  16.393  0.00  0.00    +0.000 A 
ATOM     27  C   UNL     1       5.974   4.525  15.968  0.00  0.00    +0.000 A 
ATOM     28  C   UNL     1       4.649   4.623  16.399  0.00  0.00    +0.000 A 
ENDBRANCH  22  23
BRANCH  22  29
ATOM     29  C   UNL     1       2.487   4.495  18.866  0.00  0.00    +0.000 A 
ATOM     30  C   UNL     1       1.166   4.037  18.976  0.00  0.00    +0.000 A 
ATOM     31  C   UNL     1       0.791   3.186  20.024  0.00  0.00    +0.000 A 
ATOM     32  C   UNL     1       1.741   2.739  20.939  0.00  0.00    +0.000 A 
ATOM     33  C   UNL     1       3.073   3.089  20.779  0.00  0.00    +0.000 A 
ATOM     34  C   UNL     1       3.446   3.952  19.747  0.00  0.00    +0.000 A 
ENDBRANCH  22  29
ENDBRANCH  20  22
ENDBRANCH  19  20
ENDBRANCH  18  19
ENDBRANCH   1  18
TORSDOF 8
ENDMDL
MODEL 5
REMARK VINA RESULT:      -8.2      0.777      3.245
REMARK  Name = 
REMARK  11 active torsions:
REMARK  status: ('A' for Active; 'I' for Inactive)
REMARK    1  A    between atoms: C_1  and  C_2
REMARK    2  A    between atoms: C_2  and  C_3
REMARK    3  A    between atoms: C_2  and  N_4
REMARK    4  A    between atoms: N_11  and  C_12
REMARK    5  A    between atoms: N_11  and  C_13
REMARK    6  A    between atoms: C_13  and  C_14
REMARK    7  A    between atoms: C_14  and  O_15
REMARK    8  A    between atoms: O_15  and  C_16
REMARK    9  A    between atoms: C_16  and  C_18
REMARK   10  A    between atoms: C_18  and  C_19
REMARK   11  A    between atoms: C_18  and  C_25
REMARK                            x       y       z     vdW  Elec       q    Type
REMARK                         _______ _______ _______ _____ _____    ______ ____
ROOT
ATOM      1  C   UNL     1       1.409  10.606  18.447  0.00  0.00    +0.000 C 
ENDROOT
BRANCH   1   9
ATOM      2  N   UNL     1      -4.404  12.002  18.033  0.00  0.00    +0.000 N 
ATOM      3  C   UNL     1      -4.288  12.532  19.290  0.00  0.00    +0.000 C 
ATOM      4  O   UNL     1      -5.100  13.192  19.913  0.00  0.00    +0.000 OA
ATOM      5  C   UNL     1      -3.006  12.049  19.882  0.00  0.00    +0.000 C 
ATOM      6  C   UNL     1      -2.190  11.555  18.682  0.00  0.00    +0.000 C 
ATOM      7  C   UNL     1      -1.629  10.143  18.908  0.00  0.00    +0.000 C 
ATOM      8  C   UNL     1      -0.583  10.125  20.001  0.00  0.00    +0.000 C 
ATOM      9  N   UNL     1       0.572  11.066  19.670  0.00  0.00    +0.000 N 
ATOM     10  C   UNL     1       1.491  11.133  20.907  0.00  0.00    +0.000 C 
ATOM     11  C   UNL     1       0.056  12.499  19.408  0.00  0.00    +0.000 C 
ATOM     12  C   UNL     1      -1.053  12.529  18.348  0.00  0.00    +0.000 C 
ATOM     13  C   UNL     1      -3.236  11.456  17.592  0.00  0.00    +0.000 C 
ATOM     14  O   UNL     1      -3.028  10.911  16.510  0.00  0.00    +0.000 OA
BRANCH   2  16
ATOM     15  C   UNL     1      -6.451  10.745  18.412  0.00  0.00    +0.000 C 
ATOM     16  C   UNL     1      -5.703  11.674  17.445  0.00  0.00    +0.000 C 
ATOM     17  C   UNL     1      -6.552  12.891  17.093  0.00  0.00    +0.000 C 
ENDBRANCH   2  16
ENDBRANCH   1   9
BRANCH   1  18
ATOM     18  C   UNL     1       1.206   9.138  18.035  0.00  0.00    +0.000 C 
BRANCH  18  19
ATOM     19  O   UNL     1       2.116   8.283  18.746  0.00  0.00    +0.000 OA
BRANCH  19  20
ATOM     20  C   UNL     1       3.048   7.686  17.935  0.00  0.00    +0.000 C 
ATOM     21  O   UNL     1       3.341   8.143  16.834  0.00  0.00    +0.000 OA
BRANCH  20  22
ATOM     22  C   UNL     1       3.674   6.459  18.602  0.00  0.00    +0.000 C 
BRANCH  22  23
ATOM     23  C   UNL     1       2.613   5.428  18.978  0.00  0.00    +0.000 A 
ATOM     24  C   UNL     1       1.943   4.663  18.014  0.00  0.00    +0.000 A 
ATOM     25  C   UNL     1       1.058   3.651  18.389  0.00  0.00    +0.000 A 
ATOM     26  C   UNL     1       0.819   3.383  19.734  0.00  0.00    +0.000 A 
ATOM     27  C   UNL     1       1.410   4.187  20.707  0.00  0.00    +0.000 A 
ATOM     28  C   UNL     1       2.277   5.217  20.332  0.00  0.00    +0.000 A 
ENDBRANCH  22  23
BRANCH  22  29
ATOM     29  C   UNL     1       4.879   5.951  17.792  0.00  0.00    +0.000 A 
ATOM     30  C   UNL     1       6.162   5.951  18.359  0.00  0.00    +0.000 A 
ATOM     31  C   UNL     1       7.293   5.722  17.563  0.00  0.00    +0.000 A 
ATOM     32  C   UNL     1       7.151   5.434  16.208  0.00  0.00    +0.000 A 
ATOM     33  C   UNL     1       5.884   5.317  15.656  0.00  0.00    +0.000 A 
ATOM     34  C   UNL     1       4.757   5.563  16.441  0.00  0.00    +0.000 A 
ENDBRANCH  22  29
ENDBRANCH  20  22
ENDBRANCH  19  20
ENDBRANCH  18  19
ENDBRANCH   1  18
TORSDOF 8
ENDMDL
MODEL 6
REMARK VINA RESULT:      -8.2      2.448      3.701
REMARK  Name = 
REMARK  11 active torsions:
REMARK  status: ('A' for Active; 'I' for Inactive)
REMARK    1  A    between atoms: C_1  and  C_2
REMARK    2  A    between atoms: C_2  and  C_3
REMARK    3  A    between atoms: C_2  and  N_4
REMARK    4  A    between atoms: N_11  and  C_12
REMARK    5  A    between atoms: N_11  and  C_13
REMARK    6  A    between atoms: C_13  and  C_14
REMARK    7  A    between atoms: C_14  and  O_15
REMARK    8  A    between atoms: O_15  and  C_16
REMARK    9  A    between atoms: C_16  and  C_18
REMARK   10  A    between atoms: C_18  and  C_19
REMARK   11  A    between atoms: C_18  and  C_25
REMARK                            x       y       z     vdW  Elec       q    Type
REMARK                         _______ _______ _______ _____ _____    ______ ____
ROOT
ATOM      1  C   UNL     1       0.952  10.445  18.671  0.00  0.00    +0.000 C 
ENDROOT
BRANCH   1   9
ATOM      2  N   UNL     1      -1.458  14.300  22.574  0.00  0.00    +0.000 N 
ATOM      3  C   UNL     1      -2.678  13.891  22.108  0.00  0.00    +0.000 C 
ATOM      4  O   UNL     1      -3.785  14.153  22.546  0.00  0.00    +0.000 OA
ATOM      5  C   UNL     1      -2.464  13.144  20.834  0.00  0.00    +0.000 C 
ATOM      6  C   UNL     1      -0.974  12.780  20.848  0.00  0.00    +0.000 C 
ATOM      7  C   UNL     1      -0.275  13.166  19.536  0.00  0.00    +0.000 C 
ATOM      8  C   UNL     1      -0.770  12.333  18.373  0.00  0.00    +0.000 C 
ATOM      9  N   UNL     1      -0.547  10.845  18.631  0.00  0.00    +0.000 N 
ATOM     10  C   UNL     1      -1.243  10.064  17.497  0.00  0.00    +0.000 C 
ATOM     11  C   UNL     1      -1.212  10.412  19.957  0.00  0.00    +0.000 C 
ATOM     12  C   UNL     1      -0.772  11.288  21.137  0.00  0.00    +0.000 C 
ATOM     13  C   UNL     1      -0.426  13.683  21.933  0.00  0.00    +0.000 C 
ATOM     14  O   UNL     1       0.777  13.840  22.131  0.00  0.00    +0.000 OA
BRANCH   2  16
ATOM     15  C   UNL     1      -1.122  15.182  24.816  0.00  0.00    +0.000 C 
ATOM     16  C   UNL     1      -1.291  15.541  23.332  0.00  0.00    +0.000 C 
ATOM     17  C   UNL     1      -0.140  16.416  22.849  0.00  0.00    +0.000 C 
ENDBRANCH   2  16
ENDBRANCH   1   9
BRANCH   1  18
ATOM     18  C   UNL     1       1.322   9.223  17.813  0.00  0.00    +0.000 C 
BRANCH  18  19
ATOM     19  O   UNL     1       2.590   8.683  18.222  0.00  0.00    +0.000 OA
BRANCH  19  20
ATOM     20  C   UNL     1       2.477   7.564  19.007  0.00  0.00    +0.000 C 
ATOM     21  O   UNL     1       2.091   7.621  20.172  0.00  0.00    +0.000 OA
BRANCH  20  22
ATOM     22  C   UNL     1       2.832   6.293  18.233  0.00  0.00    +0.000 C 
BRANCH  22  23
ATOM     23  C   UNL     1       4.344   6.113  18.122  0.00  0.00    +0.000 A 
ATOM     24  C   UNL     1       5.074   6.601  17.029  0.00  0.00    +0.000 A 
ATOM     25  C   UNL     1       6.467   6.521  17.004  0.00  0.00    +0.000 A 
ATOM     26  C   UNL     1       7.162   5.947  18.065  0.00  0.00    +0.000 A 
ATOM     27  C   UNL     1       6.451   5.380  19.122  0.00  0.00    +0.000 A 
ATOM     28  C   UNL     1       5.055   5.438  19.137  0.00  0.00    +0.000 A 
ENDBRANCH  22  23
BRANCH  22  29
ATOM     29  C   UNL     1       2.027   5.090  18.754  0.00  0.00    +0.000 A 
ATOM     30  C   UNL     1       1.702   4.994  20.115  0.00  0.00    +0.000 A 
ATOM     31  C   UNL     1       1.185   3.802  20.642  0.00  0.00    +0.000 A 
ATOM     32  C   UNL     1       0.936   2.716  19.807  0.00  0.00    +0.000 A 
ATOM     33  C   UNL     1       1.144   2.832  18.441  0.00  0.00    +0.000 A 
ATOM     34  C   UNL     1       1.676   4.011  17.916  0.00  0.00    +0.000 A 
ENDBRANCH  22  29
ENDBRANCH  20  22
ENDBRANCH  19  20
ENDBRANCH  18  19
ENDBRANCH   1  18
TORSDOF 8
ENDMDL
MODEL 7
REMARK VINA RESULT:      -8.1      2.740      4.097
REMARK  Name = 
REMARK  11 active torsions:
REMARK  status: ('A' for Active; 'I' for Inactive)
REMARK    1  A    between atoms: C_1  and  C_2
REMARK    2  A    between atoms: C_2  and  C_3
REMARK    3  A    between atoms: C_2  and  N_4
REMARK    4  A    between atoms: N_11  and  C_12
REMARK    5  A    between atoms: N_11  and  C_13
REMARK    6  A    between atoms: C_13  and  C_14
REMARK    7  A    between atoms: C_14  and  O_15
REMARK    8  A    between atoms: O_15  and  C_16
REMARK    9  A    between atoms: C_16  and  C_18
REMARK   10  A    between atoms: C_18  and  C_19
REMARK   11  A    between atoms: C_18  and  C_25
REMARK                            x       y       z     vdW  Elec       q    Type
REMARK                         _______ _______ _______ _____ _____    ______ ____
ROOT
ATOM      1  C   UNL     1       0.303  10.117  18.599  0.00  0.00    +0.000 C 
ENDROOT
BRANCH   1   9
ATOM      2  N   UNL     1       0.656  15.683  20.789  0.00  0.00    +0.000 N 
ATOM      3  C   UNL     1       0.546  15.119  22.032  0.00  0.00    +0.000 C 
ATOM      4  O   UNL     1       0.679  15.650  23.121  0.00  0.00    +0.000 OA
ATOM      5  C   UNL     1       0.082  13.711  21.865  0.00  0.00    +0.000 C 
ATOM      6  C   UNL     1       0.365  13.385  20.394  0.00  0.00    +0.000 C 
ATOM      7  C   UNL     1      -0.861  12.783  19.690  0.00  0.00    +0.000 C 
ATOM      8  C   UNL     1      -1.202  11.412  20.235  0.00  0.00    +0.000 C 
ATOM      9  N   UNL     1      -0.024  10.453  20.079  0.00  0.00    +0.000 N 
ATOM     10  C   UNL     1      -0.381   9.149  20.821  0.00  0.00    +0.000 C 
ATOM     11  C   UNL     1       1.245  11.027  20.749  0.00  0.00    +0.000 C 
ATOM     12  C   UNL     1       1.568  12.443  20.258  0.00  0.00    +0.000 C 
ATOM     13  C   UNL     1       0.602  14.755  19.793  0.00  0.00    +0.000 C 
ATOM     14  O   UNL     1       0.675  14.953  18.582  0.00  0.00    +0.000 OA
BRANCH   2  16
ATOM     15  C   UNL     1       1.656  17.703  19.876  0.00  0.00    +0.000 C 
ATOM     16  C   UNL     1       0.415  17.108  20.558  0.00  0.00    +0.000 C 
ATOM     17  C   UNL     1      -0.844  17.404  19.751  0.00  0.00    +0.000 C 
ENDBRANCH   2  16
ENDBRANCH   1   9
BRANCH   1  18
ATOM     18  C   UNL     1       1.744   9.645  18.342  0.00  0.00    +0.000 C 
BRANCH  18  19
ATOM     19  O   UNL     1       1.759   8.272  17.916  0.00  0.00    +0.000 OA
BRANCH  19  20
ATOM     20  C   UNL     1       2.356   7.429  18.819  0.00  0.00    +0.000 C 
ATOM     21  O   UNL     1       2.393   7.682  20.020  0.00  0.00    +0.000 OA
BRANCH  20  22
ATOM     22  C   UNL     1       2.890   6.165  18.143  0.00  0.00    +0.000 C 
BRANCH  22  23
ATOM     23  C   UNL     1       4.415   6.176  18.068  0.00  0.00    +0.000 A 
ATOM     24  C   UNL     1       5.109   6.944  17.123  0.00  0.00    +0.000 A 
ATOM     25  C   UNL     1       6.502   7.022  17.146  0.00  0.00    +0.000 A 
ATOM     26  C   UNL     1       7.234   6.332  18.109  0.00  0.00    +0.000 A 
ATOM     27  C   UNL     1       6.569   5.496  19.005  0.00  0.00    +0.000 A 
ATOM     28  C   UNL     1       5.175   5.398  18.967  0.00  0.00    +0.000 A 
ENDBRANCH  22  23
BRANCH  22  29
ATOM     29  C   UNL     1       2.234   4.907  18.737  0.00  0.00    +0.000 A 
ATOM     30  C   UNL     1       1.918   3.818  17.912  0.00  0.00    +0.000 A 
ATOM     31  C   UNL     1       1.110   2.775  18.385  0.00  0.00    +0.000 A 
ATOM     32  C   UNL     1       0.658   2.781  19.703  0.00  0.00    +0.000 A 
ATOM     33  C   UNL     1       1.055   3.791  20.565  0.00  0.00    +0.000 A 
ATOM     34  C   UNL     1       1.843   4.841  20.091  0.00  0.00    +0.000 A 
ENDBRANCH  22  29
ENDBRANCH  20  22
ENDBRANCH  19  20
ENDBRANCH  18  19
ENDBRANCH   1  18
TORSDOF 8
ENDMDL
MODEL 8
REMARK VINA RESULT:      -8.1      2.442      3.110
REMARK  Name = 
REMARK  11 active torsions:
REMARK  status: ('A' for Active; 'I' for Inactive)
REMARK    1  A    between atoms: C_1  and  C_2
REMARK    2  A    between atoms: C_2  and  C_3
REMARK    3  A    between atoms: C_2  and  N_4
REMARK    4  A    between atoms: N_11  and  C_12
REMARK    5  A    between atoms: N_11  and  C_13
REMARK    6  A    between atoms: C_13  and  C_14
REMARK    7  A    between atoms: C_14  and  O_15
REMARK    8  A    between atoms: O_15  and  C_16
REMARK    9  A    between atoms: C_16  and  C_18
REMARK   10  A    between atoms: C_18  and  C_19
REMARK   11  A    between atoms: C_18  and  C_25
REMARK                            x       y       z     vdW  Elec       q    Type
REMARK                         _______ _______ _______ _____ _____    ______ ____
ROOT
ATOM      1  C   UNL     1       1.037  10.303  19.627  0.00  0.00    +0.000 C 
ENDROOT
BRANCH   1   9
ATOM      2  N   UNL     1      -2.989  13.923  22.194  0.00  0.00    +0.000 N 
ATOM      3  C   UNL     1      -2.626  14.861  21.265  0.00  0.00    +0.000 C 
ATOM      4  O   UNL     1      -3.145  15.938  21.030  0.00  0.00    +0.000 OA
ATOM      5  C   UNL     1      -1.349  14.417  20.632  0.00  0.00    +0.000 C 
ATOM      6  C   UNL     1      -1.252  12.925  20.967  0.00  0.00    +0.000 C 
ATOM      7  C   UNL     1       0.116  12.555  21.561  0.00  0.00    +0.000 C 
ATOM      8  C   UNL     1       1.226  12.700  20.541  0.00  0.00    +0.000 C 
ATOM      9  N   UNL     1       0.965  11.822  19.319  0.00  0.00    +0.000 N 
ATOM     10  C   UNL     1       2.031  12.168  18.259  0.00  0.00    +0.000 C 
ATOM     11  C   UNL     1      -0.414  12.139  18.700  0.00  0.00    +0.000 C 
ATOM     12  C   UNL     1      -1.544  12.061  19.734  0.00  0.00    +0.000 C 
ATOM     13  C   UNL     1      -2.279  12.767  22.069  0.00  0.00    +0.000 C 
ATOM     14  O   UNL     1      -2.380  11.751  22.751  0.00  0.00    +0.000 OA
BRANCH   2  16
ATOM     15  C   UNL     1      -4.732  13.167  23.713  0.00  0.00    +0.000 C 
ATOM     16  C   UNL     1      -3.715  14.279  23.414  0.00  0.00    +0.000 C 
ATOM     17  C   UNL     1      -2.818  14.534  24.620  0.00  0.00    +0.000 C 
ENDBRANCH   2  16
ENDBRANCH   1   9
BRANCH   1  18
ATOM     18  C   UNL     1       1.149   9.394  18.392  0.00  0.00    +0.000 C 
BRANCH  18  19
ATOM     19  O   UNL     1       2.394   8.675  18.405  0.00  0.00    +0.000 OA
BRANCH  19  20
ATOM     20  C   UNL     1       2.358   7.537  19.171  0.00  0.00    +0.000 C 
ATOM     21  O   UNL     1       2.016   7.558  20.350  0.00  0.00    +0.000 OA
BRANCH  20  22
ATOM     22  C   UNL     1       2.734   6.297  18.358  0.00  0.00    +0.000 C 
BRANCH  22  23
ATOM     23  C   UNL     1       4.248   6.160  18.220  0.00  0.00    +0.000 A 
ATOM     24  C   UNL     1       4.962   6.794  17.194  0.00  0.00    +0.000 A 
ATOM     25  C   UNL     1       6.356   6.743  17.153  0.00  0.00    +0.000 A 
ATOM     26  C   UNL     1       7.068   6.054  18.131  0.00  0.00    +0.000 A 
ATOM     27  C   UNL     1       6.374   5.347  19.112  0.00  0.00    +0.000 A 
ATOM     28  C   UNL     1       4.977   5.376  19.139  0.00  0.00    +0.000 A 
ENDBRANCH  22  23
BRANCH  22  29
ATOM     29  C   UNL     1       1.969   5.060  18.860  0.00  0.00    +0.000 A 
ATOM     30  C   UNL     1       1.747   4.875  20.233  0.00  0.00    +0.000 A 
ATOM     31  C   UNL     1       1.270   3.650  20.719  0.00  0.00    +0.000 A 
ATOM     32  C   UNL     1       0.957   2.619  19.836  0.00  0.00    +0.000 A 
ATOM     33  C   UNL     1       1.061   2.824  18.469  0.00  0.00    +0.000 A 
ATOM     34  C   UNL     1       1.554   4.036  17.983  0.00  0.00    +0.000 A 
ENDBRANCH  22  29
ENDBRANCH  20  22
ENDBRANCH  19  20
ENDBRANCH  18  19
ENDBRANCH   1  18
TORSDOF 8
ENDMDL
MODEL 9
REMARK VINA RESULT:      -8.0      1.054      1.651
REMARK  Name = 
REMARK  11 active torsions:
REMARK  status: ('A' for Active; 'I' for Inactive)
REMARK    1  A    between atoms: C_1  and  C_2
REMARK    2  A    between atoms: C_2  and  C_3
REMARK    3  A    between atoms: C_2  and  N_4
REMARK    4  A    between atoms: N_11  and  C_12
REMARK    5  A    between atoms: N_11  and  C_13
REMARK    6  A    between atoms: C_13  and  C_14
REMARK    7  A    between atoms: C_14  and  O_15
REMARK    8  A    between atoms: O_15  and  C_16
REMARK    9  A    between atoms: C_16  and  C_18
REMARK   10  A    between atoms: C_18  and  C_19
REMARK   11  A    between atoms: C_18  and  C_25
REMARK                            x       y       z     vdW  Elec       q    Type
REMARK                         _______ _______ _______ _____ _____    ______ ____
ROOT
ATOM      1  C   UNL     1       0.983  10.113  18.226  0.00  0.00    +0.000 C 
ENDROOT
BRANCH   1   9
ATOM      2  N   UNL     1      -4.793  11.708  18.239  0.00  0.00    +0.000 N 
ATOM      3  C   UNL     1      -4.464  12.605  19.219  0.00  0.00    +0.000 C 
ATOM      4  O   UNL     1      -5.153  13.487  19.703  0.00  0.00    +0.000 OA
ATOM      5  C   UNL     1      -3.112  12.249  19.741  0.00  0.00    +0.000 C 
ATOM      6  C   UNL     1      -2.511  11.339  18.664  0.00  0.00    +0.000 C 
ATOM      7  C   UNL     1      -1.948  10.039  19.257  0.00  0.00    +0.000 C 
ATOM      8  C   UNL     1      -0.738  10.300  20.129  0.00  0.00    +0.000 C 
ATOM      9  N   UNL     1       0.365  11.000  19.339  0.00  0.00    +0.000 N 
ATOM     10  C   UNL     1       1.473  11.397  20.336  0.00  0.00    +0.000 C 
ATOM     11  C   UNL     1      -0.161  12.305  18.700  0.00  0.00    +0.000 C 
ATOM     12  C   UNL     1      -1.426  12.071  17.865  0.00  0.00    +0.000 C 
ATOM     13  C   UNL     1      -3.723  10.968  17.834  0.00  0.00    +0.000 C 
ATOM     14  O   UNL     1      -3.703  10.090  16.974  0.00  0.00    +0.000 OA
BRANCH   2  16
ATOM     15  C   UNL     1      -6.712  10.609  19.252  0.00  0.00    +0.000 C 
ATOM     16  C   UNL     1      -6.176  11.301  17.989  0.00  0.00    +0.000 C 
ATOM     17  C   UNL     1      -7.094  12.441  17.563  0.00  0.00    +0.000 C 
ENDBRANCH   2  16
ENDBRANCH   1   9
BRANCH   1  18
ATOM     18  C   UNL     1       1.777   8.897  18.731  0.00  0.00    +0.000 C 
BRANCH  18  19
ATOM     19  O   UNL     1       2.049   7.987  17.651  0.00  0.00    +0.000 OA
BRANCH  19  20
ATOM     20  C   UNL     1       3.335   7.509  17.652  0.00  0.00    +0.000 C 
ATOM     21  O   UNL     1       4.298   8.232  17.895  0.00  0.00    +0.000 OA
BRANCH  20  22
ATOM     22  C   UNL     1       3.379   6.005  17.376  0.00  0.00    +0.000 C 
BRANCH  22  23
ATOM     23  C   UNL     1       4.785   5.551  16.992  0.00  0.00    +0.000 A 
ATOM     24  C   UNL     1       5.702   5.082  17.942  0.00  0.00    +0.000 A 
ATOM     25  C   UNL     1       6.940   4.569  17.553  0.00  0.00    +0.000 A 
ATOM     26  C   UNL     1       7.293   4.519  16.207  0.00  0.00    +0.000 A 
ATOM     27  C   UNL     1       6.431   5.058  15.253  0.00  0.00    +0.000 A 
ATOM     28  C   UNL     1       5.201   5.594  15.644  0.00  0.00    +0.000 A 
ENDBRANCH  22  23
BRANCH  22  29
ATOM     29  C   UNL     1       2.679   5.221  18.499  0.00  0.00    +0.000 A 
ATOM     30  C   UNL     1       1.852   4.131  18.191  0.00  0.00    +0.000 A 
ATOM     31  C   UNL     1       1.025   3.564  19.170  0.00  0.00    +0.000 A 
ATOM     32  C   UNL     1       1.059   4.041  20.478  0.00  0.00    +0.000 A 
ATOM     33  C   UNL     1       1.953   5.041  20.827  0.00  0.00    +0.000 A 
ATOM     34  C   UNL     1       2.763   5.621  19.849  0.00  0.00    +0.000 A 
ENDBRANCH  22  29
ENDBRANCH  20  22
ENDBRANCH  19  20
ENDBRANCH  18  19
ENDBRANCH   1  18
TORSDOF 8
ENDMDL
