MODEL 1
REMARK VINA RESULT:      -8.7      0.000      0.000
REMARK  Name = 
REMARK  6 active torsions:
REMARK  status: ('A' for Active; 'I' for Inactive)
REMARK    1  A    between atoms: C_1  and  O_2
REMARK    2  A    between atoms: O_2  and  C_3
REMARK    3  A    between atoms: C_6  and  C_7
REMARK    4  A    between atoms: C_12  and  C_13
REMARK    5  A    between atoms: C_12  and  C_14
REMARK    6  A    between atoms: C_17  and  C_18
REMARK                            x       y       z     vdW  Elec       q    Type
REMARK                         _______ _______ _______ _____ _____    ______ ____
ROOT
ATOM      1  C   UNL     1       6.811   6.230  17.086  0.00  0.00    +0.000 A 
ATOM      2  C   UNL     1       6.218   6.182  18.294  0.00  0.00    +0.000 A 
ATOM      3  C   UNL     1       5.180   5.212  18.552  0.00  0.00    +0.000 A 
ATOM      4  C   UNL     1       4.724   4.355  17.621  0.00  0.00    +0.000 A 
ATOM      5  C   UNL     1       5.310   4.419  16.307  0.00  0.00    +0.000 A 
ATOM      6  C   UNL     1       5.130   3.745  15.117  0.00  0.00    +0.000 A 
ATOM      7  C   UNL     1       6.085   4.280  14.215  0.00  0.00    +0.000 A 
ATOM      8  N   UNL     1       6.816   5.237  14.808  0.00  0.00    +0.000 NA
ATOM      9  N   UNL     1       6.345   5.343  16.082  0.00  0.00    +0.000 N 
ENDROOT
BRANCH   4  10
ATOM     10  C   UNL     1       3.660   3.360  17.982  0.00  0.00    +0.000 C 
ATOM     11  N   UNL     1       3.812   2.068  17.891  0.00  0.00    +0.000 NA
ATOM     12  N   UNL     1       2.674   1.489  18.367  0.00  0.00    +0.000 N 
ATOM     13  C   UNL     1       1.735   2.368  18.861  0.00  0.00    +0.000 C 
ATOM     14  O   UNL     1       0.680   2.085  19.411  0.00  0.00    +0.000 OA
ATOM     15  C   UNL     1       2.268   3.749  18.533  0.00  0.00    +0.000 C 
ATOM     16  C   UNL     1       1.319   4.319  17.474  0.00  0.00    +0.000 C 
ATOM     17  C   UNL     1       2.329   4.584  19.809  0.00  0.00    +0.000 C 
ATOM     18  H   UNL     1       2.579   0.482  18.421  0.00  0.00    +0.000 HD
ENDBRANCH   4  10
BRANCH   7  19
ATOM     19  C   UNL     1       6.311   3.873  12.781  0.00  0.00    +0.000 C 
ATOM     20  F   UNL     1       6.711   2.575  12.678  0.00  0.00    +0.000 F 
ATOM     21  F   UNL     1       5.188   3.986  12.022  0.00  0.00    +0.000 F 
ATOM     22  F   UNL     1       7.276   4.617  12.174  0.00  0.00    +0.000 F 
ENDBRANCH   7  19
BRANCH   1  24
ATOM     23  C   UNL     1       7.982   8.250  17.568  0.00  0.00    +0.000 C 
ATOM     24  O   UNL     1       7.853   7.083  16.762  0.00  0.00    +0.000 OA
ENDBRANCH   1  24
TORSDOF 3
ENDMDL
MODEL 2
REMARK VINA RESULT:      -8.4      4.058      6.568
REMARK  Name = 
REMARK  6 active torsions:
REMARK  status: ('A' for Active; 'I' for Inactive)
REMARK    1  A    between atoms: C_1  and  O_2
REMARK    2  A    between atoms: O_2  and  C_3
REMARK    3  A    between atoms: C_6  and  C_7
REMARK    4  A    between atoms: C_12  and  C_13
REMARK    5  A    between atoms: C_12  and  C_14
REMARK    6  A    between atoms: C_17  and  C_18
REMARK                            x       y       z     vdW  Elec       q    Type
REMARK                         _______ _______ _______ _____ _____    ______ ____
ROOT
ATOM      1  C   UNL     1       2.835   4.304  20.202  0.00  0.00    +0.000 A 
ATOM      2  C   UNL     1       3.598   3.273  19.794  0.00  0.00    +0.000 A 
ATOM      3  C   UNL     1       4.402   3.395  18.601  0.00  0.00    +0.000 A 
ATOM      4  C   UNL     1       4.405   4.492  17.823  0.00  0.00    +0.000 A 
ATOM      5  C   UNL     1       3.560   5.592  18.213  0.00  0.00    +0.000 A 
ATOM      6  C   UNL     1       3.283   6.845  17.707  0.00  0.00    +0.000 A 
ATOM      7  C   UNL     1       2.383   7.447  18.623  0.00  0.00    +0.000 A 
ATOM      8  N   UNL     1       2.111   6.615  19.641  0.00  0.00    +0.000 NA
ATOM      9  N   UNL     1       2.812   5.472  19.396  0.00  0.00    +0.000 N 
ENDROOT
BRANCH   4  10
ATOM     10  C   UNL     1       5.292   4.546  16.613  0.00  0.00    +0.000 C 
ATOM     11  N   UNL     1       4.968   4.046  15.452  0.00  0.00    +0.000 NA
ATOM     12  N   UNL     1       5.979   4.343  14.586  0.00  0.00    +0.000 N 
ATOM     13  C   UNL     1       6.992   5.113  15.113  0.00  0.00    +0.000 C 
ATOM     14  O   UNL     1       7.955   5.571  14.516  0.00  0.00    +0.000 OA
ATOM     15  C   UNL     1       6.681   5.225  16.593  0.00  0.00    +0.000 C 
ATOM     16  C   UNL     1       7.773   4.425  17.309  0.00  0.00    +0.000 C 
ATOM     17  C   UNL     1       6.645   6.698  16.992  0.00  0.00    +0.000 C 
ATOM     18  H   UNL     1       5.929   4.078  13.610  0.00  0.00    +0.000 HD
ENDBRANCH   4  10
BRANCH   7  19
ATOM     19  C   UNL     1       1.783   8.828  18.537  0.00  0.00    +0.000 C 
ATOM     20  F   UNL     1       0.704   8.862  17.706  0.00  0.00    +0.000 F 
ATOM     21  F   UNL     1       1.349   9.286  19.742  0.00  0.00    +0.000 F 
ATOM     22  F   UNL     1       2.662   9.749  18.056  0.00  0.00    +0.000 F 
ENDBRANCH   7  19
BRANCH   1  24
ATOM     23  C   UNL     1       1.457   3.068  21.705  0.00  0.00    +0.000 C 
ATOM     24  O   UNL     1       2.077   4.304  21.361  0.00  0.00    +0.000 OA
ENDBRANCH   1  24
TORSDOF 3
ENDMDL
MODEL 3
REMARK VINA RESULT:      -8.1      4.314      7.092
REMARK  Name = 
REMARK  6 active torsions:
REMARK  status: ('A' for Active; 'I' for Inactive)
REMARK    1  A    between atoms: C_1  and  O_2
REMARK    2  A    between atoms: O_2  and  C_3
REMARK    3  A    between atoms: C_6  and  C_7
REMARK    4  A    between atoms: C_12  and  C_13
REMARK    5  A    between atoms: C_12  and  C_14
REMARK    6  A    between atoms: C_17  and  C_18
REMARK                            x       y       z     vdW  Elec       q    Type
REMARK                         _______ _______ _______ _____ _____    ______ ____
ROOT
ATOM      1  C   UNL     1       2.157   3.068  19.899  0.00  0.00    +0.000 A 
ATOM      2  C   UNL     1       3.048   2.283  19.265  0.00  0.00    +0.000 A 
ATOM      3  C   UNL     1       4.187   2.873  18.601  0.00  0.00    +0.000 A 
ATOM      4  C   UNL     1       4.398   4.199  18.537  0.00  0.00    +0.000 A 
ATOM      5  C   UNL     1       3.433   5.062  19.168  0.00  0.00    +0.000 A 
ATOM      6  C   UNL     1       3.285   6.425  19.322  0.00  0.00    +0.000 A 
ATOM      7  C   UNL     1       2.117   6.608  20.106  0.00  0.00    +0.000 A 
ATOM      8  N   UNL     1       1.565   5.425  20.420  0.00  0.00    +0.000 NA
ATOM      9  N   UNL     1       2.349   4.472  19.842  0.00  0.00    +0.000 N 
ENDROOT
BRANCH   4  10
ATOM     10  C   UNL     1       5.623   4.727  17.849  0.00  0.00    +0.000 C 
ATOM     11  N   UNL     1       6.800   4.790  18.408  0.00  0.00    +0.000 NA
ATOM     12  N   UNL     1       7.673   5.251  17.467  0.00  0.00    +0.000 N 
ATOM     13  C   UNL     1       7.131   5.453  16.217  0.00  0.00    +0.000 C 
ATOM     14  O   UNL     1       7.727   5.781  15.201  0.00  0.00    +0.000 OA
ATOM     15  C   UNL     1       5.640   5.230  16.386  0.00  0.00    +0.000 C 
ATOM     16  C   UNL     1       4.991   6.603  16.195  0.00  0.00    +0.000 C 
ATOM     17  C   UNL     1       5.167   4.187  15.377  0.00  0.00    +0.000 C 
ATOM     18  H   UNL     1       8.660   5.352  17.671  0.00  0.00    +0.000 HD
ENDBRANCH   4  10
BRANCH   7  19
ATOM     19  C   UNL     1       1.526   7.915  20.569  0.00  0.00    +0.000 C 
ATOM     20  F   UNL     1       1.440   8.821  19.556  0.00  0.00    +0.000 F 
ATOM     21  F   UNL     1       0.266   7.774  21.061  0.00  0.00    +0.000 F 
ATOM     22  F   UNL     1       2.269   8.506  21.544  0.00  0.00    +0.000 F 
ENDBRANCH   7  19
BRANCH   1  24
ATOM     23  C   UNL     1       1.260   2.425  22.013  0.00  0.00    +0.000 C 
ATOM     24  O   UNL     1       1.068   2.593  20.612  0.00  0.00    +0.000 OA
ENDBRANCH   1  24
TORSDOF 3
ENDMDL
MODEL 4
REMARK VINA RESULT:      -8.1      3.111      4.256
REMARK  Name = 
REMARK  6 active torsions:
REMARK  status: ('A' for Active; 'I' for Inactive)
REMARK    1  A    between atoms: C_1  and  O_2
REMARK    2  A    between atoms: O_2  and  C_3
REMARK    3  A    between atoms: C_6  and  C_7
REMARK    4  A    between atoms: C_12  and  C_13
REMARK    5  A    between atoms: C_12  and  C_14
REMARK    6  A    between atoms: C_17  and  C_18
REMARK                            x       y       z     vdW  Elec       q    Type
REMARK                         _______ _______ _______ _____ _____    ______ ____
ROOT
ATOM      1  C   UNL     1       6.526   4.795  14.925  0.00  0.00    +0.000 A 
ATOM      2  C   UNL     1       5.618   3.803  15.001  0.00  0.00    +0.000 A 
ATOM      3  C   UNL     1       4.791   3.669  16.176  0.00  0.00    +0.000 A 
ATOM      4  C   UNL     1       4.900   4.470  17.251  0.00  0.00    +0.000 A 
ATOM      5  C   UNL     1       5.897   5.509  17.212  0.00  0.00    +0.000 A 
ATOM      6  C   UNL     1       6.317   6.501  18.075  0.00  0.00    +0.000 A 
ATOM      7  C   UNL     1       7.324   7.222  17.384  0.00  0.00    +0.000 A 
ATOM      8  N   UNL     1       7.524   6.706  16.161  0.00  0.00    +0.000 NA
ATOM      9  N   UNL     1       6.670   5.650  16.047  0.00  0.00    +0.000 N 
ENDROOT
BRANCH   4  10
ATOM     10  C   UNL     1       3.980   4.278  18.421  0.00  0.00    +0.000 C 
ATOM     11  N   UNL     1       4.287   3.578  19.479  0.00  0.00    +0.000 NA
ATOM     12  N   UNL     1       3.246   3.686  20.353  0.00  0.00    +0.000 N 
ATOM     13  C   UNL     1       2.225   4.518  19.946  0.00  0.00    +0.000 C 
ATOM     14  O   UNL     1       1.234   4.835  20.588  0.00  0.00    +0.000 OA
ATOM     15  C   UNL     1       2.573   4.911  18.523  0.00  0.00    +0.000 C 
ATOM     16  C   UNL     1       1.523   4.233  17.638  0.00  0.00    +0.000 C 
ATOM     17  C   UNL     1       2.579   6.432  18.405  0.00  0.00    +0.000 C 
ATOM     18  H   UNL     1       3.277   3.245  21.265  0.00  0.00    +0.000 HD
ENDBRANCH   4  10
BRANCH   7  19
ATOM     19  C   UNL     1       8.095   8.416  17.884  0.00  0.00    +0.000 C 
ATOM     20  F   UNL     1       8.806   8.127  19.011  0.00  0.00    +0.000 F 
ATOM     21  F   UNL     1       8.997   8.876  16.975  0.00  0.00    +0.000 F 
ATOM     22  F   UNL     1       7.286   9.463  18.205  0.00  0.00    +0.000 F 
ENDBRANCH   7  19
BRANCH   1  24
ATOM     23  C   UNL     1       7.031   4.275  12.653  0.00  0.00    +0.000 C 
ATOM     24  O   UNL     1       7.324   5.039  13.819  0.00  0.00    +0.000 OA
ENDBRANCH   1  24
TORSDOF 3
ENDMDL
MODEL 5
REMARK VINA RESULT:      -8.1      0.950      1.240
REMARK  Name = 
REMARK  6 active torsions:
REMARK  status: ('A' for Active; 'I' for Inactive)
REMARK    1  A    between atoms: C_1  and  O_2
REMARK    2  A    between atoms: O_2  and  C_3
REMARK    3  A    between atoms: C_6  and  C_7
REMARK    4  A    between atoms: C_12  and  C_13
REMARK    5  A    between atoms: C_12  and  C_14
REMARK    6  A    between atoms: C_17  and  C_18
REMARK                            x       y       z     vdW  Elec       q    Type
REMARK                         _______ _______ _______ _____ _____    ______ ____
ROOT
ATOM      1  C   UNL     1       7.184   6.537  17.394  0.00  0.00    +0.000 A 
ATOM      2  C   UNL     1       6.804   6.511  18.686  0.00  0.00    +0.000 A 
ATOM      3  C   UNL     1       5.889   5.496  19.151  0.00  0.00    +0.000 A 
ATOM      4  C   UNL     1       5.341   4.570  18.343  0.00  0.00    +0.000 A 
ATOM      5  C   UNL     1       5.696   4.606  16.947  0.00  0.00    +0.000 A 
ATOM      6  C   UNL     1       5.366   3.867  15.830  0.00  0.00    +0.000 A 
ATOM      7  C   UNL     1       6.121   4.413  14.761  0.00  0.00    +0.000 A 
ATOM      8  N   UNL     1       6.876   5.439  15.186  0.00  0.00    +0.000 NA
ATOM      9  N   UNL     1       6.616   5.577  16.517  0.00  0.00    +0.000 N 
ENDROOT
BRANCH   4  10
ATOM     10  C   UNL     1       4.419   3.533  18.915  0.00  0.00    +0.000 C 
ATOM     11  N   UNL     1       4.825   2.499  19.598  0.00  0.00    +0.000 NA
ATOM     12  N   UNL     1       3.714   1.824  20.012  0.00  0.00    +0.000 N 
ATOM     13  C   UNL     1       2.514   2.415  19.680  0.00  0.00    +0.000 C 
ATOM     14  O   UNL     1       1.396   2.046  20.008  0.00  0.00    +0.000 OA
ATOM     15  C   UNL     1       2.879   3.585  18.787  0.00  0.00    +0.000 C 
ATOM     16  C   UNL     1       2.360   3.219  17.393  0.00  0.00    +0.000 C 
ATOM     17  C   UNL     1       2.263   4.863  19.350  0.00  0.00    +0.000 C 
ATOM     18  H   UNL     1       3.787   0.995  20.590  0.00  0.00    +0.000 HD
ENDBRANCH   4  10
BRANCH   7  19
ATOM     19  C   UNL     1       6.132   3.952  13.326  0.00  0.00    +0.000 C 
ATOM     20  F   UNL     1       4.907   4.075  12.742  0.00  0.00    +0.000 F 
ATOM     21  F   UNL     1       6.994   4.668  12.553  0.00  0.00    +0.000 F 
ATOM     22  F   UNL     1       6.482   2.643  13.201  0.00  0.00    +0.000 F 
ENDBRANCH   7  19
BRANCH   1  24
ATOM     23  C   UNL     1       8.222   8.677  17.550  0.00  0.00    +0.000 C 
ATOM     24  O   UNL     1       8.099   7.433  16.868  0.00  0.00    +0.000 OA
ENDBRANCH   1  24
TORSDOF 3
ENDMDL
MODEL 6
REMARK VINA RESULT:      -7.9      4.051      6.584
REMARK  Name = 
REMARK  6 active torsions:
REMARK  status: ('A' for Active; 'I' for Inactive)
REMARK    1  A    between atoms: C_1  and  O_2
REMARK    2  A    between atoms: O_2  and  C_3
REMARK    3  A    between atoms: C_6  and  C_7
REMARK    4  A    between atoms: C_12  and  C_13
REMARK    5  A    between atoms: C_12  and  C_14
REMARK    6  A    between atoms: C_17  and  C_18
REMARK                            x       y       z     vdW  Elec       q    Type
REMARK                         _______ _______ _______ _____ _____    ______ ____
ROOT
ATOM      1  C   UNL     1       2.497   4.116  20.050  0.00  0.00    +0.000 A 
ATOM      2  C   UNL     1       3.382   3.138  19.780  0.00  0.00    +0.000 A 
ATOM      3  C   UNL     1       4.480   3.385  18.875  0.00  0.00    +0.000 A 
ATOM      4  C   UNL     1       4.657   4.553  18.232  0.00  0.00    +0.000 A 
ATOM      5  C   UNL     1       3.696   5.600  18.469  0.00  0.00    +0.000 A 
ATOM      6  C   UNL     1       3.522   6.893  18.022  0.00  0.00    +0.000 A 
ATOM      7  C   UNL     1       2.382   7.393  18.700  0.00  0.00    +0.000 A 
ATOM      8  N   UNL     1       1.870   6.462  19.521  0.00  0.00    +0.000 NA
ATOM      9  N   UNL     1       2.654   5.356  19.379  0.00  0.00    +0.000 N 
ENDROOT
BRANCH   4  10
ATOM     10  C   UNL     1       5.842   4.734  17.329  0.00  0.00    +0.000 C 
ATOM     11  N   UNL     1       7.079   4.594  17.717  0.00  0.00    +0.000 NA
ATOM     12  N   UNL     1       7.872   4.763  16.620  0.00  0.00    +0.000 N 
ATOM     13  C   UNL     1       7.195   4.957  15.436  0.00  0.00    +0.000 C 
ATOM     14  O   UNL     1       7.680   5.049  14.318  0.00  0.00    +0.000 OA
ATOM     15  C   UNL     1       5.734   5.079  15.825  0.00  0.00    +0.000 C 
ATOM     16  C   UNL     1       5.352   6.536  15.549  0.00  0.00    +0.000 C 
ATOM     17  C   UNL     1       4.912   4.072  15.026  0.00  0.00    +0.000 C 
ATOM     18  H   UNL     1       8.878   4.667  16.679  0.00  0.00    +0.000 HD
ENDBRANCH   4  10
BRANCH   7  19
ATOM     19  C   UNL     1       1.778   8.768  18.576  0.00  0.00    +0.000 C 
ATOM     20  F   UNL     1       2.681   9.681  18.119  0.00  0.00    +0.000 F 
ATOM     21  F   UNL     1       0.731   8.804  17.708  0.00  0.00    +0.000 F 
ATOM     22  F   UNL     1       1.323   9.248  19.765  0.00  0.00    +0.000 F 
ENDBRANCH   7  19
BRANCH   1  24
ATOM     23  C   UNL     1       1.390   2.775  21.681  0.00  0.00    +0.000 C 
ATOM     24  O   UNL     1       1.448   3.993  20.946  0.00  0.00    +0.000 OA
ENDBRANCH   1  24
TORSDOF 3
ENDMDL
MODEL 7
REMARK VINA RESULT:      -7.9      4.556      6.707
REMARK  Name = 
REMARK  6 active torsions:
REMARK  status: ('A' for Active; 'I' for Inactive)
REMARK    1  A    between atoms: C_1  and  O_2
REMARK    2  A    between atoms: O_2  and  C_3
REMARK    3  A    between atoms: C_6  and  C_7
REMARK    4  A    between atoms: C_12  and  C_13
REMARK    5  A    between atoms: C_12  and  C_14
REMARK    6  A    between atoms: C_17  and  C_18
REMARK                            x       y       z     vdW  Elec       q    Type
REMARK                         _______ _______ _______ _____ _____    ______ ____
ROOT
ATOM      1  C   UNL     1       2.043   7.413  19.661  0.00  0.00    +0.000 A 
ATOM      2  C   UNL     1       2.665   8.105  18.688  0.00  0.00    +0.000 A 
ATOM      3  C   UNL     1       3.572   7.431  17.789  0.00  0.00    +0.000 A 
ATOM      4  C   UNL     1       3.877   6.125  17.890  0.00  0.00    +0.000 A 
ATOM      5  C   UNL     1       3.259   5.374  18.952  0.00  0.00    +0.000 A 
ATOM      6  C   UNL     1       3.306   4.065  19.386  0.00  0.00    +0.000 A 
ATOM      7  C   UNL     1       2.401   3.980  20.475  0.00  0.00    +0.000 A 
ATOM      8  N   UNL     1       1.826   5.170  20.710  0.00  0.00    +0.000 NA
ATOM      9  N   UNL     1       2.351   6.035  19.797  0.00  0.00    +0.000 N 
ENDROOT
BRANCH   4  10
ATOM     10  C   UNL     1       4.810   5.499  16.895  0.00  0.00    +0.000 C 
ATOM     11  N   UNL     1       4.413   4.817  15.856  0.00  0.00    +0.000 NA
ATOM     12  N   UNL     1       5.526   4.467  15.150  0.00  0.00    +0.000 N 
ATOM     13  C   UNL     1       6.712   4.957  15.649  0.00  0.00    +0.000 C 
ATOM     14  O   UNL     1       7.822   4.848  15.149  0.00  0.00    +0.000 OA
ATOM     15  C   UNL     1       6.351   5.613  16.968  0.00  0.00    +0.000 C 
ATOM     16  C   UNL     1       6.987   4.740  18.054  0.00  0.00    +0.000 C 
ATOM     17  C   UNL     1       6.856   7.053  16.972  0.00  0.00    +0.000 C 
ATOM     18  H   UNL     1       5.456   3.953  14.279  0.00  0.00    +0.000 HD
ENDBRANCH   4  10
BRANCH   7  19
ATOM     19  C   UNL     1       2.073   2.757  21.292  0.00  0.00    +0.000 C 
ATOM     20  F   UNL     1       1.154   3.026  22.262  0.00  0.00    +0.000 F 
ATOM     21  F   UNL     1       1.549   1.751  20.542  0.00  0.00    +0.000 F 
ATOM     22  F   UNL     1       3.162   2.250  21.932  0.00  0.00    +0.000 F 
ENDBRANCH   7  19
BRANCH   1  24
ATOM     23  C   UNL     1       0.820   9.338  20.355  0.00  0.00    +0.000 C 
ATOM     24  O   UNL     1       1.114   7.956  20.533  0.00  0.00    +0.000 OA
ENDBRANCH   1  24
TORSDOF 3
ENDMDL
MODEL 8
REMARK VINA RESULT:      -7.7      4.538      7.317
REMARK  Name = 
REMARK  6 active torsions:
REMARK  status: ('A' for Active; 'I' for Inactive)
REMARK    1  A    between atoms: C_1  and  O_2
REMARK    2  A    between atoms: O_2  and  C_3
REMARK    3  A    between atoms: C_6  and  C_7
REMARK    4  A    between atoms: C_12  and  C_13
REMARK    5  A    between atoms: C_12  and  C_14
REMARK    6  A    between atoms: C_17  and  C_18
REMARK                            x       y       z     vdW  Elec       q    Type
REMARK                         _______ _______ _______ _____ _____    ______ ____
ROOT
ATOM      1  C   UNL     1       1.854   3.406  19.795  0.00  0.00    +0.000 A 
ATOM      2  C   UNL     1       2.586   2.710  18.904  0.00  0.00    +0.000 A 
ATOM      3  C   UNL     1       3.499   3.398  18.023  0.00  0.00    +0.000 A 
ATOM      4  C   UNL     1       3.639   4.735  18.003  0.00  0.00    +0.000 A 
ATOM      5  C   UNL     1       2.832   5.506  18.915  0.00  0.00    +0.000 A 
ATOM      6  C   UNL     1       2.678   6.847  19.198  0.00  0.00    +0.000 A 
ATOM      7  C   UNL     1       1.739   6.920  20.258  0.00  0.00    +0.000 A 
ATOM      8  N   UNL     1       1.327   5.692  20.613  0.00  0.00    +0.000 NA
ATOM      9  N   UNL     1       1.975   4.820  19.792  0.00  0.00    +0.000 N 
ENDROOT
BRANCH   4  10
ATOM     10  C   UNL     1       4.632   5.367  17.073  0.00  0.00    +0.000 C 
ATOM     11  N   UNL     1       4.475   6.545  16.534  0.00  0.00    +0.000 NA
ATOM     12  N   UNL     1       5.600   6.815  15.811  0.00  0.00    +0.000 N 
ATOM     13  C   UNL     1       6.588   5.858  15.890  0.00  0.00    +0.000 C 
ATOM     14  O   UNL     1       7.707   5.913  15.401  0.00  0.00    +0.000 OA
ATOM     15  C   UNL     1       5.972   4.709  16.667  0.00  0.00    +0.000 C 
ATOM     16  C   UNL     1       5.820   3.564  15.662  0.00  0.00    +0.000 C 
ATOM     17  C   UNL     1       6.866   4.364  17.854  0.00  0.00    +0.000 C 
ATOM     18  H   UNL     1       5.714   7.697  15.326  0.00  0.00    +0.000 HD
ENDBRANCH   4  10
BRANCH   7  19
ATOM     19  C   UNL     1       1.236   8.163  20.945  0.00  0.00    +0.000 C 
ATOM     20  F   UNL     1       1.991   8.483  22.034  0.00  0.00    +0.000 F 
ATOM     21  F   UNL     1       1.258   9.255  20.134  0.00  0.00    +0.000 F 
ATOM     22  F   UNL     1      -0.041   8.030  21.396  0.00  0.00    +0.000 F 
ENDBRANCH   7  19
BRANCH   1  24
ATOM     23  C   UNL     1       1.562   2.520  21.989  0.00  0.00    +0.000 C 
ATOM     24  O   UNL     1       0.997   2.832  20.719  0.00  0.00    +0.000 OA
ENDBRANCH   1  24
TORSDOF 3
ENDMDL
MODEL 9
REMARK VINA RESULT:      -7.7      0.818      1.104
REMARK  Name = 
REMARK  6 active torsions:
REMARK  status: ('A' for Active; 'I' for Inactive)
REMARK    1  A    between atoms: C_1  and  O_2
REMARK    2  A    between atoms: O_2  and  C_3
REMARK    3  A    between atoms: C_6  and  C_7
REMARK    4  A    between atoms: C_12  and  C_13
REMARK    5  A    between atoms: C_12  and  C_14
REMARK    6  A    between atoms: C_17  and  C_18
REMARK                            x       y       z     vdW  Elec       q    Type
REMARK                         _______ _______ _______ _____ _____    ______ ____
ROOT
ATOM      1  C   UNL     1       6.703   6.408  17.009  0.00  0.00    +0.000 A 
ATOM      2  C   UNL     1       6.063   6.440  18.193  0.00  0.00    +0.000 A 
ATOM      3  C   UNL     1       4.988   5.514  18.459  0.00  0.00    +0.000 A 
ATOM      4  C   UNL     1       4.542   4.622  17.556  0.00  0.00    +0.000 A 
ATOM      5  C   UNL     1       5.181   4.601  16.265  0.00  0.00    +0.000 A 
ATOM      6  C   UNL     1       5.027   3.870  15.105  0.00  0.00    +0.000 A 
ATOM      7  C   UNL     1       6.031   4.331  14.215  0.00  0.00    +0.000 A 
ATOM      8  N   UNL     1       6.767   5.298  14.787  0.00  0.00    +0.000 NA
ATOM      9  N   UNL     1       6.250   5.483  16.034  0.00  0.00    +0.000 N 
ENDROOT
BRANCH   4  10
ATOM     10  C   UNL     1       3.436   3.677  17.925  0.00  0.00    +0.000 C 
ATOM     11  N   UNL     1       2.589   3.180  17.067  0.00  0.00    +0.000 NA
ATOM     12  N   UNL     1       1.782   2.316  17.746  0.00  0.00    +0.000 N 
ATOM     13  C   UNL     1       2.097   2.146  19.076  0.00  0.00    +0.000 C 
ATOM     14  O   UNL     1       1.575   1.369  19.863  0.00  0.00    +0.000 OA
ATOM     15  C   UNL     1       3.190   3.158  19.361  0.00  0.00    +0.000 C 
ATOM     16  C   UNL     1       2.560   4.195  20.296  0.00  0.00    +0.000 C 
ATOM     17  C   UNL     1       4.395   2.444  19.967  0.00  0.00    +0.000 C 
ATOM     18  H   UNL     1       1.061   1.786  17.270  0.00  0.00    +0.000 HD
ENDBRANCH   4  10
BRANCH   7  19
ATOM     19  C   UNL     1       6.300   3.843  12.815  0.00  0.00    +0.000 C 
ATOM     20  F   UNL     1       6.702   2.541  12.798  0.00  0.00    +0.000 F 
ATOM     21  F   UNL     1       5.200   3.911  12.017  0.00  0.00    +0.000 F 
ATOM     22  F   UNL     1       7.284   4.552  12.196  0.00  0.00    +0.000 F 
ENDBRANCH   7  19
BRANCH   1  24
ATOM     23  C   UNL     1       8.028   8.314  17.554  0.00  0.00    +0.000 C 
ATOM     24  O   UNL     1       7.782   7.214  16.683  0.00  0.00    +0.000 OA
ENDBRANCH   1  24
TORSDOF 3
ENDMDL
