MODEL 1
REMARK VINA RESULT:      -8.9      0.000      0.000
REMARK  Name = 
REMARK  10 active torsions:
REMARK  status: ('A' for Active; 'I' for Inactive)
REMARK    1  A    between atoms: C_1  and  C_2
REMARK    2  A    between atoms: C_2  and  O_3
REMARK    3  A    between atoms: O_3  and  C_4
REMARK    4  A    between atoms: N_9  and  C_10
REMARK    5  A    between atoms: C_19  and  C_20
REMARK    6  A    between atoms: C_20  and  C_21
REMARK    7  A    between atoms: C_20  and  C_23
REMARK    8  A    between atoms: N_25  and  C_26
REMARK    9  A    between atoms: C_26  and  C_27
REMARK   10  A    between atoms: C_27  and  C_28
REMARK                            x       y       z     vdW  Elec       q    Type
REMARK                         _______ _______ _______ _____ _____    ______ ____
ROOT
ATOM      1  C   UNL     1       4.965   4.397  16.234  0.00  0.00    +0.000 A 
ATOM      2  N   UNL     1       4.987   3.901  14.967  0.00  0.00    +0.000 NA
ATOM      3  C   UNL     1       5.994   4.228  14.124  0.00  0.00    +0.000 A 
ATOM      4  C   UNL     1       6.011   3.746  12.818  0.00  0.00    +0.000 A 
ATOM      5  C   UNL     1       7.021   4.100  11.918  0.00  0.00    +0.000 A 
ATOM      6  C   UNL     1       8.037   4.955  12.326  0.00  0.00    +0.000 A 
ATOM      7  C   UNL     1       8.034   5.435  13.635  0.00  0.00    +0.000 A 
ATOM      8  C   UNL     1       7.031   5.078  14.533  0.00  0.00    +0.000 A 
ATOM      9  N   UNL     1       7.055   5.564  15.777  0.00  0.00    +0.000 NA
ATOM     10  C   UNL     1       6.029   5.225  16.629  0.00  0.00    +0.000 A 
ENDROOT
BRANCH   1  16
ATOM     11  C   UNL     1       0.931   3.621  19.792  0.00  0.00    +0.000 C 
ATOM     12  O   UNL     1       0.461   4.619  20.329  0.00  0.00    +0.000 OA
ATOM     13  N   UNL     1       1.479   3.622  18.532  0.00  0.00    +0.000 N 
ATOM     14  C   UNL     1       1.644   4.897  17.855  0.00  0.00    +0.000 C 
ATOM     15  C   UNL     1       3.138   5.243  17.749  0.00  0.00    +0.000 C 
ATOM     16  N   UNL     1       3.808   4.182  16.973  0.00  0.00    +0.000 N 
ATOM     17  C   UNL     1       3.726   2.880  17.694  0.00  0.00    +0.000 C 
ATOM     18  C   UNL     1       2.240   2.509  17.942  0.00  0.00    +0.000 C 
BRANCH  11  19
ATOM     19  O   UNL     1       1.035   2.414  20.399  0.00  0.00    +0.000 OA
BRANCH  19  21
ATOM     20  C   UNL     1       3.100   2.323  21.584  0.00  0.00    +0.000 C 
ATOM     21  C   UNL     1       1.594   2.457  21.716  0.00  0.00    +0.000 C 
ENDBRANCH  19  21
ENDBRANCH  11  19
ENDBRANCH   1  16
BRANCH  10  22
ATOM     22  C   UNL     1       6.169   5.892  17.967  0.00  0.00    +0.000 C 
BRANCH  22  23
ATOM     23  C   UNL     1       7.348   6.860  18.068  0.00  0.00    +0.000 C 
ATOM     24  O   UNL     1       8.356   6.598  18.728  0.00  0.00    +0.000 OA
ATOM     25  N   UNL     1       7.281   8.043  17.344  0.00  0.00    +0.000 N 
ATOM     26  H   UNL     1       6.495   8.245  16.734  0.00  0.00    +0.000 HD
BRANCH  25  27
ATOM     27  C   UNL     1       8.424   8.957  17.357  0.00  0.00    +0.000 C 
BRANCH  27  28
ATOM     28  C   UNL     1       8.146  10.298  18.041  0.00  0.00    +0.000 C 
BRANCH  28  29
ATOM     29  C   UNL     1       9.402  10.912  18.619  0.00  0.00    +0.000 A 
ATOM     30  C   UNL     1      10.443  11.334  17.777  0.00  0.00    +0.000 A 
ATOM     31  C   UNL     1      11.613  11.878  18.307  0.00  0.00    +0.000 A 
ATOM     32  C   UNL     1      11.755  12.010  19.691  0.00  0.00    +0.000 A 
ATOM     33  C   UNL     1      10.733  11.591  20.538  0.00  0.00    +0.000 A 
ATOM     34  C   UNL     1       9.563  11.043  20.006  0.00  0.00    +0.000 A 
ENDBRANCH  28  29
ENDBRANCH  27  28
ENDBRANCH  25  27
ENDBRANCH  22  23
BRANCH  22  35
ATOM     35  C   UNL     1       5.920   4.996  19.169  0.00  0.00    +0.000 C 
ATOM     36  N   UNL     1       5.713   4.252  20.166  0.00  0.00    +0.000 NA
ENDBRANCH  22  35
ENDBRANCH  10  22
TORSDOF 9
ENDMDL
MODEL 2
REMARK VINA RESULT:      -8.6      1.413      1.737
REMARK  Name = 
REMARK  10 active torsions:
REMARK  status: ('A' for Active; 'I' for Inactive)
REMARK    1  A    between atoms: C_1  and  C_2
REMARK    2  A    between atoms: C_2  and  O_3
REMARK    3  A    between atoms: O_3  and  C_4
REMARK    4  A    between atoms: N_9  and  C_10
REMARK    5  A    between atoms: C_19  and  C_20
REMARK    6  A    between atoms: C_20  and  C_21
REMARK    7  A    between atoms: C_20  and  C_23
REMARK    8  A    between atoms: N_25  and  C_26
REMARK    9  A    between atoms: C_26  and  C_27
REMARK   10  A    between atoms: C_27  and  C_28
REMARK                            x       y       z     vdW  Elec       q    Type
REMARK                         _______ _______ _______ _____ _____    ______ ____
ROOT
ATOM      1  C   UNL     1       5.117   4.980  16.434  0.00  0.00    +0.000 A 
ATOM      2  N   UNL     1       4.858   4.339  15.261  0.00  0.00    +0.000 NA
ATOM      3  C   UNL     1       5.785   4.320  14.276  0.00  0.00    +0.000 A 
ATOM      4  C   UNL     1       5.519   3.689  13.064  0.00  0.00    +0.000 A 
ATOM      5  C   UNL     1       6.447   3.688  12.018  0.00  0.00    +0.000 A 
ATOM      6  C   UNL     1       7.667   4.332  12.180  0.00  0.00    +0.000 A 
ATOM      7  C   UNL     1       7.946   4.959  13.393  0.00  0.00    +0.000 A 
ATOM      8  C   UNL     1       7.024   4.954  14.437  0.00  0.00    +0.000 A 
ATOM      9  N   UNL     1       7.322   5.573  15.583  0.00  0.00    +0.000 NA
ATOM     10  C   UNL     1       6.376   5.586  16.582  0.00  0.00    +0.000 A 
ENDROOT
BRANCH   1  16
ATOM     11  C   UNL     1       1.386   5.047  20.385  0.00  0.00    +0.000 C 
ATOM     12  O   UNL     1       1.602   5.782  21.344  0.00  0.00    +0.000 OA
ATOM     13  N   UNL     1       1.838   5.303  19.114  0.00  0.00    +0.000 N 
ATOM     14  C   UNL     1       2.739   6.426  18.917  0.00  0.00    +0.000 C 
ATOM     15  C   UNL     1       4.145   5.912  18.563  0.00  0.00    +0.000 C 
ATOM     16  N   UNL     1       4.054   5.128  17.316  0.00  0.00    +0.000 N 
ATOM     17  C   UNL     1       3.202   3.922  17.522  0.00  0.00    +0.000 C 
ATOM     18  C   UNL     1       1.788   4.352  17.992  0.00  0.00    +0.000 C 
BRANCH  11  19
ATOM     19  O   UNL     1       0.742   3.858  20.474  0.00  0.00    +0.000 OA
BRANCH  19  21
ATOM     20  C   UNL     1       2.059   1.873  20.431  0.00  0.00    +0.000 C 
ATOM     21  C   UNL     1       1.381   2.898  21.322  0.00  0.00    +0.000 C 
ENDBRANCH  19  21
ENDBRANCH  11  19
ENDBRANCH   1  16
BRANCH  10  22
ATOM     22  C   UNL     1       6.837   6.364  17.781  0.00  0.00    +0.000 C 
BRANCH  22  23
ATOM     23  C   UNL     1       7.177   7.826  17.489  0.00  0.00    +0.000 C 
ATOM     24  O   UNL     1       6.543   8.495  16.670  0.00  0.00    +0.000 OA
ATOM     25  N   UNL     1       8.205   8.411  18.215  0.00  0.00    +0.000 N 
ATOM     26  H   UNL     1       8.690   7.903  18.947  0.00  0.00    +0.000 HD
BRANCH  25  27
ATOM     27  C   UNL     1       8.507   9.830  18.016  0.00  0.00    +0.000 C 
BRANCH  27  28
ATOM     28  C   UNL     1       9.597  10.374  18.943  0.00  0.00    +0.000 C 
BRANCH  28  29
ATOM     29  C   UNL     1      10.175  11.677  18.435  0.00  0.00    +0.000 A 
ATOM     30  C   UNL     1       9.367  12.822  18.327  0.00  0.00    +0.000 A 
ATOM     31  C   UNL     1       9.890  14.019  17.837  0.00  0.00    +0.000 A 
ATOM     32  C   UNL     1      11.231  14.087  17.451  0.00  0.00    +0.000 A 
ATOM     33  C   UNL     1      12.041  12.959  17.548  0.00  0.00    +0.000 A 
ATOM     34  C   UNL     1      11.516  11.760  18.036  0.00  0.00    +0.000 A 
ENDBRANCH  28  29
ENDBRANCH  27  28
ENDBRANCH  25  27
ENDBRANCH  22  23
BRANCH  22  35
ATOM     35  C   UNL     1       7.776   5.621  18.716  0.00  0.00    +0.000 C 
ATOM     36  N   UNL     1       8.555   5.004  19.493  0.00  0.00    +0.000 NA
ENDBRANCH  22  35
ENDBRANCH  10  22
TORSDOF 9
ENDMDL
MODEL 3
REMARK VINA RESULT:      -8.4      8.036     11.256
REMARK  Name = 
REMARK  10 active torsions:
REMARK  status: ('A' for Active; 'I' for Inactive)
REMARK    1  A    between atoms: C_1  and  C_2
REMARK    2  A    between atoms: C_2  and  O_3
REMARK    3  A    between atoms: O_3  and  C_4
REMARK    4  A    between atoms: N_9  and  C_10
REMARK    5  A    between atoms: C_19  and  C_20
REMARK    6  A    between atoms: C_20  and  C_21
REMARK    7  A    between atoms: C_20  and  C_23
REMARK    8  A    between atoms: N_25  and  C_26
REMARK    9  A    between atoms: C_26  and  C_27
REMARK   10  A    between atoms: C_27  and  C_28
REMARK                            x       y       z     vdW  Elec       q    Type
REMARK                         _______ _______ _______ _____ _____    ______ ____
ROOT
ATOM      1  C   UNL     1      -0.587  13.298  20.426  0.00  0.00    +0.000 A 
ATOM      2  N   UNL     1       0.135  14.444  20.300  0.00  0.00    +0.000 NA
ATOM      3  C   UNL     1       1.269  14.458  19.561  0.00  0.00    +0.000 A 
ATOM      4  C   UNL     1       2.028  15.620  19.447  0.00  0.00    +0.000 A 
ATOM      5  C   UNL     1       3.222  15.648  18.720  0.00  0.00    +0.000 A 
ATOM      6  C   UNL     1       3.673  14.494  18.093  0.00  0.00    +0.000 A 
ATOM      7  C   UNL     1       2.915  13.328  18.194  0.00  0.00    +0.000 A 
ATOM      8  C   UNL     1       1.723  13.302  18.913  0.00  0.00    +0.000 A 
ATOM      9  N   UNL     1       1.027  12.164  18.995  0.00  0.00    +0.000 NA
ATOM     10  C   UNL     1      -0.127  12.158  19.745  0.00  0.00    +0.000 A 
ENDROOT
BRANCH   1  16
ATOM     11  C   UNL     1      -4.730  12.528  23.858  0.00  0.00    +0.000 C 
ATOM     12  O   UNL     1      -4.472  11.995  24.933  0.00  0.00    +0.000 OA
ATOM     13  N   UNL     1      -3.836  13.304  23.160  0.00  0.00    +0.000 N 
ATOM     14  C   UNL     1      -2.469  13.382  23.645  0.00  0.00    +0.000 C 
ATOM     15  C   UNL     1      -1.527  12.652  22.673  0.00  0.00    +0.000 C 
ATOM     16  N   UNL     1      -1.622  13.307  21.353  0.00  0.00    +0.000 N 
ATOM     17  C   UNL     1      -2.998  13.161  20.799  0.00  0.00    +0.000 C 
ATOM     18  C   UNL     1      -4.028  13.778  21.780  0.00  0.00    +0.000 C 
BRANCH  11  19
ATOM     19  O   UNL     1      -5.897  12.359  23.191  0.00  0.00    +0.000 OA
BRANCH  19  21
ATOM     20  C   UNL     1      -7.799  13.793  23.105  0.00  0.00    +0.000 C 
ATOM     21  C   UNL     1      -7.063  12.748  23.925  0.00  0.00    +0.000 C 
ENDBRANCH  19  21
ENDBRANCH  11  19
ENDBRANCH   1  16
BRANCH  10  22
ATOM     22  C   UNL     1      -0.762  10.798  19.786  0.00  0.00    +0.000 C 
BRANCH  22  23
ATOM     23  C   UNL     1       0.058   9.743  20.528  0.00  0.00    +0.000 C 
ATOM     24  O   UNL     1      -0.096   9.521  21.732  0.00  0.00    +0.000 OA
ATOM     25  N   UNL     1       0.962   8.988  19.794  0.00  0.00    +0.000 N 
ATOM     26  H   UNL     1       1.051   9.100  18.790  0.00  0.00    +0.000 HD
BRANCH  25  27
ATOM     27  C   UNL     1       1.709   7.918  20.458  0.00  0.00    +0.000 C 
BRANCH  27  28
ATOM     28  C   UNL     1       2.555   7.063  19.510  0.00  0.00    +0.000 C 
BRANCH  28  29
ATOM     29  C   UNL     1       2.044   5.642  19.420  0.00  0.00    +0.000 A 
ATOM     30  C   UNL     1       2.035   4.963  18.190  0.00  0.00    +0.000 A 
ATOM     31  C   UNL     1       1.543   3.661  18.099  0.00  0.00    +0.000 A 
ATOM     32  C   UNL     1       1.056   3.018  19.239  0.00  0.00    +0.000 A 
ATOM     33  C   UNL     1       1.055   3.681  20.464  0.00  0.00    +0.000 A 
ATOM     34  C   UNL     1       1.545   4.986  20.554  0.00  0.00    +0.000 A 
ENDBRANCH  28  29
ENDBRANCH  27  28
ENDBRANCH  25  27
ENDBRANCH  22  23
BRANCH  22  35
ATOM     35  C   UNL     1      -1.431  10.355  18.495  0.00  0.00    +0.000 C 
ATOM     36  N   UNL     1      -1.987   9.989  17.424  0.00  0.00    +0.000 NA
ENDBRANCH  22  35
ENDBRANCH  10  22
TORSDOF 9
ENDMDL
MODEL 4
REMARK VINA RESULT:      -8.3      1.406      1.597
REMARK  Name = 
REMARK  10 active torsions:
REMARK  status: ('A' for Active; 'I' for Inactive)
REMARK    1  A    between atoms: C_1  and  C_2
REMARK    2  A    between atoms: C_2  and  O_3
REMARK    3  A    between atoms: O_3  and  C_4
REMARK    4  A    between atoms: N_9  and  C_10
REMARK    5  A    between atoms: C_19  and  C_20
REMARK    6  A    between atoms: C_20  and  C_21
REMARK    7  A    between atoms: C_20  and  C_23
REMARK    8  A    between atoms: N_25  and  C_26
REMARK    9  A    between atoms: C_26  and  C_27
REMARK   10  A    between atoms: C_27  and  C_28
REMARK                            x       y       z     vdW  Elec       q    Type
REMARK                         _______ _______ _______ _____ _____    ______ ____
ROOT
ATOM      1  C   UNL     1       5.369   4.820  16.501  0.00  0.00    +0.000 A 
ATOM      2  N   UNL     1       5.153   4.190  15.314  0.00  0.00    +0.000 NA
ATOM      3  C   UNL     1       6.033   4.331  14.297  0.00  0.00    +0.000 A 
ATOM      4  C   UNL     1       5.807   3.711  13.071  0.00  0.00    +0.000 A 
ATOM      5  C   UNL     1       6.683   3.873  11.993  0.00  0.00    +0.000 A 
ATOM      6  C   UNL     1       7.810   4.673  12.137  0.00  0.00    +0.000 A 
ATOM      7  C   UNL     1       8.050   5.291  13.363  0.00  0.00    +0.000 A 
ATOM      8  C   UNL     1       7.180   5.124  14.438  0.00  0.00    +0.000 A 
ATOM      9  N   UNL     1       7.438   5.738  15.597  0.00  0.00    +0.000 NA
ATOM     10  C   UNL     1       6.539   5.587  16.628  0.00  0.00    +0.000 A 
ENDROOT
BRANCH   1  16
ATOM     11  C   UNL     1       1.857   5.058  20.641  0.00  0.00    +0.000 C 
ATOM     12  O   UNL     1       1.312   6.138  20.849  0.00  0.00    +0.000 OA
ATOM     13  N   UNL     1       2.270   4.642  19.399  0.00  0.00    +0.000 N 
ATOM     14  C   UNL     1       2.191   5.585  18.296  0.00  0.00    +0.000 C 
ATOM     15  C   UNL     1       3.607   5.999  17.860  0.00  0.00    +0.000 C 
ATOM     16  N   UNL     1       4.332   4.790  17.425  0.00  0.00    +0.000 N 
ATOM     17  C   UNL     1       4.501   3.847  18.567  0.00  0.00    +0.000 C 
ATOM     18  C   UNL     1       3.112   3.463  19.141  0.00  0.00    +0.000 C 
BRANCH  11  19
ATOM     19  O   UNL     1       2.185   4.176  21.616  0.00  0.00    +0.000 OA
BRANCH  19  21
ATOM     20  C   UNL     1       2.172   1.804  21.843  0.00  0.00    +0.000 C 
ATOM     21  C   UNL     1       1.310   3.047  21.714  0.00  0.00    +0.000 C 
ENDBRANCH  19  21
ENDBRANCH  11  19
ENDBRANCH   1  16
BRANCH  10  22
ATOM     22  C   UNL     1       6.938   6.381  17.839  0.00  0.00    +0.000 C 
BRANCH  22  23
ATOM     23  C   UNL     1       7.272   7.844  17.550  0.00  0.00    +0.000 C 
ATOM     24  O   UNL     1       6.657   8.503  16.709  0.00  0.00    +0.000 OA
ATOM     25  N   UNL     1       8.272   8.443  18.305  0.00  0.00    +0.000 N 
ATOM     26  H   UNL     1       8.739   7.943  19.054  0.00  0.00    +0.000 HD
BRANCH  25  27
ATOM     27  C   UNL     1       8.566   9.864  18.108  0.00  0.00    +0.000 C 
BRANCH  27  28
ATOM     28  C   UNL     1       9.954  10.290  18.594  0.00  0.00    +0.000 C 
BRANCH  28  29
ATOM     29  C   UNL     1       9.879  11.385  19.634  0.00  0.00    +0.000 A 
ATOM     30  C   UNL     1      10.500  12.625  19.411  0.00  0.00    +0.000 A 
ATOM     31  C   UNL     1      10.453  13.630  20.378  0.00  0.00    +0.000 A 
ATOM     32  C   UNL     1       9.781  13.407  21.583  0.00  0.00    +0.000 A 
ATOM     33  C   UNL     1       9.166  12.180  21.819  0.00  0.00    +0.000 A 
ATOM     34  C   UNL     1       9.216  11.174  20.851  0.00  0.00    +0.000 A 
ENDBRANCH  28  29
ENDBRANCH  27  28
ENDBRANCH  25  27
ENDBRANCH  22  23
BRANCH  22  35
ATOM     35  C   UNL     1       7.845   5.657  18.821  0.00  0.00    +0.000 C 
ATOM     36  N   UNL     1       8.598   5.056  19.635  0.00  0.00    +0.000 NA
ENDBRANCH  22  35
ENDBRANCH  10  22
TORSDOF 9
ENDMDL
MODEL 5
REMARK VINA RESULT:      -8.3      0.919      1.048
REMARK  Name = 
REMARK  10 active torsions:
REMARK  status: ('A' for Active; 'I' for Inactive)
REMARK    1  A    between atoms: C_1  and  C_2
REMARK    2  A    between atoms: C_2  and  O_3
REMARK    3  A    between atoms: O_3  and  C_4
REMARK    4  A    between atoms: N_9  and  C_10
REMARK    5  A    between atoms: C_19  and  C_20
REMARK    6  A    between atoms: C_20  and  C_21
REMARK    7  A    between atoms: C_20  and  C_23
REMARK    8  A    between atoms: N_25  and  C_26
REMARK    9  A    between atoms: C_26  and  C_27
REMARK   10  A    between atoms: C_27  and  C_28
REMARK                            x       y       z     vdW  Elec       q    Type
REMARK                         _______ _______ _______ _____ _____    ______ ____
ROOT
ATOM      1  C   UNL     1       5.061   4.787  16.239  0.00  0.00    +0.000 A 
ATOM      2  N   UNL     1       4.924   4.133  15.054  0.00  0.00    +0.000 NA
ATOM      3  C   UNL     1       5.881   4.238  14.103  0.00  0.00    +0.000 A 
ATOM      4  C   UNL     1       5.739   3.593  12.878  0.00  0.00    +0.000 A 
ATOM      5  C   UNL     1       6.696   3.717  11.866  0.00  0.00    +0.000 A 
ATOM      6  C   UNL     1       7.822   4.503  12.078  0.00  0.00    +0.000 A 
ATOM      7  C   UNL     1       7.978   5.145  13.305  0.00  0.00    +0.000 A 
ATOM      8  C   UNL     1       7.027   5.016  14.314  0.00  0.00    +0.000 A 
ATOM      9  N   UNL     1       7.207   5.653  15.475  0.00  0.00    +0.000 NA
ATOM     10  C   UNL     1       6.231   5.540  16.439  0.00  0.00    +0.000 A 
ENDROOT
BRANCH   1  16
ATOM     11  C   UNL     1       1.270   4.547  20.125  0.00  0.00    +0.000 C 
ATOM     12  O   UNL     1       1.227   5.480  20.922  0.00  0.00    +0.000 OA
ATOM     13  N   UNL     1       1.694   4.677  18.826  0.00  0.00    +0.000 N 
ATOM     14  C   UNL     1       2.259   5.949  18.410  0.00  0.00    +0.000 C 
ATOM     15  C   UNL     1       3.768   5.792  18.154  0.00  0.00    +0.000 C 
ATOM     16  N   UNL     1       3.957   4.794  17.083  0.00  0.00    +0.000 N 
ATOM     17  C   UNL     1       3.462   3.460  17.523  0.00  0.00    +0.000 C 
ATOM     18  C   UNL     1       1.962   3.556  17.910  0.00  0.00    +0.000 C 
BRANCH  11  19
ATOM     19  O   UNL     1       0.974   3.264  20.447  0.00  0.00    +0.000 OA
BRANCH  19  21
ATOM     20  C   UNL     1       3.051   2.473  21.305  0.00  0.00    +0.000 C 
ATOM     21  C   UNL     1       1.605   2.790  21.641  0.00  0.00    +0.000 C 
ENDBRANCH  19  21
ENDBRANCH  11  19
ENDBRANCH   1  16
BRANCH  10  22
ATOM     22  C   UNL     1       6.550   6.355  17.659  0.00  0.00    +0.000 C 
BRANCH  22  23
ATOM     23  C   UNL     1       7.556   7.480  17.418  0.00  0.00    +0.000 C 
ATOM     24  O   UNL     1       8.283   7.507  16.422  0.00  0.00    +0.000 OA
ATOM     25  N   UNL     1       7.600   8.519  18.337  0.00  0.00    +0.000 N 
ATOM     26  H   UNL     1       6.960   8.557  19.123  0.00  0.00    +0.000 HD
BRANCH  25  27
ATOM     27  C   UNL     1       8.498   9.651  18.098  0.00  0.00    +0.000 C 
BRANCH  27  28
ATOM     28  C   UNL     1       9.262  10.118  19.341  0.00  0.00    +0.000 C 
BRANCH  28  29
ATOM     29  C   UNL     1      10.279  11.188  19.012  0.00  0.00    +0.000 A 
ATOM     30  C   UNL     1      10.530  11.549  17.679  0.00  0.00    +0.000 A 
ATOM     31  C   UNL     1      11.485  12.519  17.370  0.00  0.00    +0.000 A 
ATOM     32  C   UNL     1      12.201  13.143  18.395  0.00  0.00    +0.000 A 
ATOM     33  C   UNL     1      11.966  12.790  19.722  0.00  0.00    +0.000 A 
ATOM     34  C   UNL     1      11.012  11.817  20.029  0.00  0.00    +0.000 A 
ENDBRANCH  28  29
ENDBRANCH  27  28
ENDBRANCH  25  27
ENDBRANCH  22  23
BRANCH  22  35
ATOM     35  C   UNL     1       6.710   5.562  18.946  0.00  0.00    +0.000 C 
ATOM     36  N   UNL     1       6.844   4.904  20.013  0.00  0.00    +0.000 NA
ENDBRANCH  22  35
ENDBRANCH  10  22
TORSDOF 9
ENDMDL
MODEL 6
REMARK VINA RESULT:      -8.3      1.502      2.090
REMARK  Name = 
REMARK  10 active torsions:
REMARK  status: ('A' for Active; 'I' for Inactive)
REMARK    1  A    between atoms: C_1  and  C_2
REMARK    2  A    between atoms: C_2  and  O_3
REMARK    3  A    between atoms: O_3  and  C_4
REMARK    4  A    between atoms: N_9  and  C_10
REMARK    5  A    between atoms: C_19  and  C_20
REMARK    6  A    between atoms: C_20  and  C_21
REMARK    7  A    between atoms: C_20  and  C_23
REMARK    8  A    between atoms: N_25  and  C_26
REMARK    9  A    between atoms: C_26  and  C_27
REMARK   10  A    between atoms: C_27  and  C_28
REMARK                            x       y       z     vdW  Elec       q    Type
REMARK                         _______ _______ _______ _____ _____    ______ ____
ROOT
ATOM      1  C   UNL     1       5.704   4.394  17.083  0.00  0.00    +0.000 A 
ATOM      2  N   UNL     1       5.447   3.690  15.947  0.00  0.00    +0.000 NA
ATOM      3  C   UNL     1       6.098   3.988  14.798  0.00  0.00    +0.000 A 
ATOM      4  C   UNL     1       5.823   3.291  13.625  0.00  0.00    +0.000 A 
ATOM      5  C   UNL     1       6.455   3.607  12.418  0.00  0.00    +0.000 A 
ATOM      6  C   UNL     1       7.380   4.642  12.376  0.00  0.00    +0.000 A 
ATOM      7  C   UNL     1       7.669   5.340  13.548  0.00  0.00    +0.000 A 
ATOM      8  C   UNL     1       7.044   5.021  14.751  0.00  0.00    +0.000 A 
ATOM      9  N   UNL     1       7.339   5.718  15.853  0.00  0.00    +0.000 NA
ATOM     10  C   UNL     1       6.676   5.407  17.018  0.00  0.00    +0.000 A 
ENDROOT
BRANCH   1  16
ATOM     11  C   UNL     1       1.949   3.071  20.782  0.00  0.00    +0.000 C 
ATOM     12  O   UNL     1       2.018   1.947  21.269  0.00  0.00    +0.000 OA
ATOM     13  N   UNL     1       3.041   3.772  20.332  0.00  0.00    +0.000 N 
ATOM     14  C   UNL     1       4.326   3.096  20.296  0.00  0.00    +0.000 C 
ATOM     15  C   UNL     1       4.752   2.857  18.838  0.00  0.00    +0.000 C 
ATOM     16  N   UNL     1       4.864   4.167  18.166  0.00  0.00    +0.000 N 
ATOM     17  C   UNL     1       3.535   4.839  18.114  0.00  0.00    +0.000 C 
ATOM     18  C   UNL     1       2.980   5.019  19.552  0.00  0.00    +0.000 C 
BRANCH  11  19
ATOM     19  O   UNL     1       0.785   3.728  20.559  0.00  0.00    +0.000 OA
BRANCH  19  21
ATOM     20  C   UNL     1       0.727   2.181  18.748  0.00  0.00    +0.000 C 
ATOM     21  C   UNL     1       0.224   3.519  19.259  0.00  0.00    +0.000 C 
ENDBRANCH  19  21
ENDBRANCH  11  19
ENDBRANCH   1  16
BRANCH  10  22
ATOM     22  C   UNL     1       7.076   6.311  18.148  0.00  0.00    +0.000 C 
BRANCH  22  23
ATOM     23  C   UNL     1       7.445   7.730  17.718  0.00  0.00    +0.000 C 
ATOM     24  O   UNL     1       6.861   8.309  16.798  0.00  0.00    +0.000 OA
ATOM     25  N   UNL     1       8.438   8.387  18.431  0.00  0.00    +0.000 N 
ATOM     26  H   UNL     1       8.879   7.960  19.238  0.00  0.00    +0.000 HD
BRANCH  25  27
ATOM     27  C   UNL     1       8.764   9.775  18.095  0.00  0.00    +0.000 C 
BRANCH  27  28
ATOM     28  C   UNL     1       9.496  10.533  19.206  0.00  0.00    +0.000 C 
BRANCH  28  29
ATOM     29  C   UNL     1      10.153  11.796  18.694  0.00  0.00    +0.000 A 
ATOM     30  C   UNL     1      11.400  11.741  18.051  0.00  0.00    +0.000 A 
ATOM     31  C   UNL     1      12.020  12.906  17.598  0.00  0.00    +0.000 A 
ATOM     32  C   UNL     1      11.397  14.143  17.780  0.00  0.00    +0.000 A 
ATOM     33  C   UNL     1      10.163  14.212  18.421  0.00  0.00    +0.000 A 
ATOM     34  C   UNL     1       9.544  13.045  18.877  0.00  0.00    +0.000 A 
ENDBRANCH  28  29
ENDBRANCH  27  28
ENDBRANCH  25  27
ENDBRANCH  22  23
BRANCH  22  35
ATOM     35  C   UNL     1       7.954   5.672  19.212  0.00  0.00    +0.000 C 
ATOM     36  N   UNL     1       8.682   5.143  20.095  0.00  0.00    +0.000 NA
ENDBRANCH  22  35
ENDBRANCH  10  22
TORSDOF 9
ENDMDL
MODEL 7
REMARK VINA RESULT:      -8.2      1.569      2.038
REMARK  Name = 
REMARK  10 active torsions:
REMARK  status: ('A' for Active; 'I' for Inactive)
REMARK    1  A    between atoms: C_1  and  C_2
REMARK    2  A    between atoms: C_2  and  O_3
REMARK    3  A    between atoms: O_3  and  C_4
REMARK    4  A    between atoms: N_9  and  C_10
REMARK    5  A    between atoms: C_19  and  C_20
REMARK    6  A    between atoms: C_20  and  C_21
REMARK    7  A    between atoms: C_20  and  C_23
REMARK    8  A    between atoms: N_25  and  C_26
REMARK    9  A    between atoms: C_26  and  C_27
REMARK   10  A    between atoms: C_27  and  C_28
REMARK                            x       y       z     vdW  Elec       q    Type
REMARK                         _______ _______ _______ _____ _____    ______ ____
ROOT
ATOM      1  C   UNL     1       5.355   4.863  16.742  0.00  0.00    +0.000 A 
ATOM      2  N   UNL     1       5.085   4.206  15.581  0.00  0.00    +0.000 NA
ATOM      3  C   UNL     1       5.928   4.309  14.527  0.00  0.00    +0.000 A 
ATOM      4  C   UNL     1       5.647   3.661  13.327  0.00  0.00    +0.000 A 
ATOM      5  C   UNL     1       6.483   3.783  12.214  0.00  0.00    +0.000 A 
ATOM      6  C   UNL     1       7.626   4.569  12.294  0.00  0.00    +0.000 A 
ATOM      7  C   UNL     1       7.921   5.214  13.494  0.00  0.00    +0.000 A 
ATOM      8  C   UNL     1       7.090   5.088  14.605  0.00  0.00    +0.000 A 
ATOM      9  N   UNL     1       7.400   5.727  15.737  0.00  0.00    +0.000 NA
ATOM     10  C   UNL     1       6.540   5.616  16.805  0.00  0.00    +0.000 A 
ENDROOT
BRANCH   1  16
ATOM     11  C   UNL     1       1.504   4.069  20.493  0.00  0.00    +0.000 C 
ATOM     12  O   UNL     1       1.880   3.840  21.639  0.00  0.00    +0.000 OA
ATOM     13  N   UNL     1       2.213   4.833  19.599  0.00  0.00    +0.000 N 
ATOM     14  C   UNL     1       3.545   5.276  19.976  0.00  0.00    +0.000 C 
ATOM     15  C   UNL     1       4.599   4.548  19.124  0.00  0.00    +0.000 C 
ATOM     16  N   UNL     1       4.354   4.873  17.705  0.00  0.00    +0.000 N 
ATOM     17  C   UNL     1       3.027   4.349  17.274  0.00  0.00    +0.000 C 
ATOM     18  C   UNL     1       1.909   4.953  18.164  0.00  0.00    +0.000 C 
BRANCH  11  19
ATOM     19  O   UNL     1       0.384   3.539  19.945  0.00  0.00    +0.000 OA
BRANCH  19  21
ATOM     20  C   UNL     1       1.840   1.671  19.680  0.00  0.00    +0.000 C 
ATOM     21  C   UNL     1       0.610   2.377  19.139  0.00  0.00    +0.000 C 
ENDBRANCH  19  21
ENDBRANCH  11  19
ENDBRANCH   1  16
BRANCH  10  22
ATOM     22  C   UNL     1       6.996   6.434  17.979  0.00  0.00    +0.000 C 
BRANCH  22  23
ATOM     23  C   UNL     1       7.380   7.872  17.633  0.00  0.00    +0.000 C 
ATOM     24  O   UNL     1       6.831   8.496  16.722  0.00  0.00    +0.000 OA
ATOM     25  N   UNL     1       8.346   8.492  18.414  0.00  0.00    +0.000 N 
ATOM     26  H   UNL     1       8.757   8.025  19.215  0.00  0.00    +0.000 HD
BRANCH  25  27
ATOM     27  C   UNL     1       8.684   9.893  18.158  0.00  0.00    +0.000 C 
BRANCH  27  28
ATOM     28  C   UNL     1       9.866  10.413  18.981  0.00  0.00    +0.000 C 
BRANCH  28  29
ATOM     29  C   UNL     1       9.533  11.700  19.702  0.00  0.00    +0.000 A 
ATOM     30  C   UNL     1       9.633  11.782  21.101  0.00  0.00    +0.000 A 
ATOM     31  C   UNL     1       9.305  12.961  21.771  0.00  0.00    +0.000 A 
ATOM     32  C   UNL     1       8.873  14.076  21.048  0.00  0.00    +0.000 A 
ATOM     33  C   UNL     1       8.764  14.007  19.662  0.00  0.00    +0.000 A 
ATOM     34  C   UNL     1       9.091  12.826  18.992  0.00  0.00    +0.000 A 
ENDBRANCH  28  29
ENDBRANCH  27  28
ENDBRANCH  25  27
ENDBRANCH  22  23
BRANCH  22  35
ATOM     35  C   UNL     1       7.895   5.708  18.966  0.00  0.00    +0.000 C 
ATOM     36  N   UNL     1       8.642   5.105  19.785  0.00  0.00    +0.000 NA
ENDBRANCH  22  35
ENDBRANCH  10  22
TORSDOF 9
ENDMDL
MODEL 8
REMARK VINA RESULT:      -8.1      8.613     11.674
REMARK  Name = 
REMARK  10 active torsions:
REMARK  status: ('A' for Active; 'I' for Inactive)
REMARK    1  A    between atoms: C_1  and  C_2
REMARK    2  A    between atoms: C_2  and  O_3
REMARK    3  A    between atoms: O_3  and  C_4
REMARK    4  A    between atoms: N_9  and  C_10
REMARK    5  A    between atoms: C_19  and  C_20
REMARK    6  A    between atoms: C_20  and  C_21
REMARK    7  A    between atoms: C_20  and  C_23
REMARK    8  A    between atoms: N_25  and  C_26
REMARK    9  A    between atoms: C_26  and  C_27
REMARK   10  A    between atoms: C_27  and  C_28
REMARK                            x       y       z     vdW  Elec       q    Type
REMARK                         _______ _______ _______ _____ _____    ______ ____
ROOT
ATOM      1  C   UNL     1      -1.889  12.141  20.086  0.00  0.00    +0.000 A 
ATOM      2  N   UNL     1      -3.050  12.139  19.374  0.00  0.00    +0.000 NA
ATOM      3  C   UNL     1      -3.118  11.501  18.183  0.00  0.00    +0.000 A 
ATOM      4  C   UNL     1      -4.293  11.515  17.437  0.00  0.00    +0.000 A 
ATOM      5  C   UNL     1      -4.376  10.895  16.186  0.00  0.00    +0.000 A 
ATOM      6  C   UNL     1      -3.263  10.247  15.665  0.00  0.00    +0.000 A 
ATOM      7  C   UNL     1      -2.085  10.219  16.409  0.00  0.00    +0.000 A 
ATOM      8  C   UNL     1      -2.005  10.832  17.657  0.00  0.00    +0.000 A 
ATOM      9  N   UNL     1      -0.856  10.792  18.339  0.00  0.00    +0.000 NA
ATOM     10  C   UNL     1      -0.795  11.441  19.551  0.00  0.00    +0.000 A 
ENDROOT
BRANCH   1  16
ATOM     11  C   UNL     1      -2.506  15.348  24.429  0.00  0.00    +0.000 C 
ATOM     12  O   UNL     1      -2.694  14.795  25.509  0.00  0.00    +0.000 OA
ATOM     13  N   UNL     1      -1.783  14.788  23.405  0.00  0.00    +0.000 N 
ATOM     14  C   UNL     1      -1.338  13.413  23.548  0.00  0.00    +0.000 C 
ATOM     15  C   UNL     1      -2.106  12.510  22.569  0.00  0.00    +0.000 C 
ATOM     16  N   UNL     1      -1.834  12.976  21.195  0.00  0.00    +0.000 N 
ATOM     17  C   UNL     1      -2.363  14.356  21.001  0.00  0.00    +0.000 C 
ATOM     18  C   UNL     1      -1.715  15.317  22.033  0.00  0.00    +0.000 C 
BRANCH  11  19
ATOM     19  O   UNL     1      -3.047  16.542  24.088  0.00  0.00    +0.000 OA
BRANCH  19  21
ATOM     20  C   UNL     1      -5.260  16.140  23.300  0.00  0.00    +0.000 C 
ATOM     21  C   UNL     1      -4.426  16.693  24.442  0.00  0.00    +0.000 C 
ENDBRANCH  19  21
ENDBRANCH  11  19
ENDBRANCH   1  16
BRANCH  10  22
ATOM     22  C   UNL     1       0.573  11.353  20.165  0.00  0.00    +0.000 C 
BRANCH  22  23
ATOM     23  C   UNL     1       0.845  10.046  20.910  0.00  0.00    +0.000 C 
ATOM     24  O   UNL     1       0.735   9.955  22.135  0.00  0.00    +0.000 OA
ATOM     25  N   UNL     1       1.178   8.927  20.158  0.00  0.00    +0.000 N 
ATOM     26  H   UNL     1       1.200   8.960  19.145  0.00  0.00    +0.000 HD
BRANCH  25  27
ATOM     27  C   UNL     1       1.371   7.642  20.832  0.00  0.00    +0.000 C 
BRANCH  27  28
ATOM     28  C   UNL     1       2.478   6.776  20.225  0.00  0.00    +0.000 C 
BRANCH  28  29
ATOM     29  C   UNL     1       1.951   5.449  19.726  0.00  0.00    +0.000 A 
ATOM     30  C   UNL     1       1.373   4.530  20.617  0.00  0.00    +0.000 A 
ATOM     31  C   UNL     1       0.907   3.296  20.164  0.00  0.00    +0.000 A 
ATOM     32  C   UNL     1       1.012   2.964  18.811  0.00  0.00    +0.000 A 
ATOM     33  C   UNL     1       1.589   3.863  17.918  0.00  0.00    +0.000 A 
ATOM     34  C   UNL     1       2.058   5.099  18.372  0.00  0.00    +0.000 A 
ENDBRANCH  28  29
ENDBRANCH  27  28
ENDBRANCH  25  27
ENDBRANCH  22  23
BRANCH  22  35
ATOM     35  C   UNL     1       1.072  12.628  20.823  0.00  0.00    +0.000 C 
ATOM     36  N   UNL     1       1.488  13.687  21.368  0.00  0.00    +0.000 NA
ENDBRANCH  22  35
ENDBRANCH  10  22
TORSDOF 9
ENDMDL
MODEL 9
REMARK VINA RESULT:      -8.1      1.380      1.778
REMARK  Name = 
REMARK  10 active torsions:
REMARK  status: ('A' for Active; 'I' for Inactive)
REMARK    1  A    between atoms: C_1  and  C_2
REMARK    2  A    between atoms: C_2  and  O_3
REMARK    3  A    between atoms: O_3  and  C_4
REMARK    4  A    between atoms: N_9  and  C_10
REMARK    5  A    between atoms: C_19  and  C_20
REMARK    6  A    between atoms: C_20  and  C_21
REMARK    7  A    between atoms: C_20  and  C_23
REMARK    8  A    between atoms: N_25  and  C_26
REMARK    9  A    between atoms: C_26  and  C_27
REMARK   10  A    between atoms: C_27  and  C_28
REMARK                            x       y       z     vdW  Elec       q    Type
REMARK                         _______ _______ _______ _____ _____    ______ ____
ROOT
ATOM      1  C   UNL     1       5.681   4.103  16.144  0.00  0.00    +0.000 A 
ATOM      2  N   UNL     1       5.585   3.547  14.905  0.00  0.00    +0.000 NA
ATOM      3  C   UNL     1       6.349   4.010  13.889  0.00  0.00    +0.000 A 
ATOM      4  C   UNL     1       6.239   3.465  12.613  0.00  0.00    +0.000 A 
ATOM      5  C   UNL     1       6.991   3.952  11.539  0.00  0.00    +0.000 A 
ATOM      6  C   UNL     1       7.871   5.007  11.738  0.00  0.00    +0.000 A 
ATOM      7  C   UNL     1       7.995   5.554  13.015  0.00  0.00    +0.000 A 
ATOM      8  C   UNL     1       7.251   5.064  14.085  0.00  0.00    +0.000 A 
ATOM      9  N   UNL     1       7.390   5.618  15.293  0.00  0.00    +0.000 NA
ATOM     10  C   UNL     1       6.612   5.140  16.323  0.00  0.00    +0.000 A 
ENDROOT
BRANCH   1  16
ATOM     11  C   UNL     1       1.475   3.143  19.448  0.00  0.00    +0.000 C 
ATOM     12  O   UNL     1       0.582   2.419  19.018  0.00  0.00    +0.000 OA
ATOM     13  N   UNL     1       2.790   3.036  19.065  0.00  0.00    +0.000 N 
ATOM     14  C   UNL     1       3.121   2.117  17.990  0.00  0.00    +0.000 C 
ATOM     15  C   UNL     1       3.546   2.905  16.740  0.00  0.00    +0.000 C 
ATOM     16  N   UNL     1       4.733   3.714  17.082  0.00  0.00    +0.000 N 
ATOM     17  C   UNL     1       4.391   4.724  18.123  0.00  0.00    +0.000 C 
ATOM     18  C   UNL     1       3.844   4.010  19.388  0.00  0.00    +0.000 C 
BRANCH  11  19
ATOM     19  O   UNL     1       1.266   4.180  20.294  0.00  0.00    +0.000 OA
BRANCH  19  21
ATOM     20  C   UNL     1       1.540   2.582  22.040  0.00  0.00    +0.000 C 
ATOM     21  C   UNL     1       1.829   4.006  21.598  0.00  0.00    +0.000 C 
ENDBRANCH  19  21
ENDBRANCH  11  19
ENDBRANCH   1  16
BRANCH  10  22
ATOM     22  C   UNL     1       6.842   5.899  17.598  0.00  0.00    +0.000 C 
BRANCH  22  23
ATOM     23  C   UNL     1       6.956   7.413  17.417  0.00  0.00    +0.000 C 
ATOM     24  O   UNL     1       6.096   8.069  16.826  0.00  0.00    +0.000 OA
ATOM     25  N   UNL     1       8.047   8.054  17.989  0.00  0.00    +0.000 N 
ATOM     26  H   UNL     1       8.727   7.546  18.544  0.00  0.00    +0.000 HD
BRANCH  25  27
ATOM     27  C   UNL     1       8.149   9.512  17.900  0.00  0.00    +0.000 C 
BRANCH  27  28
ATOM     28  C   UNL     1       9.177  10.127  18.854  0.00  0.00    +0.000 C 
BRANCH  28  29
ATOM     29  C   UNL     1       9.711  11.445  18.339  0.00  0.00    +0.000 A 
ATOM     30  C   UNL     1      11.033  11.547  17.875  0.00  0.00    +0.000 A 
ATOM     31  C   UNL     1      11.537  12.766  17.421  0.00  0.00    +0.000 A 
ATOM     32  C   UNL     1      10.723  13.901  17.423  0.00  0.00    +0.000 A 
ATOM     33  C   UNL     1       9.412  13.816  17.885  0.00  0.00    +0.000 A 
ATOM     34  C   UNL     1       8.909  12.595  18.343  0.00  0.00    +0.000 A 
ENDBRANCH  28  29
ENDBRANCH  27  28
ENDBRANCH  25  27
ENDBRANCH  22  23
BRANCH  22  35
ATOM     35  C   UNL     1       7.816   5.255  18.571  0.00  0.00    +0.000 C 
ATOM     36  N   UNL     1       8.623   4.719  19.379  0.00  0.00    +0.000 NA
ENDBRANCH  22  35
ENDBRANCH  10  22
TORSDOF 9
ENDMDL
