MODEL 1
REMARK VINA RESULT:      -6.2      0.000      0.000
REMARK  Name = 
REMARK  3 active torsions:
REMARK  status: ('A' for Active; 'I' for Inactive)
REMARK    1  A    between atoms: C_2  and  C_3
REMARK    2  A    between atoms: C_8  and  N_9
REMARK    3  A    between atoms: C_13  and  C_14
REMARK                            x       y       z     vdW  Elec       q    Type
REMARK                         _______ _______ _______ _____ _____    ______ ____
ROOT
ATOM      1  N   UNL     1       4.172   5.037  17.532  0.00  0.00    +0.000 N 
ATOM      2  C   UNL     1       3.310   6.219  17.462  0.00  0.00    +0.000 C 
ATOM      3  C   UNL     1       1.961   5.948  18.145  0.00  0.00    +0.000 C 
ATOM      4  O   UNL     1       1.321   4.752  17.676  0.00  0.00    +0.000 OA
ATOM      5  C   UNL     1       2.158   3.578  17.835  0.00  0.00    +0.000 C 
ATOM      6  C   UNL     1       3.517   3.778  17.131  0.00  0.00    +0.000 C 
ENDROOT
BRANCH   1  12
ATOM      7  C   UNL     1       6.560   4.641  17.051  0.00  0.00    +0.000 A 
ATOM      8  C   UNL     1       7.879   4.674  17.536  0.00  0.00    +0.000 A 
ATOM      9  C   UNL     1       8.130   5.076  18.836  0.00  0.00    +0.000 A 
ATOM     10  C   UNL     1       7.047   5.431  19.607  0.00  0.00    +0.000 A 
ATOM     11  N   UNL     1       5.769   5.399  19.165  0.00  0.00    +0.000 NA
ATOM     12  C   UNL     1       5.499   5.019  17.888  0.00  0.00    +0.000 A 
BRANCH   7  14
ATOM     13  N   UNL     1       6.219   3.765  14.637  0.00  0.00    +0.000 NA
ATOM     14  C   UNL     1       6.374   4.142  15.725  0.00  0.00    +0.000 C 
ENDBRANCH   7  14
ENDBRANCH   1  12
BRANCH   5  15
ATOM     15  C   UNL     1       2.247   3.171  19.294  0.00  0.00    +0.000 A 
ATOM     16  N   UNL     1       3.348   2.809  19.929  0.00  0.00    +0.000 NA
ATOM     17  C   UNL     1       3.071   2.515  21.245  0.00  0.00    +0.000 A 
ATOM     18  C   UNL     1       1.762   2.691  21.629  0.00  0.00    +0.000 A 
ATOM     19  S   UNL     1       0.842   3.255  20.301  0.00  0.00    +0.000 S 
ENDBRANCH   5  15
TORSDOF 3
ENDMDL
MODEL 2
REMARK VINA RESULT:      -6.0      1.329      2.552
REMARK  Name = 
REMARK  3 active torsions:
REMARK  status: ('A' for Active; 'I' for Inactive)
REMARK    1  A    between atoms: C_2  and  C_3
REMARK    2  A    between atoms: C_8  and  N_9
REMARK    3  A    between atoms: C_13  and  C_14
REMARK                            x       y       z     vdW  Elec       q    Type
REMARK                         _______ _______ _______ _____ _____    ______ ____
ROOT
ATOM      1  N   UNL     1       3.731   5.337  17.396  0.00  0.00    +0.000 N 
ATOM      2  C   UNL     1       3.452   6.551  18.168  0.00  0.00    +0.000 C 
ATOM      3  C   UNL     1       2.846   6.198  19.534  0.00  0.00    +0.000 C 
ATOM      4  O   UNL     1       1.719   5.313  19.440  0.00  0.00    +0.000 OA
ATOM      5  C   UNL     1       2.040   4.079  18.749  0.00  0.00    +0.000 C 
ATOM      6  C   UNL     1       2.617   4.373  17.348  0.00  0.00    +0.000 C 
ENDROOT
BRANCH   1  12
ATOM      7  C   UNL     1       6.160   4.909  17.286  0.00  0.00    +0.000 A 
ATOM      8  C   UNL     1       7.267   4.618  16.471  0.00  0.00    +0.000 A 
ATOM      9  C   UNL     1       7.105   4.484  15.103  0.00  0.00    +0.000 A 
ATOM     10  C   UNL     1       5.836   4.647  14.599  0.00  0.00    +0.000 A 
ATOM     11  N   UNL     1       4.757   4.935  15.363  0.00  0.00    +0.000 NA
ATOM     12  C   UNL     1       4.889   5.060  16.710  0.00  0.00    +0.000 A 
BRANCH   7  14
ATOM     13  N   UNL     1       6.624   5.302  19.804  0.00  0.00    +0.000 NA
ATOM     14  C   UNL     1       6.419   5.109  18.677  0.00  0.00    +0.000 C 
ENDBRANCH   7  14
ENDBRANCH   1  12
BRANCH   5  15
ATOM     15  C   UNL     1       2.897   3.180  19.620  0.00  0.00    +0.000 A 
ATOM     16  N   UNL     1       4.056   2.646  19.272  0.00  0.00    +0.000 NA
ATOM     17  C   UNL     1       4.568   1.893  20.305  0.00  0.00    +0.000 A 
ATOM     18  C   UNL     1       3.821   1.883  21.460  0.00  0.00    +0.000 A 
ATOM     19  S   UNL     1       2.430   2.860  21.255  0.00  0.00    +0.000 S 
ENDBRANCH   5  15
TORSDOF 3
ENDMDL
MODEL 3
REMARK VINA RESULT:      -6.0      2.751      5.778
REMARK  Name = 
REMARK  3 active torsions:
REMARK  status: ('A' for Active; 'I' for Inactive)
REMARK    1  A    between atoms: C_2  and  C_3
REMARK    2  A    between atoms: C_8  and  N_9
REMARK    3  A    between atoms: C_13  and  C_14
REMARK                            x       y       z     vdW  Elec       q    Type
REMARK                         _______ _______ _______ _____ _____    ______ ____
ROOT
ATOM      1  N   UNL     1       5.187   5.139  18.174  0.00  0.00    +0.000 N 
ATOM      2  C   UNL     1       5.379   6.582  18.339  0.00  0.00    +0.000 C 
ATOM      3  C   UNL     1       6.395   7.114  17.318  0.00  0.00    +0.000 C 
ATOM      4  O   UNL     1       7.626   6.376  17.308  0.00  0.00    +0.000 OA
ATOM      5  C   UNL     1       7.422   4.962  17.055  0.00  0.00    +0.000 C 
ATOM      6  C   UNL     1       6.437   4.362  18.081  0.00  0.00    +0.000 C 
ENDROOT
BRANCH   1  12
ATOM      7  C   UNL     1       2.723   5.090  18.047  0.00  0.00    +0.000 A 
ATOM      8  C   UNL     1       1.562   4.298  18.015  0.00  0.00    +0.000 A 
ATOM      9  C   UNL     1       1.661   2.919  18.080  0.00  0.00    +0.000 A 
ATOM     10  C   UNL     1       2.923   2.381  18.176  0.00  0.00    +0.000 A 
ATOM     11  N   UNL     1       4.054   3.123  18.216  0.00  0.00    +0.000 NA
ATOM     12  C   UNL     1       3.982   4.478  18.141  0.00  0.00    +0.000 A 
BRANCH   7  14
ATOM     13  N   UNL     1       2.353   7.654  18.062  0.00  0.00    +0.000 NA
ATOM     14  C   UNL     1       2.536   6.506  18.054  0.00  0.00    +0.000 C 
ENDBRANCH   7  14
ENDBRANCH   1  12
BRANCH   5  15
ATOM     15  C   UNL     1       7.059   4.720  15.602  0.00  0.00    +0.000 A 
ATOM     16  N   UNL     1       7.635   5.289  14.557  0.00  0.00    +0.000 NA
ATOM     17  C   UNL     1       7.067   4.836  13.387  0.00  0.00    +0.000 A 
ATOM     18  C   UNL     1       6.082   3.888  13.535  0.00  0.00    +0.000 A 
ATOM     19  S   UNL     1       5.860   3.539  15.196  0.00  0.00    +0.000 S 
ENDBRANCH   5  15
TORSDOF 3
ENDMDL
MODEL 4
REMARK VINA RESULT:      -5.9      2.612      5.679
REMARK  Name = 
REMARK  3 active torsions:
REMARK  status: ('A' for Active; 'I' for Inactive)
REMARK    1  A    between atoms: C_2  and  C_3
REMARK    2  A    between atoms: C_8  and  N_9
REMARK    3  A    between atoms: C_13  and  C_14
REMARK                            x       y       z     vdW  Elec       q    Type
REMARK                         _______ _______ _______ _____ _____    ______ ____
ROOT
ATOM      1  N   UNL     1       5.058   4.882  18.606  0.00  0.00    +0.000 N 
ATOM      2  C   UNL     1       5.266   6.310  18.864  0.00  0.00    +0.000 C 
ATOM      3  C   UNL     1       6.286   6.896  17.877  0.00  0.00    +0.000 C 
ATOM      4  O   UNL     1       7.509   6.147  17.817  0.00  0.00    +0.000 OA
ATOM      5  C   UNL     1       7.289   4.755  17.474  0.00  0.00    +0.000 C 
ATOM      6  C   UNL     1       6.299   4.100  18.461  0.00  0.00    +0.000 C 
ENDROOT
BRANCH   1  12
ATOM      7  C   UNL     1       3.491   3.090  19.258  0.00  0.00    +0.000 A 
ATOM      8  C   UNL     1       2.212   2.530  19.099  0.00  0.00    +0.000 A 
ATOM      9  C   UNL     1       1.305   3.108  18.227  0.00  0.00    +0.000 A 
ATOM     10  C   UNL     1       1.715   4.230  17.543  0.00  0.00    +0.000 A 
ATOM     11  N   UNL     1       2.943   4.782  17.674  0.00  0.00    +0.000 NA
ATOM     12  C   UNL     1       3.846   4.238  18.533  0.00  0.00    +0.000 A 
BRANCH   7  14
ATOM     13  N   UNL     1       5.131   1.851  20.834  0.00  0.00    +0.000 NA
ATOM     14  C   UNL     1       4.396   2.394  20.117  0.00  0.00    +0.000 C 
ENDBRANCH   7  14
ENDBRANCH   1  12
BRANCH   5  15
ATOM     15  C   UNL     1       6.921   4.611  16.009  0.00  0.00    +0.000 A 
ATOM     16  N   UNL     1       7.522   5.217  14.999  0.00  0.00    +0.000 NA
ATOM     17  C   UNL     1       6.941   4.854  13.805  0.00  0.00    +0.000 A 
ATOM     18  C   UNL     1       5.920   3.938  13.896  0.00  0.00    +0.000 A 
ATOM     19  S   UNL     1       5.681   3.502  15.534  0.00  0.00    +0.000 S 
ENDBRANCH   5  15
TORSDOF 3
ENDMDL
MODEL 5
REMARK VINA RESULT:      -5.8      2.260      3.403
REMARK  Name = 
REMARK  3 active torsions:
REMARK  status: ('A' for Active; 'I' for Inactive)
REMARK    1  A    between atoms: C_2  and  C_3
REMARK    2  A    between atoms: C_8  and  N_9
REMARK    3  A    between atoms: C_13  and  C_14
REMARK                            x       y       z     vdW  Elec       q    Type
REMARK                         _______ _______ _______ _____ _____    ______ ____
ROOT
ATOM      1  N   UNL     1       4.563   4.868  18.729  0.00  0.00    +0.000 N 
ATOM      2  C   UNL     1       3.958   4.032  17.689  0.00  0.00    +0.000 C 
ATOM      3  C   UNL     1       2.496   4.439  17.447  0.00  0.00    +0.000 C 
ATOM      4  O   UNL     1       1.719   4.494  18.653  0.00  0.00    +0.000 OA
ATOM      5  C   UNL     1       2.289   5.395  19.637  0.00  0.00    +0.000 C 
ATOM      6  C   UNL     1       3.750   5.008  19.951  0.00  0.00    +0.000 C 
ENDROOT
BRANCH   1  12
ATOM      7  C   UNL     1       6.235   6.324  17.646  0.00  0.00    +0.000 A 
ATOM      8  C   UNL     1       7.523   6.886  17.708  0.00  0.00    +0.000 A 
ATOM      9  C   UNL     1       8.356   6.595  18.775  0.00  0.00    +0.000 A 
ATOM     10  C   UNL     1       7.867   5.749  19.744  0.00  0.00    +0.000 A 
ATOM     11  N   UNL     1       6.636   5.191  19.702  0.00  0.00    +0.000 NA
ATOM     12  C   UNL     1       5.796   5.471  18.670  0.00  0.00    +0.000 A 
BRANCH   7  14
ATOM     13  N   UNL     1       4.863   6.836  15.510  0.00  0.00    +0.000 NA
ATOM     14  C   UNL     1       5.464   6.609  16.478  0.00  0.00    +0.000 C 
ENDBRANCH   7  14
ENDBRANCH   1  12
BRANCH   5  15
ATOM     15  C   UNL     1       2.084   6.842  19.228  0.00  0.00    +0.000 A 
ATOM     16  N   UNL     1       2.272   7.336  18.016  0.00  0.00    +0.000 NA
ATOM     17  C   UNL     1       1.984   8.682  17.995  0.00  0.00    +0.000 A 
ATOM     18  C   UNL     1       1.535   9.212  19.182  0.00  0.00    +0.000 A 
ATOM     19  S   UNL     1       1.459   7.982  20.370  0.00  0.00    +0.000 S 
ENDBRANCH   5  15
TORSDOF 3
ENDMDL
MODEL 6
REMARK VINA RESULT:      -5.7      1.938      2.480
REMARK  Name = 
REMARK  3 active torsions:
REMARK  status: ('A' for Active; 'I' for Inactive)
REMARK    1  A    between atoms: C_2  and  C_3
REMARK    2  A    between atoms: C_8  and  N_9
REMARK    3  A    between atoms: C_13  and  C_14
REMARK                            x       y       z     vdW  Elec       q    Type
REMARK                         _______ _______ _______ _____ _____    ______ ____
ROOT
ATOM      1  N   UNL     1       5.380   4.185  18.031  0.00  0.00    +0.000 N 
ATOM      2  C   UNL     1       4.751   3.764  16.777  0.00  0.00    +0.000 C 
ATOM      3  C   UNL     1       3.232   3.617  16.954  0.00  0.00    +0.000 C 
ATOM      4  O   UNL     1       2.871   2.795  18.074  0.00  0.00    +0.000 OA
ATOM      5  C   UNL     1       3.433   3.280  19.320  0.00  0.00    +0.000 C 
ATOM      6  C   UNL     1       4.967   3.408  19.214  0.00  0.00    +0.000 C 
ENDROOT
BRANCH   1  12
ATOM      7  C   UNL     1       6.431   6.313  17.355  0.00  0.00    +0.000 A 
ATOM      8  C   UNL     1       7.432   7.266  17.613  0.00  0.00    +0.000 A 
ATOM      9  C   UNL     1       8.304   7.086  18.673  0.00  0.00    +0.000 A 
ATOM     10  C   UNL     1       8.141   5.953  19.438  0.00  0.00    +0.000 A 
ATOM     11  N   UNL     1       7.191   5.019  19.203  0.00  0.00    +0.000 NA
ATOM     12  C   UNL     1       6.316   5.181  18.175  0.00  0.00    +0.000 A 
BRANCH   7  14
ATOM     13  N   UNL     1       4.984   6.723  15.245  0.00  0.00    +0.000 NA
ATOM     14  C   UNL     1       5.621   6.530  16.198  0.00  0.00    +0.000 C 
ENDBRANCH   7  14
ENDBRANCH   1  12
BRANCH   5  15
ATOM     15  C   UNL     1       2.716   4.534  19.784  0.00  0.00    +0.000 A 
ATOM     16  N   UNL     1       3.139   5.775  19.610  0.00  0.00    +0.000 NA
ATOM     17  C   UNL     1       2.241   6.670  20.146  0.00  0.00    +0.000 A 
ATOM     18  C   UNL     1       1.107   6.117  20.694  0.00  0.00    +0.000 A 
ATOM     19  S   UNL     1       1.157   4.414  20.527  0.00  0.00    +0.000 S 
ENDBRANCH   5  15
TORSDOF 3
ENDMDL
MODEL 7
REMARK VINA RESULT:      -5.7      2.027      3.853
REMARK  Name = 
REMARK  3 active torsions:
REMARK  status: ('A' for Active; 'I' for Inactive)
REMARK    1  A    between atoms: C_2  and  C_3
REMARK    2  A    between atoms: C_8  and  N_9
REMARK    3  A    between atoms: C_13  and  C_14
REMARK                            x       y       z     vdW  Elec       q    Type
REMARK                         _______ _______ _______ _____ _____    ______ ____
ROOT
ATOM      1  N   UNL     1       4.589   3.982  17.853  0.00  0.00    +0.000 N 
ATOM      2  C   UNL     1       3.480   3.025  17.882  0.00  0.00    +0.000 C 
ATOM      3  C   UNL     1       2.249   3.642  18.563  0.00  0.00    +0.000 C 
ATOM      4  O   UNL     1       2.541   4.211  19.849  0.00  0.00    +0.000 OA
ATOM      5  C   UNL     1       3.582   5.219  19.784  0.00  0.00    +0.000 C 
ATOM      6  C   UNL     1       4.861   4.642  19.143  0.00  0.00    +0.000 C 
ENDROOT
BRANCH   1  12
ATOM      7  C   UNL     1       6.744   4.619  16.832  0.00  0.00    +0.000 A 
ATOM      8  C   UNL     1       7.453   4.882  15.647  0.00  0.00    +0.000 A 
ATOM      9  C   UNL     1       6.812   4.796  14.423  0.00  0.00    +0.000 A 
ATOM     10  C   UNL     1       5.481   4.451  14.431  0.00  0.00    +0.000 A 
ATOM     11  N   UNL     1       4.776   4.202  15.558  0.00  0.00    +0.000 NA
ATOM     12  C   UNL     1       5.387   4.268  16.771  0.00  0.00    +0.000 A 
BRANCH   7  14
ATOM     13  N   UNL     1       8.054   4.956  19.041  0.00  0.00    +0.000 NA
ATOM     14  C   UNL     1       7.452   4.803  18.060  0.00  0.00    +0.000 C 
ENDBRANCH   7  14
ENDBRANCH   1  12
BRANCH   5  15
ATOM     15  C   UNL     1       3.062   6.491  19.142  0.00  0.00    +0.000 A 
ATOM     16  N   UNL     1       3.350   6.915  17.923  0.00  0.00    +0.000 NA
ATOM     17  C   UNL     1       2.700   8.100  17.658  0.00  0.00    +0.000 A 
ATOM     18  C   UNL     1       1.881   8.563  18.660  0.00  0.00    +0.000 A 
ATOM     19  S   UNL     1       1.912   7.476  19.981  0.00  0.00    +0.000 S 
ENDBRANCH   5  15
TORSDOF 3
ENDMDL
MODEL 8
REMARK VINA RESULT:      -5.6      2.686      5.071
REMARK  Name = 
REMARK  3 active torsions:
REMARK  status: ('A' for Active; 'I' for Inactive)
REMARK    1  A    between atoms: C_2  and  C_3
REMARK    2  A    between atoms: C_8  and  N_9
REMARK    3  A    between atoms: C_13  and  C_14
REMARK                            x       y       z     vdW  Elec       q    Type
REMARK                         _______ _______ _______ _____ _____    ______ ____
ROOT
ATOM      1  N   UNL     1       3.403   4.665  17.830  0.00  0.00    +0.000 N 
ATOM      2  C   UNL     1       3.690   3.781  16.697  0.00  0.00    +0.000 C 
ATOM      3  C   UNL     1       5.029   4.156  16.043  0.00  0.00    +0.000 C 
ATOM      4  O   UNL     1       5.125   5.549  15.713  0.00  0.00    +0.000 OA
ATOM      5  C   UNL     1       4.924   6.406  16.867  0.00  0.00    +0.000 C 
ATOM      6  C   UNL     1       3.571   6.101  17.543  0.00  0.00    +0.000 C 
ENDROOT
BRANCH   1  12
ATOM      7  C   UNL     1       3.080   2.982  19.606  0.00  0.00    +0.000 A 
ATOM      8  C   UNL     1       2.599   2.713  20.899  0.00  0.00    +0.000 A 
ATOM      9  C   UNL     1       2.013   3.721  21.644  0.00  0.00    +0.000 A 
ATOM     10  C   UNL     1       1.929   4.966  21.065  0.00  0.00    +0.000 A 
ATOM     11  N   UNL     1       2.377   5.246  19.820  0.00  0.00    +0.000 NA
ATOM     12  C   UNL     1       2.967   4.275  19.074  0.00  0.00    +0.000 A 
BRANCH   7  14
ATOM     13  N   UNL     1       4.001   0.955  18.281  0.00  0.00    +0.000 NA
ATOM     14  C   UNL     1       3.602   1.873  18.870  0.00  0.00    +0.000 C 
ENDBRANCH   7  14
ENDBRANCH   1  12
BRANCH   5  15
ATOM     15  C   UNL     1       6.126   6.359  17.791  0.00  0.00    +0.000 A 
ATOM     16  N   UNL     1       6.300   5.510  18.790  0.00  0.00    +0.000 NA
ATOM     17  C   UNL     1       7.506   5.741  19.414  0.00  0.00    +0.000 A 
ATOM     18  C   UNL     1       8.275   6.741  18.868  0.00  0.00    +0.000 A 
ATOM     19  S   UNL     1       7.470   7.415  17.516  0.00  0.00    +0.000 S 
ENDBRANCH   5  15
TORSDOF 3
ENDMDL
MODEL 9
REMARK VINA RESULT:      -5.5      3.121      5.894
REMARK  Name = 
REMARK  3 active torsions:
REMARK  status: ('A' for Active; 'I' for Inactive)
REMARK    1  A    between atoms: C_2  and  C_3
REMARK    2  A    between atoms: C_8  and  N_9
REMARK    3  A    between atoms: C_13  and  C_14
REMARK                            x       y       z     vdW  Elec       q    Type
REMARK                         _______ _______ _______ _____ _____    ______ ____
ROOT
ATOM      1  N   UNL     1       5.157   5.077  17.797  0.00  0.00    +0.000 N 
ATOM      2  C   UNL     1       5.307   6.535  17.812  0.00  0.00    +0.000 C 
ATOM      3  C   UNL     1       6.219   6.998  16.666  0.00  0.00    +0.000 C 
ATOM      4  O   UNL     1       7.472   6.299  16.624  0.00  0.00    +0.000 OA
ATOM      5  C   UNL     1       7.301   4.862  16.521  0.00  0.00    +0.000 C 
ATOM      6  C   UNL     1       6.423   4.333  17.675  0.00  0.00    +0.000 C 
ENDROOT
BRANCH   1  12
ATOM      7  C   UNL     1       2.708   4.956  18.085  0.00  0.00    +0.000 A 
ATOM      8  C   UNL     1       1.576   4.130  18.197  0.00  0.00    +0.000 A 
ATOM      9  C   UNL     1       1.715   2.753  18.152  0.00  0.00    +0.000 A 
ATOM     10  C   UNL     1       2.987   2.252  17.997  0.00  0.00    +0.000 A 
ATOM     11  N   UNL     1       4.091   3.027  17.895  0.00  0.00    +0.000 NA
ATOM     12  C   UNL     1       3.978   4.381  17.925  0.00  0.00    +0.000 A 
BRANCH   7  14
ATOM     13  N   UNL     1       2.307   7.501  18.353  0.00  0.00    +0.000 NA
ATOM     14  C   UNL     1       2.494   6.362  18.218  0.00  0.00    +0.000 C 
ENDBRANCH   7  14
ENDBRANCH   1  12
BRANCH   5  15
ATOM     15  C   UNL     1       6.835   4.472  15.131  0.00  0.00    +0.000 A 
ATOM     16  N   UNL     1       5.759   3.756  14.850  0.00  0.00    +0.000 NA
ATOM     17  C   UNL     1       5.629   3.597  13.489  0.00  0.00    +0.000 A 
ATOM     18  C   UNL     1       6.582   4.226  12.724  0.00  0.00    +0.000 A 
ATOM     19  S   UNL     1       7.680   5.058  13.740  0.00  0.00    +0.000 S 
ENDBRANCH   5  15
TORSDOF 3
ENDMDL
