MODEL 1
REMARK VINA RESULT:      -8.2      0.000      0.000
REMARK  Name = 
REMARK  7 active torsions:
REMARK  status: ('A' for Active; 'I' for Inactive)
REMARK    1  A    between atoms: C_1  and  C_2
REMARK    2  A    between atoms: C_2  and  C_3
REMARK    3  A    between atoms: C_9  and  O_10
REMARK    4  A    between atoms: O_10  and  C_11
REMARK    5  A    between atoms: C_14  and  S_15
REMARK    6  A    between atoms: S_15  and  N_18
REMARK    7  A    between atoms: C_27  and  C_28
REMARK                            x       y       z     vdW  Elec       q    Type
REMARK                         _______ _______ _______ _____ _____    ______ ____
ROOT
ATOM      1  C   UNL     1       2.919   6.621  18.349  0.00  0.00    +0.000 A 
ATOM      2  C   UNL     1       2.993   7.821  17.615  0.00  0.00    +0.000 A 
ATOM      3  C   UNL     1       2.266   8.944  18.013  0.00  0.00    +0.000 A 
ATOM      4  C   UNL     1       1.535   8.907  19.201  0.00  0.00    +0.000 A 
ATOM      5  C   UNL     1       1.594   7.777  20.029  0.00  0.00    +0.000 A 
ATOM      6  C   UNL     1       2.276   6.621  19.595  0.00  0.00    +0.000 A 
ENDROOT
BRANCH   4   7
ATOM      7  S   UNL     1       0.575  10.341  19.675  0.00  0.00    +0.000 S 
ATOM      8  O   UNL     1      -0.509   9.886  20.516  0.00  0.00    +0.000 OA
ATOM      9  O   UNL     1       1.514  11.343  20.129  0.00  0.00    +0.000 OA
BRANCH   7  10
ATOM     10  N   UNL     1      -0.050  10.910  18.205  0.00  0.00    +0.000 N 
ATOM     11  C   UNL     1      -1.451  10.920  18.098  0.00  0.00    +0.000 A 
ATOM     12  C   UNL     1      -2.220  11.950  18.621  0.00  0.00    +0.000 A 
ATOM     13  C   UNL     1      -3.603  11.863  18.487  0.00  0.00    +0.000 A 
ATOM     14  C   UNL     1      -4.145  10.751  17.859  0.00  0.00    +0.000 A 
ATOM     15  F   UNL     1      -5.470  10.631  17.718  0.00  0.00    +0.000 F 
ATOM     16  C   UNL     1      -3.293   9.768  17.380  0.00  0.00    +0.000 A 
ATOM     17  N   UNL     1      -1.940   9.828  17.485  0.00  0.00    +0.000 NA
ATOM     18  H   UNL     1       0.370  10.414  17.420  0.00  0.00    +0.000 HD
ENDBRANCH   7  10
ENDBRANCH   4   7
BRANCH   6  19
ATOM     19  C   UNL     1       2.264   5.452  20.427  0.00  0.00    +0.000 C 
ATOM     20  N   UNL     1       2.277   4.530  21.134  0.00  0.00    +0.000 NA
ENDBRANCH   6  19
BRANCH   1  21
ATOM     21  O   UNL     1       3.420   5.430  17.824  0.00  0.00    +0.000 OA
BRANCH  21  28
ATOM     22  C   UNL     1       5.488   4.840  16.695  0.00  0.00    +0.000 A 
ATOM     23  C   UNL     1       6.854   4.507  16.817  0.00  0.00    +0.000 A 
ATOM     24  C   UNL     1       7.518   4.640  18.034  0.00  0.00    +0.000 A 
ATOM     25  F   UNL     1       8.803   4.271  18.128  0.00  0.00    +0.000 F 
ATOM     26  C   UNL     1       6.874   5.162  19.137  0.00  0.00    +0.000 A 
ATOM     27  C   UNL     1       5.532   5.514  19.032  0.00  0.00    +0.000 A 
ATOM     28  C   UNL     1       4.803   5.269  17.849  0.00  0.00    +0.000 A 
BRANCH  22  30
ATOM     29  C   UNL     1       5.761   4.178  14.227  0.00  0.00    +0.000 C 
ATOM     30  C   UNL     1       4.888   4.783  15.309  0.00  0.00    +0.000 C 
ENDBRANCH  22  30
ENDBRANCH  21  28
ENDBRANCH   1  21
TORSDOF 6
ENDMDL
MODEL 2
REMARK VINA RESULT:      -8.0      2.614      9.057
REMARK  Name = 
REMARK  7 active torsions:
REMARK  status: ('A' for Active; 'I' for Inactive)
REMARK    1  A    between atoms: C_1  and  C_2
REMARK    2  A    between atoms: C_2  and  C_3
REMARK    3  A    between atoms: C_9  and  O_10
REMARK    4  A    between atoms: O_10  and  C_11
REMARK    5  A    between atoms: C_14  and  S_15
REMARK    6  A    between atoms: S_15  and  N_18
REMARK    7  A    between atoms: C_27  and  C_28
REMARK                            x       y       z     vdW  Elec       q    Type
REMARK                         _______ _______ _______ _____ _____    ______ ____
ROOT
ATOM      1  C   UNL     1       1.257   9.667  19.645  0.00  0.00    +0.000 A 
ATOM      2  C   UNL     1       1.545   9.124  18.377  0.00  0.00    +0.000 A 
ATOM      3  C   UNL     1       2.066   7.835  18.258  0.00  0.00    +0.000 A 
ATOM      4  C   UNL     1       2.213   7.042  19.397  0.00  0.00    +0.000 A 
ATOM      5  C   UNL     1       1.766   7.508  20.641  0.00  0.00    +0.000 A 
ATOM      6  C   UNL     1       1.300   8.832  20.771  0.00  0.00    +0.000 A 
ENDROOT
BRANCH   4   7
ATOM      7  S   UNL     1       2.921   5.407  19.231  0.00  0.00    +0.000 S 
ATOM      8  O   UNL     1       2.749   4.723  20.492  0.00  0.00    +0.000 OA
ATOM      9  O   UNL     1       2.413   4.853  17.995  0.00  0.00    +0.000 OA
BRANCH   7  10
ATOM     10  N   UNL     1       4.569   5.708  18.971  0.00  0.00    +0.000 N 
ATOM     11  C   UNL     1       5.028   5.511  17.658  0.00  0.00    +0.000 A 
ATOM     12  C   UNL     1       4.876   6.478  16.674  0.00  0.00    +0.000 A 
ATOM     13  C   UNL     1       5.343   6.185  15.395  0.00  0.00    +0.000 A 
ATOM     14  C   UNL     1       5.915   4.943  15.161  0.00  0.00    +0.000 A 
ATOM     15  F   UNL     1       6.367   4.624  13.943  0.00  0.00    +0.000 F 
ATOM     16  C   UNL     1       6.010   4.039  16.208  0.00  0.00    +0.000 A 
ATOM     17  N   UNL     1       5.575   4.297  17.468  0.00  0.00    +0.000 NA
ATOM     18  H   UNL     1       5.139   5.188  19.637  0.00  0.00    +0.000 HD
ENDBRANCH   7  10
ENDBRANCH   4   7
BRANCH   6  19
ATOM     19  C   UNL     1       0.914   9.311  22.068  0.00  0.00    +0.000 C 
ATOM     20  N   UNL     1       0.558   9.687  23.108  0.00  0.00    +0.000 NA
ENDBRANCH   6  19
BRANCH   1  21
ATOM     21  O   UNL     1       0.992  11.027  19.796  0.00  0.00    +0.000 OA
BRANCH  21  28
ATOM     22  C   UNL     1      -1.011  12.208  20.501  0.00  0.00    +0.000 A 
ATOM     23  C   UNL     1      -2.387  12.442  20.291  0.00  0.00    +0.000 A 
ATOM     24  C   UNL     1      -3.029  11.966  19.150  0.00  0.00    +0.000 A 
ATOM     25  F   UNL     1      -4.346  12.166  19.003  0.00  0.00    +0.000 F 
ATOM     26  C   UNL     1      -2.322  11.310  18.164  0.00  0.00    +0.000 A 
ATOM     27  C   UNL     1      -0.961  11.086  18.343  0.00  0.00    +0.000 A 
ATOM     28  C   UNL     1      -0.314  11.442  19.546  0.00  0.00    +0.000 A 
BRANCH  22  30
ATOM     29  C   UNL     1      -1.193  12.857  22.981  0.00  0.00    +0.000 C 
ATOM     30  C   UNL     1      -0.377  12.869  21.703  0.00  0.00    +0.000 C 
ENDBRANCH  22  30
ENDBRANCH  21  28
ENDBRANCH   1  21
TORSDOF 6
ENDMDL
MODEL 3
REMARK VINA RESULT:      -8.0      1.009      1.289
REMARK  Name = 
REMARK  7 active torsions:
REMARK  status: ('A' for Active; 'I' for Inactive)
REMARK    1  A    between atoms: C_1  and  C_2
REMARK    2  A    between atoms: C_2  and  C_3
REMARK    3  A    between atoms: C_9  and  O_10
REMARK    4  A    between atoms: O_10  and  C_11
REMARK    5  A    between atoms: C_14  and  S_15
REMARK    6  A    between atoms: S_15  and  N_18
REMARK    7  A    between atoms: C_27  and  C_28
REMARK                            x       y       z     vdW  Elec       q    Type
REMARK                         _______ _______ _______ _____ _____    ______ ____
ROOT
ATOM      1  C   UNL     1       2.988   6.733  18.381  0.00  0.00    +0.000 A 
ATOM      2  C   UNL     1       3.107   7.951  17.683  0.00  0.00    +0.000 A 
ATOM      3  C   UNL     1       2.410   9.084  18.106  0.00  0.00    +0.000 A 
ATOM      4  C   UNL     1       1.663   9.034  19.285  0.00  0.00    +0.000 A 
ATOM      5  C   UNL     1       1.679   7.879  20.079  0.00  0.00    +0.000 A 
ATOM      6  C   UNL     1       2.331   6.717  19.619  0.00  0.00    +0.000 A 
ENDROOT
BRANCH   4   7
ATOM      7  S   UNL     1       0.741  10.482  19.790  0.00  0.00    +0.000 S 
ATOM      8  O   UNL     1       1.152  10.819  21.134  0.00  0.00    +0.000 OA
ATOM      9  O   UNL     1       0.836  11.438  18.708  0.00  0.00    +0.000 OA
BRANCH   7  10
ATOM     10  N   UNL     1      -0.868   9.947  19.808  0.00  0.00    +0.000 N 
ATOM     11  C   UNL     1      -1.639  10.288  18.684  0.00  0.00    +0.000 A 
ATOM     12  C   UNL     1      -1.591   9.550  17.509  0.00  0.00    +0.000 A 
ATOM     13  C   UNL     1      -2.374   9.976  16.439  0.00  0.00    +0.000 A 
ATOM     14  C   UNL     1      -3.144  11.121  16.589  0.00  0.00    +0.000 A 
ATOM     15  F   UNL     1      -3.903  11.563  15.581  0.00  0.00    +0.000 F 
ATOM     16  C   UNL     1      -3.114  11.796  17.799  0.00  0.00    +0.000 A 
ATOM     17  N   UNL     1      -2.371  11.401  18.865  0.00  0.00    +0.000 NA
ATOM     18  H   UNL     1      -1.333  10.235  20.668  0.00  0.00    +0.000 HD
ENDBRANCH   7  10
ENDBRANCH   4   7
BRANCH   6  19
ATOM     19  C   UNL     1       2.274   5.525  20.416  0.00  0.00    +0.000 C 
ATOM     20  N   UNL     1       2.201   4.540  21.030  0.00  0.00    +0.000 NA
ENDBRANCH   6  19
BRANCH   1  21
ATOM     21  O   UNL     1       3.460   5.544  17.827  0.00  0.00    +0.000 OA
BRANCH  21  28
ATOM     22  C   UNL     1       5.541   5.020  16.688  0.00  0.00    +0.000 A 
ATOM     23  C   UNL     1       6.893   4.633  16.805  0.00  0.00    +0.000 A 
ATOM     24  C   UNL     1       7.527   4.608  18.045  0.00  0.00    +0.000 A 
ATOM     25  F   UNL     1       8.798   4.192  18.128  0.00  0.00    +0.000 F 
ATOM     26  C   UNL     1       6.868   5.023  19.183  0.00  0.00    +0.000 A 
ATOM     27  C   UNL     1       5.540   5.427  19.087  0.00  0.00    +0.000 A 
ATOM     28  C   UNL     1       4.837   5.338  17.866  0.00  0.00    +0.000 A 
BRANCH  22  30
ATOM     29  C   UNL     1       5.625   4.263  14.234  0.00  0.00    +0.000 C 
ATOM     30  C   UNL     1       4.977   5.137  15.291  0.00  0.00    +0.000 C 
ENDBRANCH  22  30
ENDBRANCH  21  28
ENDBRANCH   1  21
TORSDOF 6
ENDMDL
MODEL 4
REMARK VINA RESULT:      -7.9      0.983      1.977
REMARK  Name = 
REMARK  7 active torsions:
REMARK  status: ('A' for Active; 'I' for Inactive)
REMARK    1  A    between atoms: C_1  and  C_2
REMARK    2  A    between atoms: C_2  and  C_3
REMARK    3  A    between atoms: C_9  and  O_10
REMARK    4  A    between atoms: O_10  and  C_11
REMARK    5  A    between atoms: C_14  and  S_15
REMARK    6  A    between atoms: S_15  and  N_18
REMARK    7  A    between atoms: C_27  and  C_28
REMARK                            x       y       z     vdW  Elec       q    Type
REMARK                         _______ _______ _______ _____ _____    ______ ____
ROOT
ATOM      1  C   UNL     1       3.022   6.017  18.577  0.00  0.00    +0.000 A 
ATOM      2  C   UNL     1       3.117   7.139  17.730  0.00  0.00    +0.000 A 
ATOM      3  C   UNL     1       2.421   8.312  18.024  0.00  0.00    +0.000 A 
ATOM      4  C   UNL     1       1.701   8.407  19.217  0.00  0.00    +0.000 A 
ATOM      5  C   UNL     1       1.743   7.360  20.149  0.00  0.00    +0.000 A 
ATOM      6  C   UNL     1       2.393   6.152  19.822  0.00  0.00    +0.000 A 
ENDROOT
BRANCH   4   7
ATOM      7  S   UNL     1       0.780   9.903  19.559  0.00  0.00    +0.000 S 
ATOM      8  O   UNL     1      -0.376   9.537  20.345  0.00  0.00    +0.000 OA
ATOM      9  O   UNL     1       1.734  10.884  20.028  0.00  0.00    +0.000 OA
BRANCH   7  10
ATOM     10  N   UNL     1       0.279  10.425  18.026  0.00  0.00    +0.000 N 
ATOM     11  C   UNL     1      -1.103  10.619  17.866  0.00  0.00    +0.000 A 
ATOM     12  C   UNL     1      -1.733  11.785  18.276  0.00  0.00    +0.000 A 
ATOM     13  C   UNL     1      -3.112  11.878  18.097  0.00  0.00    +0.000 A 
ATOM     14  C   UNL     1      -3.787  10.802  17.541  0.00  0.00    +0.000 A 
ATOM     15  F   UNL     1      -5.112  10.853  17.361  0.00  0.00    +0.000 F 
ATOM     16  C   UNL     1      -3.069   9.674  17.175  0.00  0.00    +0.000 A 
ATOM     17  N   UNL     1      -1.725   9.556  17.325  0.00  0.00    +0.000 NA
ATOM     18  H   UNL     1       0.646   9.812  17.299  0.00  0.00    +0.000 HD
ENDBRANCH   7  10
ENDBRANCH   4   7
BRANCH   6  19
ATOM     19  C   UNL     1       2.363   5.069  20.763  0.00  0.00    +0.000 C 
ATOM     20  N   UNL     1       2.369   4.170  21.500  0.00  0.00    +0.000 NA
ENDBRANCH   6  19
BRANCH   1  21
ATOM     21  O   UNL     1       3.490   4.770  18.165  0.00  0.00    +0.000 OA
BRANCH  21  28
ATOM     22  C   UNL     1       5.859   5.148  17.778  0.00  0.00    +0.000 A 
ATOM     23  C   UNL     1       6.895   5.313  16.835  0.00  0.00    +0.000 A 
ATOM     24  C   UNL     1       6.681   5.061  15.482  0.00  0.00    +0.000 A 
ATOM     25  F   UNL     1       7.674   5.271  14.607  0.00  0.00    +0.000 F 
ATOM     26  C   UNL     1       5.466   4.583  15.036  0.00  0.00    +0.000 A 
ATOM     27  C   UNL     1       4.436   4.395  15.953  0.00  0.00    +0.000 A 
ATOM     28  C   UNL     1       4.587   4.765  17.306  0.00  0.00    +0.000 A 
BRANCH  22  30
ATOM     29  C   UNL     1       7.653   5.722  19.524  0.00  0.00    +0.000 C 
ATOM     30  C   UNL     1       6.220   5.322  19.235  0.00  0.00    +0.000 C 
ENDBRANCH  22  30
ENDBRANCH  21  28
ENDBRANCH   1  21
TORSDOF 6
ENDMDL
MODEL 5
REMARK VINA RESULT:      -7.9      2.646      3.000
REMARK  Name = 
REMARK  7 active torsions:
REMARK  status: ('A' for Active; 'I' for Inactive)
REMARK    1  A    between atoms: C_1  and  C_2
REMARK    2  A    between atoms: C_2  and  C_3
REMARK    3  A    between atoms: C_9  and  O_10
REMARK    4  A    between atoms: O_10  and  C_11
REMARK    5  A    between atoms: C_14  and  S_15
REMARK    6  A    between atoms: S_15  and  N_18
REMARK    7  A    between atoms: C_27  and  C_28
REMARK                            x       y       z     vdW  Elec       q    Type
REMARK                         _______ _______ _______ _____ _____    ______ ____
ROOT
ATOM      1  C   UNL     1       2.938   6.654  18.311  0.00  0.00    +0.000 A 
ATOM      2  C   UNL     1       3.041   7.828  17.539  0.00  0.00    +0.000 A 
ATOM      3  C   UNL     1       2.312   8.968  17.879  0.00  0.00    +0.000 A 
ATOM      4  C   UNL     1       1.548   8.976  19.047  0.00  0.00    +0.000 A 
ATOM      5  C   UNL     1       1.577   7.874  19.913  0.00  0.00    +0.000 A 
ATOM      6  C   UNL     1       2.261   6.700  19.537  0.00  0.00    +0.000 A 
ENDROOT
BRANCH   4   7
ATOM      7  S   UNL     1       0.586  10.432  19.446  0.00  0.00    +0.000 S 
ATOM      8  O   UNL     1       1.016  11.497  18.570  0.00  0.00    +0.000 OA
ATOM      9  O   UNL     1      -0.799  10.015  19.506  0.00  0.00    +0.000 OA
BRANCH   7  10
ATOM     10  N   UNL     1       1.041  10.790  21.039  0.00  0.00    +0.000 N 
ATOM     11  C   UNL     1       0.096  11.496  21.802  0.00  0.00    +0.000 A 
ATOM     12  C   UNL     1      -0.963  10.858  22.434  0.00  0.00    +0.000 A 
ATOM     13  C   UNL     1      -1.863  11.644  23.150  0.00  0.00    +0.000 A 
ATOM     14  C   UNL     1      -1.672  13.018  23.181  0.00  0.00    +0.000 A 
ATOM     15  F   UNL     1      -2.520  13.804  23.853  0.00  0.00    +0.000 F 
ATOM     16  C   UNL     1      -0.590  13.562  22.507  0.00  0.00    +0.000 A 
ATOM     17  N   UNL     1       0.311  12.824  21.809  0.00  0.00    +0.000 NA
ATOM     18  H   UNL     1       1.946  11.258  21.058  0.00  0.00    +0.000 HD
ENDBRANCH   7  10
ENDBRANCH   4   7
BRANCH   6  19
ATOM     19  C   UNL     1       2.218   5.560  20.408  0.00  0.00    +0.000 C 
ATOM     20  N   UNL     1       2.227   4.629  21.103  0.00  0.00    +0.000 NA
ENDBRANCH   6  19
BRANCH   1  21
ATOM     21  O   UNL     1       3.444   5.443  17.840  0.00  0.00    +0.000 OA
BRANCH  21  28
ATOM     22  C   UNL     1       5.542   4.949  16.717  0.00  0.00    +0.000 A 
ATOM     23  C   UNL     1       6.905   4.611  16.846  0.00  0.00    +0.000 A 
ATOM     24  C   UNL     1       7.540   4.648  18.086  0.00  0.00    +0.000 A 
ATOM     25  F   UNL     1       8.824   4.276  18.181  0.00  0.00    +0.000 F 
ATOM     26  C   UNL     1       6.867   5.079  19.210  0.00  0.00    +0.000 A 
ATOM     27  C   UNL     1       5.527   5.435  19.101  0.00  0.00    +0.000 A 
ATOM     28  C   UNL     1       4.827   5.284  17.885  0.00  0.00    +0.000 A 
BRANCH  22  30
ATOM     29  C   UNL     1       5.713   4.195  14.267  0.00  0.00    +0.000 C 
ATOM     30  C   UNL     1       4.975   5.002  15.317  0.00  0.00    +0.000 C 
ENDBRANCH  22  30
ENDBRANCH  21  28
ENDBRANCH   1  21
TORSDOF 6
ENDMDL
MODEL 6
REMARK VINA RESULT:      -7.9      1.221      1.565
REMARK  Name = 
REMARK  7 active torsions:
REMARK  status: ('A' for Active; 'I' for Inactive)
REMARK    1  A    between atoms: C_1  and  C_2
REMARK    2  A    between atoms: C_2  and  C_3
REMARK    3  A    between atoms: C_9  and  O_10
REMARK    4  A    between atoms: O_10  and  C_11
REMARK    5  A    between atoms: C_14  and  S_15
REMARK    6  A    between atoms: S_15  and  N_18
REMARK    7  A    between atoms: C_27  and  C_28
REMARK                            x       y       z     vdW  Elec       q    Type
REMARK                         _______ _______ _______ _____ _____    ______ ____
ROOT
ATOM      1  C   UNL     1       2.390   7.029  18.457  0.00  0.00    +0.000 A 
ATOM      2  C   UNL     1       2.337   8.281  17.813  0.00  0.00    +0.000 A 
ATOM      3  C   UNL     1       1.719   9.371  18.427  0.00  0.00    +0.000 A 
ATOM      4  C   UNL     1       1.235   9.245  19.730  0.00  0.00    +0.000 A 
ATOM      5  C   UNL     1       1.438   8.056  20.445  0.00  0.00    +0.000 A 
ATOM      6  C   UNL     1       2.004   6.936  19.802  0.00  0.00    +0.000 A 
ENDROOT
BRANCH   4   7
ATOM      7  S   UNL     1       0.408  10.640  20.488  0.00  0.00    +0.000 S 
ATOM      8  O   UNL     1      -0.760  10.139  21.174  0.00  0.00    +0.000 OA
ATOM      9  O   UNL     1       1.423  11.403  21.182  0.00  0.00    +0.000 OA
BRANCH   7  10
ATOM     10  N   UNL     1      -0.074  11.587  19.167  0.00  0.00    +0.000 N 
ATOM     11  C   UNL     1      -1.418  11.459  18.779  0.00  0.00    +0.000 A 
ATOM     12  C   UNL     1      -2.436  12.150  19.422  0.00  0.00    +0.000 A 
ATOM     13  C   UNL     1      -3.742  11.943  18.983  0.00  0.00    +0.000 A 
ATOM     14  C   UNL     1      -3.964  11.048  17.947  0.00  0.00    +0.000 A 
ATOM     15  F   UNL     1      -5.206  10.819  17.504  0.00  0.00    +0.000 F 
ATOM     16  C   UNL     1      -2.881  10.396  17.378  0.00  0.00    +0.000 A 
ATOM     17  N   UNL     1      -1.596  10.584  17.774  0.00  0.00    +0.000 NA
ATOM     18  H   UNL     1       0.548  11.440  18.373  0.00  0.00    +0.000 HD
ENDBRANCH   7  10
ENDBRANCH   4   7
BRANCH   6  19
ATOM     19  C   UNL     1       2.137   5.708  20.532  0.00  0.00    +0.000 C 
ATOM     20  N   UNL     1       2.254   4.738  21.162  0.00  0.00    +0.000 NA
ENDBRANCH   6  19
BRANCH   1  21
ATOM     21  O   UNL     1       2.760   5.881  17.758  0.00  0.00    +0.000 OA
BRANCH  21  28
ATOM     22  C   UNL     1       4.597   4.301  17.941  0.00  0.00    +0.000 A 
ATOM     23  C   UNL     1       5.990   4.108  18.048  0.00  0.00    +0.000 A 
ATOM     24  C   UNL     1       6.876   5.167  17.864  0.00  0.00    +0.000 A 
ATOM     25  F   UNL     1       8.192   4.960  18.017  0.00  0.00    +0.000 F 
ATOM     26  C   UNL     1       6.418   6.419  17.510  0.00  0.00    +0.000 A 
ATOM     27  C   UNL     1       5.048   6.625  17.381  0.00  0.00    +0.000 A 
ATOM     28  C   UNL     1       4.124   5.603  17.688  0.00  0.00    +0.000 A 
BRANCH  22  30
ATOM     29  C   UNL     1       3.912   2.206  19.262  0.00  0.00    +0.000 C 
ATOM     30  C   UNL     1       3.723   3.071  18.031  0.00  0.00    +0.000 C 
ENDBRANCH  22  30
ENDBRANCH  21  28
ENDBRANCH   1  21
TORSDOF 6
ENDMDL
MODEL 7
REMARK VINA RESULT:      -7.8      2.863      3.524
REMARK  Name = 
REMARK  7 active torsions:
REMARK  status: ('A' for Active; 'I' for Inactive)
REMARK    1  A    between atoms: C_1  and  C_2
REMARK    2  A    between atoms: C_2  and  C_3
REMARK    3  A    between atoms: C_9  and  O_10
REMARK    4  A    between atoms: O_10  and  C_11
REMARK    5  A    between atoms: C_14  and  S_15
REMARK    6  A    between atoms: S_15  and  N_18
REMARK    7  A    between atoms: C_27  and  C_28
REMARK                            x       y       z     vdW  Elec       q    Type
REMARK                         _______ _______ _______ _____ _____    ______ ____
ROOT
ATOM      1  C   UNL     1       3.170   6.103  18.561  0.00  0.00    +0.000 A 
ATOM      2  C   UNL     1       3.356   7.213  17.713  0.00  0.00    +0.000 A 
ATOM      3  C   UNL     1       2.668   8.406  17.943  0.00  0.00    +0.000 A 
ATOM      4  C   UNL     1       1.864   8.532  19.076  0.00  0.00    +0.000 A 
ATOM      5  C   UNL     1       1.809   7.495  20.018  0.00  0.00    +0.000 A 
ATOM      6  C   UNL     1       2.451   6.268  19.753  0.00  0.00    +0.000 A 
ENDROOT
BRANCH   4   7
ATOM      7  S   UNL     1       0.956  10.053  19.333  0.00  0.00    +0.000 S 
ATOM      8  O   UNL     1       1.436  11.019  18.372  0.00  0.00    +0.000 OA
ATOM      9  O   UNL     1      -0.444   9.697  19.413  0.00  0.00    +0.000 OA
BRANCH   7  10
ATOM     10  N   UNL     1       1.412  10.533  20.894  0.00  0.00    +0.000 N 
ATOM     11  C   UNL     1       0.398  11.109  21.678  0.00  0.00    +0.000 A 
ATOM     12  C   UNL     1      -0.521  10.335  22.374  0.00  0.00    +0.000 A 
ATOM     13  C   UNL     1      -1.505  10.994  23.107  0.00  0.00    +0.000 A 
ATOM     14  C   UNL     1      -1.533  12.381  23.091  0.00  0.00    +0.000 A 
ATOM     15  F   UNL     1      -2.468  13.048  23.778  0.00  0.00    +0.000 F 
ATOM     16  C   UNL     1      -0.578  13.064  22.354  0.00  0.00    +0.000 A 
ATOM     17  N   UNL     1       0.400  12.453  21.638  0.00  0.00    +0.000 NA
ATOM     18  H   UNL     1       2.231  11.138  20.859  0.00  0.00    +0.000 HD
ENDBRANCH   7  10
ENDBRANCH   4   7
BRANCH   6  19
ATOM     19  C   UNL     1       2.323   5.197  20.700  0.00  0.00    +0.000 C 
ATOM     20  N   UNL     1       2.264   4.335  21.477  0.00  0.00    +0.000 NA
ENDBRANCH   6  19
BRANCH   1  21
ATOM     21  O   UNL     1       3.636   4.841  18.197  0.00  0.00    +0.000 OA
BRANCH  21  28
ATOM     22  C   UNL     1       5.988   5.221  17.721  0.00  0.00    +0.000 A 
ATOM     23  C   UNL     1       6.995   5.346  16.741  0.00  0.00    +0.000 A 
ATOM     24  C   UNL     1       6.745   5.022  15.410  0.00  0.00    +0.000 A 
ATOM     25  F   UNL     1       7.709   5.195  14.496  0.00  0.00    +0.000 F 
ATOM     26  C   UNL     1       5.523   4.510  15.026  0.00  0.00    +0.000 A 
ATOM     27  C   UNL     1       4.522   4.361  15.981  0.00  0.00    +0.000 A 
ATOM     28  C   UNL     1       4.708   4.802  17.308  0.00  0.00    +0.000 A 
BRANCH  22  30
ATOM     29  C   UNL     1       7.865   5.716  19.404  0.00  0.00    +0.000 C 
ATOM     30  C   UNL     1       6.389   5.474  19.156  0.00  0.00    +0.000 C 
ENDBRANCH  22  30
ENDBRANCH  21  28
ENDBRANCH   1  21
TORSDOF 6
ENDMDL
MODEL 8
REMARK VINA RESULT:      -7.8      3.750      8.371
REMARK  Name = 
REMARK  7 active torsions:
REMARK  status: ('A' for Active; 'I' for Inactive)
REMARK    1  A    between atoms: C_1  and  C_2
REMARK    2  A    between atoms: C_2  and  C_3
REMARK    3  A    between atoms: C_9  and  O_10
REMARK    4  A    between atoms: O_10  and  C_11
REMARK    5  A    between atoms: C_14  and  S_15
REMARK    6  A    between atoms: S_15  and  N_18
REMARK    7  A    between atoms: C_27  and  C_28
REMARK                            x       y       z     vdW  Elec       q    Type
REMARK                         _______ _______ _______ _____ _____    ______ ____
ROOT
ATOM      1  C   UNL     1       2.968   6.905  18.404  0.00  0.00    +0.000 A 
ATOM      2  C   UNL     1       3.937   7.407  17.512  0.00  0.00    +0.000 A 
ATOM      3  C   UNL     1       5.281   7.055  17.651  0.00  0.00    +0.000 A 
ATOM      4  C   UNL     1       5.654   6.123  18.621  0.00  0.00    +0.000 A 
ATOM      5  C   UNL     1       4.675   5.487  19.398  0.00  0.00    +0.000 A 
ATOM      6  C   UNL     1       3.328   5.890  19.302  0.00  0.00    +0.000 A 
ENDROOT
BRANCH   4   7
ATOM      7  S   UNL     1       7.386   5.715  18.813  0.00  0.00    +0.000 S 
ATOM      8  O   UNL     1       8.157   6.780  18.213  0.00  0.00    +0.000 OA
ATOM      9  O   UNL     1       7.575   5.331  20.195  0.00  0.00    +0.000 OA
BRANCH   7  10
ATOM     10  N   UNL     1       7.568   4.300  17.899  0.00  0.00    +0.000 N 
ATOM     11  C   UNL     1       6.933   4.293  16.646  0.00  0.00    +0.000 A 
ATOM     12  C   UNL     1       7.510   4.880  15.528  0.00  0.00    +0.000 A 
ATOM     13  C   UNL     1       6.796   4.845  14.332  0.00  0.00    +0.000 A 
ATOM     14  C   UNL     1       5.544   4.248  14.319  0.00  0.00    +0.000 A 
ATOM     15  F   UNL     1       4.828   4.201  13.191  0.00  0.00    +0.000 F 
ATOM     16  C   UNL     1       5.049   3.700  15.492  0.00  0.00    +0.000 A 
ATOM     17  N   UNL     1       5.723   3.708  16.671  0.00  0.00    +0.000 NA
ATOM     18  H   UNL     1       7.300   3.482  18.445  0.00  0.00    +0.000 HD
ENDBRANCH   7  10
ENDBRANCH   4   7
BRANCH   6  19
ATOM     19  C   UNL     1       2.354   5.273  20.157  0.00  0.00    +0.000 C 
ATOM     20  N   UNL     1       1.573   4.808  20.881  0.00  0.00    +0.000 NA
ENDBRANCH   6  19
BRANCH   1  21
ATOM     21  O   UNL     1       1.685   7.448  18.443  0.00  0.00    +0.000 OA
BRANCH  21  28
ATOM     22  C   UNL     1       1.006   9.192  19.992  0.00  0.00    +0.000 A 
ATOM     23  C   UNL     1       0.753  10.565  20.196  0.00  0.00    +0.000 A 
ATOM     24  C   UNL     1       1.106  11.510  19.235  0.00  0.00    +0.000 A 
ATOM     25  F   UNL     1       0.810  12.801  19.440  0.00  0.00    +0.000 F 
ATOM     26  C   UNL     1       1.771  11.135  18.087  0.00  0.00    +0.000 A 
ATOM     27  C   UNL     1       2.048   9.787  17.876  0.00  0.00    +0.000 A 
ATOM     28  C   UNL     1       1.586   8.798  18.770  0.00  0.00    +0.000 A 
BRANCH  22  30
ATOM     29  C   UNL     1      -0.268   8.777  22.184  0.00  0.00    +0.000 C 
ATOM     30  C   UNL     1       0.703   8.259  21.141  0.00  0.00    +0.000 C 
ENDBRANCH  22  30
ENDBRANCH  21  28
ENDBRANCH   1  21
TORSDOF 6
ENDMDL
MODEL 9
REMARK VINA RESULT:      -7.8      2.452      3.424
REMARK  Name = 
REMARK  7 active torsions:
REMARK  status: ('A' for Active; 'I' for Inactive)
REMARK    1  A    between atoms: C_1  and  C_2
REMARK    2  A    between atoms: C_2  and  C_3
REMARK    3  A    between atoms: C_9  and  O_10
REMARK    4  A    between atoms: O_10  and  C_11
REMARK    5  A    between atoms: C_14  and  S_15
REMARK    6  A    between atoms: S_15  and  N_18
REMARK    7  A    between atoms: C_27  and  C_28
REMARK                            x       y       z     vdW  Elec       q    Type
REMARK                         _______ _______ _______ _____ _____    ______ ____
ROOT
ATOM      1  C   UNL     1       3.875   5.942  18.263  0.00  0.00    +0.000 A 
ATOM      2  C   UNL     1       4.135   7.038  17.417  0.00  0.00    +0.000 A 
ATOM      3  C   UNL     1       3.340   8.184  17.474  0.00  0.00    +0.000 A 
ATOM      4  C   UNL     1       2.339   8.282  18.442  0.00  0.00    +0.000 A 
ATOM      5  C   UNL     1       2.187   7.271  19.402  0.00  0.00    +0.000 A 
ATOM      6  C   UNL     1       2.946   6.087  19.304  0.00  0.00    +0.000 A 
ENDROOT
BRANCH   4   7
ATOM      7  S   UNL     1       1.301   9.740  18.474  0.00  0.00    +0.000 S 
ATOM      8  O   UNL     1       2.124  10.873  18.116  0.00  0.00    +0.000 OA
ATOM      9  O   UNL     1       0.100   9.415  17.737  0.00  0.00    +0.000 OA
BRANCH   7  10
ATOM     10  N   UNL     1       0.839   9.869  20.100  0.00  0.00    +0.000 N 
ATOM     11  C   UNL     1       0.251  11.088  20.475  0.00  0.00    +0.000 A 
ATOM     12  C   UNL     1      -1.093  11.354  20.254  0.00  0.00    +0.000 A 
ATOM     13  C   UNL     1      -1.582  12.600  20.639  0.00  0.00    +0.000 A 
ATOM     14  C   UNL     1      -0.707  13.517  21.203  0.00  0.00    +0.000 A 
ATOM     15  F   UNL     1      -1.140  14.725  21.578  0.00  0.00    +0.000 F 
ATOM     16  C   UNL     1       0.622  13.161  21.371  0.00  0.00    +0.000 A 
ATOM     17  N   UNL     1       1.128  11.952  21.016  0.00  0.00    +0.000 NA
ATOM     18  H   UNL     1       1.617   9.637  20.715  0.00  0.00    +0.000 HD
ENDBRANCH   7  10
ENDBRANCH   4   7
BRANCH   6  19
ATOM     19  C   UNL     1       2.723   5.036  20.255  0.00  0.00    +0.000 C 
ATOM     20  N   UNL     1       2.497   4.197  21.027  0.00  0.00    +0.000 NA
ENDBRANCH   6  19
BRANCH   1  21
ATOM     21  O   UNL     1       4.481   4.707  18.039  0.00  0.00    +0.000 OA
BRANCH  21  28
ATOM     22  C   UNL     1       6.657   4.914  16.976  0.00  0.00    +0.000 A 
ATOM     23  C   UNL     1       7.387   4.978  15.771  0.00  0.00    +0.000 A 
ATOM     24  C   UNL     1       6.780   4.697  14.549  0.00  0.00    +0.000 A 
ATOM     25  F   UNL     1       7.490   4.812  13.418  0.00  0.00    +0.000 F 
ATOM     26  C   UNL     1       5.465   4.286  14.492  0.00  0.00    +0.000 A 
ATOM     27  C   UNL     1       4.732   4.198  15.671  0.00  0.00    +0.000 A 
ATOM     28  C   UNL     1       5.285   4.601  16.906  0.00  0.00    +0.000 A 
BRANCH  22  30
ATOM     29  C   UNL     1       7.826   6.538  18.588  0.00  0.00    +0.000 C 
ATOM     30  C   UNL     1       7.429   5.111  18.260  0.00  0.00    +0.000 C 
ENDBRANCH  22  30
ENDBRANCH  21  28
ENDBRANCH   1  21
TORSDOF 6
ENDMDL
