MODEL 1
REMARK VINA RESULT:      -7.2      0.000      0.000
REMARK  Name = 
REMARK  3 active torsions:
REMARK  status: ('A' for Active; 'I' for Inactive)
REMARK    1  A    between atoms: O_1  and  C_2
REMARK    2  A    between atoms: C_12  and  N_13
REMARK    3  A    between atoms: C_16  and  C_17
REMARK                            x       y       z     vdW  Elec       q    Type
REMARK                         _______ _______ _______ _____ _____    ______ ____
ROOT
ATOM      1  C   UNL     1       2.882   8.297  17.988  0.00  0.00    +0.000 C 
ATOM      2  C   UNL     1       2.214   9.633  17.660  0.00  0.00    +0.000 C 
ATOM      3  C   UNL     1       1.502  10.289  18.809  0.00  0.00    +0.000 A 
ATOM      4  C   UNL     1       1.217  11.657  18.705  0.00  0.00    +0.000 A 
ATOM      5  C   UNL     1       0.560  12.322  19.735  0.00  0.00    +0.000 A 
ATOM      6  C   UNL     1       0.186  11.623  20.875  0.00  0.00    +0.000 A 
ATOM      7  C   UNL     1       0.452  10.257  20.981  0.00  0.00    +0.000 A 
ATOM      8  I   UNL     1      -0.111   9.344  22.797  0.00  0.00    +0.000 I 
ATOM      9  C   UNL     1       1.091   9.557  19.936  0.00  0.00    +0.000 A 
ATOM     10  C   UNL     1       1.440   8.091  20.055  0.00  0.00    +0.000 C 
ATOM     11  C   UNL     1       1.887   7.364  18.753  0.00  0.00    +0.000 C 
ENDROOT
BRANCH  11  12
ATOM     12  N   UNL     1       2.328   5.957  19.064  0.00  0.00    +0.000 NA
ATOM     13  C   UNL     1       2.054   5.029  17.961  0.00  0.00    +0.000 C 
ATOM     14  C   UNL     1       2.620   3.618  18.135  0.00  0.00    +0.000 C 
ATOM     15  C   UNL     1       4.121   3.645  18.481  0.00  0.00    +0.000 C 
ATOM     16  C   UNL     1       4.221   4.444  19.788  0.00  0.00    +0.000 C 
ATOM     17  C   UNL     1       3.673   5.864  19.638  0.00  0.00    +0.000 C 
BRANCH  15  18
ATOM     18  C   UNL     1       5.063   4.113  17.367  0.00  0.00    +0.000 A 
ATOM     19  C   UNL     1       6.377   4.536  17.648  0.00  0.00    +0.000 A 
ATOM     20  C   UNL     1       7.255   4.929  16.634  0.00  0.00    +0.000 A 
ATOM     21  C   UNL     1       6.845   4.894  15.307  0.00  0.00    +0.000 A 
ATOM     22  C   UNL     1       5.561   4.459  14.997  0.00  0.00    +0.000 A 
ATOM     23  C   UNL     1       4.685   4.060  16.011  0.00  0.00    +0.000 A 
ENDBRANCH  15  18
ENDBRANCH  11  12
BRANCH   1  24
ATOM     24  O   UNL     1       3.285   7.776  16.717  0.00  0.00    +0.000 OA
ATOM     25  H   UNL     1       4.016   7.154  16.876  0.00  0.00    +0.000 HD
ENDBRANCH   1  24
TORSDOF 3
ENDMDL
MODEL 2
REMARK VINA RESULT:      -6.7      3.072      7.843
REMARK  Name = 
REMARK  3 active torsions:
REMARK  status: ('A' for Active; 'I' for Inactive)
REMARK    1  A    between atoms: O_1  and  C_2
REMARK    2  A    between atoms: C_12  and  N_13
REMARK    3  A    between atoms: C_16  and  C_17
REMARK                            x       y       z     vdW  Elec       q    Type
REMARK                         _______ _______ _______ _____ _____    ______ ____
ROOT
ATOM      1  C   UNL     1       1.861   6.337  20.397  0.00  0.00    +0.000 C 
ATOM      2  C   UNL     1       1.739   4.866  19.993  0.00  0.00    +0.000 C 
ATOM      3  C   UNL     1       2.712   4.411  18.941  0.00  0.00    +0.000 A 
ATOM      4  C   UNL     1       2.931   3.034  18.808  0.00  0.00    +0.000 A 
ATOM      5  C   UNL     1       3.820   2.549  17.854  0.00  0.00    +0.000 A 
ATOM      6  C   UNL     1       4.494   3.440  17.029  0.00  0.00    +0.000 A 
ATOM      7  C   UNL     1       4.270   4.813  17.144  0.00  0.00    +0.000 A 
ATOM      8  I   UNL     1       5.417   6.046  15.874  0.00  0.00    +0.000 I 
ATOM      9  C   UNL     1       3.352   5.323  18.086  0.00  0.00    +0.000 A 
ATOM     10  C   UNL     1       3.138   6.809  18.267  0.00  0.00    +0.000 C 
ATOM     11  C   UNL     1       1.917   7.247  19.127  0.00  0.00    +0.000 C 
ENDROOT
BRANCH  11  12
ATOM     12  N   UNL     1       1.923   8.741  19.323  0.00  0.00    +0.000 NA
ATOM     13  C   UNL     1       1.863   9.472  18.052  0.00  0.00    +0.000 C 
ATOM     14  C   UNL     1       1.701  10.988  18.174  0.00  0.00    +0.000 C 
ATOM     15  C   UNL     1       0.519  11.363  19.089  0.00  0.00    +0.000 C 
ATOM     16  C   UNL     1       0.845  10.732  20.450  0.00  0.00    +0.000 C 
ATOM     17  C   UNL     1       1.000   9.213  20.358  0.00  0.00    +0.000 C 
BRANCH  15  18
ATOM     18  C   UNL     1      -0.880  11.045  18.550  0.00  0.00    +0.000 A 
ATOM     19  C   UNL     1      -2.012  11.763  18.982  0.00  0.00    +0.000 A 
ATOM     20  C   UNL     1      -3.285  11.505  18.468  0.00  0.00    +0.000 A 
ATOM     21  C   UNL     1      -3.458  10.529  17.495  0.00  0.00    +0.000 A 
ATOM     22  C   UNL     1      -2.355   9.818  17.032  0.00  0.00    +0.000 A 
ATOM     23  C   UNL     1      -1.080  10.081  17.542  0.00  0.00    +0.000 A 
ENDBRANCH  15  18
ENDBRANCH  11  12
BRANCH   1  24
ATOM     24  O   UNL     1       0.714   6.579  21.218  0.00  0.00    +0.000 OA
ATOM     25  H   UNL     1      -0.032   6.774  20.625  0.00  0.00    +0.000 HD
ENDBRANCH   1  24
TORSDOF 3
ENDMDL
MODEL 3
REMARK VINA RESULT:      -6.6      2.187      7.739
REMARK  Name = 
REMARK  3 active torsions:
REMARK  status: ('A' for Active; 'I' for Inactive)
REMARK    1  A    between atoms: O_1  and  C_2
REMARK    2  A    between atoms: C_12  and  N_13
REMARK    3  A    between atoms: C_16  and  C_17
REMARK                            x       y       z     vdW  Elec       q    Type
REMARK                         _______ _______ _______ _____ _____    ______ ____
ROOT
ATOM      1  C   UNL     1       2.040   8.683  17.862  0.00  0.00    +0.000 C 
ATOM      2  C   UNL     1       3.335   8.002  17.415  0.00  0.00    +0.000 C 
ATOM      3  C   UNL     1       3.525   6.599  17.917  0.00  0.00    +0.000 A 
ATOM      4  C   UNL     1       4.455   5.788  17.252  0.00  0.00    +0.000 A 
ATOM      5  C   UNL     1       4.675   4.479  17.668  0.00  0.00    +0.000 A 
ATOM      6  C   UNL     1       3.967   3.975  18.750  0.00  0.00    +0.000 A 
ATOM      7  C   UNL     1       3.051   4.780  19.428  0.00  0.00    +0.000 A 
ATOM      8  I   UNL     1       1.999   3.856  21.006  0.00  0.00    +0.000 I 
ATOM      9  C   UNL     1       2.832   6.119  19.040  0.00  0.00    +0.000 A 
ATOM     10  C   UNL     1       1.802   6.989  19.724  0.00  0.00    +0.000 C 
ATOM     11  C   UNL     1       1.839   8.512  19.403  0.00  0.00    +0.000 C 
ENDROOT
BRANCH  11  12
ATOM     12  N   UNL     1       0.673   9.213  20.050  0.00  0.00    +0.000 NA
ATOM     13  C   UNL     1       1.064   9.952  21.255  0.00  0.00    +0.000 C 
ATOM     14  C   UNL     1      -0.031  10.821  21.875  0.00  0.00    +0.000 C 
ATOM     15  C   UNL     1      -0.676  11.755  20.834  0.00  0.00    +0.000 C 
ATOM     16  C   UNL     1      -1.254  10.824  19.759  0.00  0.00    +0.000 C 
ATOM     17  C   UNL     1      -0.177   9.951  19.113  0.00  0.00    +0.000 C 
BRANCH  15  18
ATOM     18  C   UNL     1       0.210  12.885  20.298  0.00  0.00    +0.000 A 
ATOM     19  C   UNL     1      -0.214  13.710  19.238  0.00  0.00    +0.000 A 
ATOM     20  C   UNL     1       0.572  14.765  18.769  0.00  0.00    +0.000 A 
ATOM     21  C   UNL     1       1.800  15.033  19.359  0.00  0.00    +0.000 A 
ATOM     22  C   UNL     1       2.236  14.250  20.422  0.00  0.00    +0.000 A 
ATOM     23  C   UNL     1       1.447  13.198  20.896  0.00  0.00    +0.000 A 
ENDBRANCH  15  18
ENDBRANCH  11  12
BRANCH   1  24
ATOM     24  O   UNL     1       2.193  10.047  17.457  0.00  0.00    +0.000 OA
ATOM     25  H   UNL     1       2.490  10.549  18.235  0.00  0.00    +0.000 HD
ENDBRANCH   1  24
TORSDOF 3
ENDMDL
MODEL 4
REMARK VINA RESULT:      -6.6      6.844     11.640
REMARK  Name = 
REMARK  3 active torsions:
REMARK  status: ('A' for Active; 'I' for Inactive)
REMARK    1  A    between atoms: O_1  and  C_2
REMARK    2  A    between atoms: C_12  and  N_13
REMARK    3  A    between atoms: C_16  and  C_17
REMARK                            x       y       z     vdW  Elec       q    Type
REMARK                         _______ _______ _______ _____ _____    ______ ____
ROOT
ATOM      1  C   UNL     1      -5.767  11.585  17.992  0.00  0.00    +0.000 C 
ATOM      2  C   UNL     1      -4.658  11.166  17.025  0.00  0.00    +0.000 C 
ATOM      3  C   UNL     1      -3.302  10.992  17.646  0.00  0.00    +0.000 A 
ATOM      4  C   UNL     1      -2.350  10.247  16.937  0.00  0.00    +0.000 A 
ATOM      5  C   UNL     1      -1.076  10.049  17.460  0.00  0.00    +0.000 A 
ATOM      6  C   UNL     1      -0.747  10.595  18.693  0.00  0.00    +0.000 A 
ATOM      7  C   UNL     1      -1.683  11.352  19.399  0.00  0.00    +0.000 A 
ATOM      8  I   UNL     1      -1.066  12.057  21.288  0.00  0.00    +0.000 I 
ATOM      9  C   UNL     1      -2.972  11.588  18.874  0.00  0.00    +0.000 A 
ATOM     10  C   UNL     1      -4.020  12.356  19.649  0.00  0.00    +0.000 C 
ATOM     11  C   UNL     1      -5.296  12.790  18.870  0.00  0.00    +0.000 C 
ENDROOT
BRANCH  11  12
ATOM     12  N   UNL     1      -6.293  13.418  19.809  0.00  0.00    +0.000 NA
ATOM     13  C   UNL     1      -6.680  12.516  20.899  0.00  0.00    +0.000 C 
ATOM     14  C   UNL     1      -7.563  13.138  21.982  0.00  0.00    +0.000 C 
ATOM     15  C   UNL     1      -6.959  14.446  22.529  0.00  0.00    +0.000 C 
ATOM     16  C   UNL     1      -6.840  15.375  21.314  0.00  0.00    +0.000 C 
ATOM     17  C   UNL     1      -5.952  14.782  20.219  0.00  0.00    +0.000 C 
BRANCH  15  18
ATOM     18  C   UNL     1      -5.677  14.303  23.358  0.00  0.00    +0.000 A 
ATOM     19  C   UNL     1      -4.943  15.432  23.771  0.00  0.00    +0.000 A 
ATOM     20  C   UNL     1      -3.795  15.313  24.559  0.00  0.00    +0.000 A 
ATOM     21  C   UNL     1      -3.358  14.059  24.967  0.00  0.00    +0.000 A 
ATOM     22  C   UNL     1      -4.075  12.928  24.593  0.00  0.00    +0.000 A 
ATOM     23  C   UNL     1      -5.227  13.047  23.810  0.00  0.00    +0.000 A 
ENDBRANCH  15  18
ENDBRANCH  11  12
BRANCH   1  24
ATOM     24  O   UNL     1      -6.879  11.899  17.148  0.00  0.00    +0.000 OA
ATOM     25  H   UNL     1      -6.524  12.138  16.275  0.00  0.00    +0.000 HD
ENDBRANCH   1  24
TORSDOF 3
ENDMDL
MODEL 5
REMARK VINA RESULT:      -6.5      6.484     11.456
REMARK  Name = 
REMARK  3 active torsions:
REMARK  status: ('A' for Active; 'I' for Inactive)
REMARK    1  A    between atoms: O_1  and  C_2
REMARK    2  A    between atoms: C_12  and  N_13
REMARK    3  A    between atoms: C_16  and  C_17
REMARK                            x       y       z     vdW  Elec       q    Type
REMARK                         _______ _______ _______ _____ _____    ______ ____
ROOT
ATOM      1  C   UNL     1      -5.235  11.189  18.279  0.00  0.00    +0.000 C 
ATOM      2  C   UNL     1      -4.055  10.799  17.387  0.00  0.00    +0.000 C 
ATOM      3  C   UNL     1      -2.709  10.849  18.051  0.00  0.00    +0.000 A 
ATOM      4  C   UNL     1      -1.657  10.146  17.447  0.00  0.00    +0.000 A 
ATOM      5  C   UNL     1      -0.386  10.152  18.014  0.00  0.00    +0.000 A 
ATOM      6  C   UNL     1      -0.161  10.861  19.186  0.00  0.00    +0.000 A 
ATOM      7  C   UNL     1      -1.199  11.577  19.786  0.00  0.00    +0.000 A 
ATOM      8  I   UNL     1      -0.726  12.546  21.598  0.00  0.00    +0.000 I 
ATOM      9  C   UNL     1      -2.488  11.607  19.212  0.00  0.00    +0.000 A 
ATOM     10  C   UNL     1      -3.639  12.327  19.876  0.00  0.00    +0.000 C 
ATOM     11  C   UNL     1      -4.930  12.527  19.029  0.00  0.00    +0.000 C 
ENDROOT
BRANCH  11  12
ATOM     12  N   UNL     1      -6.022  13.133  19.873  0.00  0.00    +0.000 NA
ATOM     13  C   UNL     1      -6.396  12.276  21.003  0.00  0.00    +0.000 C 
ATOM     14  C   UNL     1      -7.380  12.895  21.997  0.00  0.00    +0.000 C 
ATOM     15  C   UNL     1      -6.908  14.280  22.480  0.00  0.00    +0.000 C 
ATOM     16  C   UNL     1      -6.797  15.135  21.210  0.00  0.00    +0.000 C 
ATOM     17  C   UNL     1      -5.808  14.544  20.203  0.00  0.00    +0.000 C 
BRANCH  15  18
ATOM     18  C   UNL     1      -5.666  14.296  23.377  0.00  0.00    +0.000 A 
ATOM     19  C   UNL     1      -5.074  13.100  23.830  0.00  0.00    +0.000 A 
ATOM     20  C   UNL     1      -3.920  13.105  24.618  0.00  0.00    +0.000 A 
ATOM     21  C   UNL     1      -3.316  14.308  24.960  0.00  0.00    +0.000 A 
ATOM     22  C   UNL     1      -3.864  15.504  24.509  0.00  0.00    +0.000 A 
ATOM     23  C   UNL     1      -5.016  15.499  23.716  0.00  0.00    +0.000 A 
ENDBRANCH  15  18
ENDBRANCH  11  12
BRANCH   1  24
ATOM     24  O   UNL     1      -6.347  11.281  17.384  0.00  0.00    +0.000 OA
ATOM     25  H   UNL     1      -6.742  12.162  17.501  0.00  0.00    +0.000 HD
ENDBRANCH   1  24
TORSDOF 3
ENDMDL
MODEL 6
REMARK VINA RESULT:      -6.5      5.297      7.938
REMARK  Name = 
REMARK  3 active torsions:
REMARK  status: ('A' for Active; 'I' for Inactive)
REMARK    1  A    between atoms: O_1  and  C_2
REMARK    2  A    between atoms: C_12  and  N_13
REMARK    3  A    between atoms: C_16  and  C_17
REMARK                            x       y       z     vdW  Elec       q    Type
REMARK                         _______ _______ _______ _____ _____    ______ ____
ROOT
ATOM      1  C   UNL     1      -3.427  11.609  16.312  0.00  0.00    +0.000 C 
ATOM      2  C   UNL     1      -4.945  11.429  16.380  0.00  0.00    +0.000 C 
ATOM      3  C   UNL     1      -5.593  11.940  17.635  0.00  0.00    +0.000 A 
ATOM      4  C   UNL     1      -6.975  12.173  17.608  0.00  0.00    +0.000 A 
ATOM      5  C   UNL     1      -7.633  12.647  18.738  0.00  0.00    +0.000 A 
ATOM      6  C   UNL     1      -6.914  12.891  19.900  0.00  0.00    +0.000 A 
ATOM      7  C   UNL     1      -5.540  12.647  19.941  0.00  0.00    +0.000 A 
ATOM      8  I   UNL     1      -4.568  13.131  21.750  0.00  0.00    +0.000 I 
ATOM      9  C   UNL     1      -4.857  12.140  18.815  0.00  0.00    +0.000 A 
ATOM     10  C   UNL     1      -3.361  11.924  18.820  0.00  0.00    +0.000 C 
ATOM     11  C   UNL     1      -2.761  11.111  17.636  0.00  0.00    +0.000 C 
ENDROOT
BRANCH  11  12
ATOM     12  N   UNL     1      -1.256  11.103  17.715  0.00  0.00    +0.000 NA
ATOM     13  C   UNL     1      -0.737  12.162  18.589  0.00  0.00    +0.000 C 
ATOM     14  C   UNL     1       0.770  12.116  18.849  0.00  0.00    +0.000 C 
ATOM     15  C   UNL     1       1.224  10.724  19.329  0.00  0.00    +0.000 C 
ATOM     16  C   UNL     1       0.830   9.760  18.202  0.00  0.00    +0.000 C 
ATOM     17  C   UNL     1      -0.675   9.776  17.929  0.00  0.00    +0.000 C 
BRANCH  15  18
ATOM     18  C   UNL     1       0.756  10.306  20.727  0.00  0.00    +0.000 A 
ATOM     19  C   UNL     1       1.320   9.197  21.387  0.00  0.00    +0.000 A 
ATOM     20  C   UNL     1       0.926   8.832  22.678  0.00  0.00    +0.000 A 
ATOM     21  C   UNL     1      -0.034   9.577  23.348  0.00  0.00    +0.000 A 
ATOM     22  C   UNL     1      -0.593  10.691  22.732  0.00  0.00    +0.000 A 
ATOM     23  C   UNL     1      -0.195  11.060  21.443  0.00  0.00    +0.000 A 
ENDBRANCH  15  18
ENDBRANCH  11  12
BRANCH   1  24
ATOM     24  O   UNL     1      -3.028  10.861  15.159  0.00  0.00    +0.000 OA
ATOM     25  H   UNL     1      -2.679  10.009  15.472  0.00  0.00    +0.000 HD
ENDBRANCH   1  24
TORSDOF 3
ENDMDL
MODEL 7
REMARK VINA RESULT:      -6.5      5.530      8.193
REMARK  Name = 
REMARK  3 active torsions:
REMARK  status: ('A' for Active; 'I' for Inactive)
REMARK    1  A    between atoms: O_1  and  C_2
REMARK    2  A    between atoms: C_12  and  N_13
REMARK    3  A    between atoms: C_16  and  C_17
REMARK                            x       y       z     vdW  Elec       q    Type
REMARK                         _______ _______ _______ _____ _____    ______ ____
ROOT
ATOM      1  C   UNL     1      -4.141  11.695  16.791  0.00  0.00    +0.000 C 
ATOM      2  C   UNL     1      -5.635  11.579  17.097  0.00  0.00    +0.000 C 
ATOM      3  C   UNL     1      -6.078  12.237  18.373  0.00  0.00    +0.000 A 
ATOM      4  C   UNL     1      -7.443  12.517  18.522  0.00  0.00    +0.000 A 
ATOM      5  C   UNL     1      -7.916  13.127  19.680  0.00  0.00    +0.000 A 
ATOM      6  C   UNL     1      -7.027  13.459  20.693  0.00  0.00    +0.000 A 
ATOM      7  C   UNL     1      -5.669  13.170  20.559  0.00  0.00    +0.000 A 
ATOM      8  I   UNL     1      -4.429  13.797  22.147  0.00  0.00    +0.000 I 
ATOM      9  C   UNL     1      -5.172  12.527  19.406  0.00  0.00    +0.000 A 
ATOM     10  C   UNL     1      -3.696  12.258  19.216  0.00  0.00    +0.000 C 
ATOM     11  C   UNL     1      -3.296  11.308  18.049  0.00  0.00    +0.000 C 
ENDROOT
BRANCH  11  12
ATOM     12  N   UNL     1      -1.797  11.253  17.909  0.00  0.00    +0.000 NA
ATOM     13  C   UNL     1      -1.123  12.283  18.707  0.00  0.00    +0.000 C 
ATOM     14  C   UNL     1       0.403  12.188  18.746  0.00  0.00    +0.000 C 
ATOM     15  C   UNL     1       0.877  10.776  19.144  0.00  0.00    +0.000 C 
ATOM     16  C   UNL     1       0.293   9.839  18.079  0.00  0.00    +0.000 C 
ATOM     17  C   UNL     1      -1.234   9.905  18.027  0.00  0.00    +0.000 C 
BRANCH  15  18
ATOM     18  C   UNL     1       0.602  10.355  20.592  0.00  0.00    +0.000 A 
ATOM     19  C   UNL     1      -0.246  11.109  21.426  0.00  0.00    +0.000 A 
ATOM     20  C   UNL     1      -0.531  10.712  22.735  0.00  0.00    +0.000 A 
ATOM     21  C   UNL     1       0.015   9.540  23.241  0.00  0.00    +0.000 A 
ATOM     22  C   UNL     1       0.838   8.762  22.433  0.00  0.00    +0.000 A 
ATOM     23  C   UNL     1       1.119   9.156  21.122  0.00  0.00    +0.000 A 
ENDBRANCH  15  18
ENDBRANCH  11  12
BRANCH   1  24
ATOM     24  O   UNL     1      -3.933  10.821  15.678  0.00  0.00    +0.000 OA
ATOM     25  H   UNL     1      -3.902   9.912  16.023  0.00  0.00    +0.000 HD
ENDBRANCH   1  24
TORSDOF 3
ENDMDL
MODEL 8
REMARK VINA RESULT:      -6.4      6.738     11.180
REMARK  Name = 
REMARK  3 active torsions:
REMARK  status: ('A' for Active; 'I' for Inactive)
REMARK    1  A    between atoms: O_1  and  C_2
REMARK    2  A    between atoms: C_12  and  N_13
REMARK    3  A    between atoms: C_16  and  C_17
REMARK                            x       y       z     vdW  Elec       q    Type
REMARK                         _______ _______ _______ _____ _____    ______ ____
ROOT
ATOM      1  C   UNL     1      -0.604  11.992  19.959  0.00  0.00    +0.000 C 
ATOM      2  C   UNL     1      -0.614  10.810  18.988  0.00  0.00    +0.000 C 
ATOM      3  C   UNL     1      -1.809  10.741  18.080  0.00  0.00    +0.000 A 
ATOM      4  C   UNL     1      -1.708   9.950  16.927  0.00  0.00    +0.000 A 
ATOM      5  C   UNL     1      -2.779   9.845  16.046  0.00  0.00    +0.000 A 
ATOM      6  C   UNL     1      -3.957  10.530  16.312  0.00  0.00    +0.000 A 
ATOM      7  C   UNL     1      -4.072  11.308  17.466  0.00  0.00    +0.000 A 
ATOM      8  I   UNL     1      -5.892  12.347  17.701  0.00  0.00    +0.000 I 
ATOM      9  C   UNL     1      -3.008  11.405  18.387  0.00  0.00    +0.000 A 
ATOM     10  C   UNL     1      -3.091  12.288  19.611  0.00  0.00    +0.000 C 
ATOM     11  C   UNL     1      -1.982  12.108  20.689  0.00  0.00    +0.000 C 
ENDROOT
BRANCH  11  12
ATOM     12  N   UNL     1      -2.128  13.146  21.771  0.00  0.00    +0.000 NA
ATOM     13  C   UNL     1      -2.868  14.329  21.314  0.00  0.00    +0.000 C 
ATOM     14  C   UNL     1      -3.199  15.354  22.399  0.00  0.00    +0.000 C 
ATOM     15  C   UNL     1      -3.888  14.700  23.611  0.00  0.00    +0.000 C 
ATOM     16  C   UNL     1      -2.891  13.653  24.128  0.00  0.00    +0.000 C 
ATOM     17  C   UNL     1      -2.552  12.607  23.065  0.00  0.00    +0.000 C 
BRANCH  15  18
ATOM     18  C   UNL     1      -5.309  14.174  23.378  0.00  0.00    +0.000 A 
ATOM     19  C   UNL     1      -6.102  14.652  22.317  0.00  0.00    +0.000 A 
ATOM     20  C   UNL     1      -7.384  14.152  22.074  0.00  0.00    +0.000 A 
ATOM     21  C   UNL     1      -7.902  13.147  22.880  0.00  0.00    +0.000 A 
ATOM     22  C   UNL     1      -7.134  12.639  23.923  0.00  0.00    +0.000 A 
ATOM     23  C   UNL     1      -5.849  13.135  24.161  0.00  0.00    +0.000 A 
ENDBRANCH  15  18
ENDBRANCH  11  12
BRANCH   1  24
ATOM     24  O   UNL     1       0.486  11.719  20.845  0.00  0.00    +0.000 OA
ATOM     25  H   UNL     1       0.801  12.572  21.189  0.00  0.00    +0.000 HD
ENDBRANCH   1  24
TORSDOF 3
ENDMDL
MODEL 9
REMARK VINA RESULT:      -6.4      6.545     10.761
REMARK  Name = 
REMARK  3 active torsions:
REMARK  status: ('A' for Active; 'I' for Inactive)
REMARK    1  A    between atoms: O_1  and  C_2
REMARK    2  A    between atoms: C_12  and  N_13
REMARK    3  A    between atoms: C_16  and  C_17
REMARK                            x       y       z     vdW  Elec       q    Type
REMARK                         _______ _______ _______ _____ _____    ______ ____
ROOT
ATOM      1  C   UNL     1      -0.212  11.899  19.416  0.00  0.00    +0.000 C 
ATOM      2  C   UNL     1      -0.419  10.683  18.511  0.00  0.00    +0.000 C 
ATOM      3  C   UNL     1      -1.742  10.634  17.801  0.00  0.00    +0.000 A 
ATOM      4  C   UNL     1      -1.852   9.797  16.682  0.00  0.00    +0.000 A 
ATOM      5  C   UNL     1      -3.050   9.708  15.981  0.00  0.00    +0.000 A 
ATOM      6  C   UNL     1      -4.144  10.457  16.394  0.00  0.00    +0.000 A 
ATOM      7  C   UNL     1      -4.049  11.282  17.516  0.00  0.00    +0.000 A 
ATOM      8  I   UNL     1      -5.768  12.412  17.982  0.00  0.00    +0.000 I 
ATOM      9  C   UNL     1      -2.851  11.365  18.258  0.00  0.00    +0.000 A 
ATOM     10  C   UNL     1      -2.709  12.296  19.441  0.00  0.00    +0.000 C 
ATOM     11  C   UNL     1      -1.454  12.105  20.343  0.00  0.00    +0.000 C 
ENDROOT
BRANCH  11  12
ATOM     12  N   UNL     1      -1.390  13.190  21.387  0.00  0.00    +0.000 NA
ATOM     13  C   UNL     1      -2.318  14.291  21.106  0.00  0.00    +0.000 C 
ATOM     14  C   UNL     1      -2.429  15.350  22.204  0.00  0.00    +0.000 C 
ATOM     15  C   UNL     1      -2.715  14.718  23.580  0.00  0.00    +0.000 C 
ATOM     16  C   UNL     1      -1.535  13.773  23.843  0.00  0.00    +0.000 C 
ATOM     17  C   UNL     1      -1.408  12.695  22.765  0.00  0.00    +0.000 C 
BRANCH  15  18
ATOM     18  C   UNL     1      -4.099  14.085  23.758  0.00  0.00    +0.000 A 
ATOM     19  C   UNL     1      -4.260  12.849  24.414  0.00  0.00    +0.000 A 
ATOM     20  C   UNL     1      -5.522  12.283  24.614  0.00  0.00    +0.000 A 
ATOM     21  C   UNL     1      -6.660  12.947  24.174  0.00  0.00    +0.000 A 
ATOM     22  C   UNL     1      -6.534  14.180  23.543  0.00  0.00    +0.000 A 
ATOM     23  C   UNL     1      -5.272  14.749  23.348  0.00  0.00    +0.000 A 
ENDBRANCH  15  18
ENDBRANCH  11  12
BRANCH   1  24
ATOM     24  O   UNL     1       0.990  11.610  20.136  0.00  0.00    +0.000 OA
ATOM     25  H   UNL     1       1.046  10.644  20.234  0.00  0.00    +0.000 HD
ENDBRANCH   1  24
TORSDOF 3
ENDMDL
