MODEL 1
REMARK VINA RESULT:      -6.4      0.000      0.000
REMARK  Name = 
REMARK  3 active torsions:
REMARK  status: ('A' for Active; 'I' for Inactive)
REMARK    1  A    between atoms: N_7  and  C_8
REMARK    2  A    between atoms: C_8  and  C_9
REMARK    3  A    between atoms: C_9  and  C_10
REMARK                            x       y       z     vdW  Elec       q    Type
REMARK                         _______ _______ _______ _____ _____    ______ ____
ROOT
ATOM      1 BR   UNL     1       8.091   5.688  19.382  0.00  0.00    +0.000 Br
ATOM      2  C   UNL     1       6.728   5.519  18.088  0.00  0.00    +0.000 A 
ATOM      3  C   UNL     1       7.003   4.931  16.861  0.00  0.00    +0.000 A 
ATOM      4  C   UNL     1       5.972   4.816  15.936  0.00  0.00    +0.000 A 
ATOM      5 BR   UNL     1       6.294   4.014  14.260  0.00  0.00    +0.000 Br
ATOM      6  C   UNL     1       4.697   5.282  16.249  0.00  0.00    +0.000 A 
ATOM      7  N   UNL     1       4.450   5.850  17.458  0.00  0.00    +0.000 N 
ATOM      8  C   UNL     1       5.443   5.975  18.373  0.00  0.00    +0.000 A 
ENDROOT
BRANCH   7   9
ATOM      9  C   UNL     1       3.071   6.293  17.803  0.00  0.00    +0.000 C 
BRANCH   9  10
ATOM     10  C   UNL     1       2.878   6.280  19.316  0.00  0.00    +0.000 C 
BRANCH  10  11
ATOM     11  C   UNL     1       2.268   4.981  19.782  0.00  0.00    +0.000 A 
ATOM     12  C   UNL     1       2.402   4.576  21.118  0.00  0.00    +0.000 A 
ATOM     13  C   UNL     1       1.852   3.368  21.550  0.00  0.00    +0.000 A 
ATOM     14  C   UNL     1       1.164   2.553  20.654  0.00  0.00    +0.000 A 
ATOM     15  C   UNL     1       1.026   2.944  19.326  0.00  0.00    +0.000 A 
ATOM     16  C   UNL     1       1.576   4.152  18.888  0.00  0.00    +0.000 A 
ENDBRANCH  10  11
ENDBRANCH   9  10
ENDBRANCH   7   9
TORSDOF 3
ENDMDL
MODEL 2
REMARK VINA RESULT:      -6.4      1.473      3.405
REMARK  Name = 
REMARK  3 active torsions:
REMARK  status: ('A' for Active; 'I' for Inactive)
REMARK    1  A    between atoms: N_7  and  C_8
REMARK    2  A    between atoms: C_8  and  C_9
REMARK    3  A    between atoms: C_9  and  C_10
REMARK                            x       y       z     vdW  Elec       q    Type
REMARK                         _______ _______ _______ _____ _____    ______ ____
ROOT
ATOM      1 BR   UNL     1       6.344   4.357  13.952  0.00  0.00    +0.000 Br
ATOM      2  C   UNL     1       6.051   4.342  15.815  0.00  0.00    +0.000 A 
ATOM      3  C   UNL     1       6.948   4.973  16.666  0.00  0.00    +0.000 A 
ATOM      4  C   UNL     1       6.695   4.949  18.032  0.00  0.00    +0.000 A 
ATOM      5 BR   UNL     1       7.878   5.802  19.227  0.00  0.00    +0.000 Br
ATOM      6  C   UNL     1       5.560   4.304  18.522  0.00  0.00    +0.000 A 
ATOM      7  N   UNL     1       4.694   3.696  17.670  0.00  0.00    +0.000 N 
ATOM      8  C   UNL     1       4.926   3.705  16.333  0.00  0.00    +0.000 A 
ENDROOT
BRANCH   7   9
ATOM      9  C   UNL     1       3.456   3.059  18.199  0.00  0.00    +0.000 C 
BRANCH   9  10
ATOM     10  C   UNL     1       2.234   3.887  17.813  0.00  0.00    +0.000 C 
BRANCH  10  11
ATOM     11  C   UNL     1       2.156   5.161  18.616  0.00  0.00    +0.000 A 
ATOM     12  C   UNL     1       1.784   5.124  19.968  0.00  0.00    +0.000 A 
ATOM     13  C   UNL     1       1.696   6.303  20.712  0.00  0.00    +0.000 A 
ATOM     14  C   UNL     1       1.977   7.529  20.113  0.00  0.00    +0.000 A 
ATOM     15  C   UNL     1       2.345   7.578  18.772  0.00  0.00    +0.000 A 
ATOM     16  C   UNL     1       2.434   6.401  18.024  0.00  0.00    +0.000 A 
ENDBRANCH  10  11
ENDBRANCH   9  10
ENDBRANCH   7   9
TORSDOF 3
ENDMDL
MODEL 3
REMARK VINA RESULT:      -6.4      0.562      2.467
REMARK  Name = 
REMARK  3 active torsions:
REMARK  status: ('A' for Active; 'I' for Inactive)
REMARK    1  A    between atoms: N_7  and  C_8
REMARK    2  A    between atoms: C_8  and  C_9
REMARK    3  A    between atoms: C_9  and  C_10
REMARK                            x       y       z     vdW  Elec       q    Type
REMARK                         _______ _______ _______ _____ _____    ______ ____
ROOT
ATOM      1 BR   UNL     1       6.360   4.304  14.279  0.00  0.00    +0.000 Br
ATOM      2  C   UNL     1       6.027   4.916  16.032  0.00  0.00    +0.000 A 
ATOM      3  C   UNL     1       7.058   4.967  16.959  0.00  0.00    +0.000 A 
ATOM      4  C   UNL     1       6.777   5.431  18.238  0.00  0.00    +0.000 A 
ATOM      5 BR   UNL     1       8.148   5.529  19.530  0.00  0.00    +0.000 Br
ATOM      6  C   UNL     1       5.485   5.836  18.567  0.00  0.00    +0.000 A 
ATOM      7  N   UNL     1       4.491   5.781  17.642  0.00  0.00    +0.000 N 
ATOM      8  C   UNL     1       4.745   5.327  16.389  0.00  0.00    +0.000 A 
ENDROOT
BRANCH   7   9
ATOM      9  C   UNL     1       3.127   6.269  17.987  0.00  0.00    +0.000 C 
BRANCH   9  10
ATOM     10  C   UNL     1       2.103   5.158  17.777  0.00  0.00    +0.000 C 
BRANCH  10  11
ATOM     11  C   UNL     1       1.953   4.307  19.013  0.00  0.00    +0.000 A 
ATOM     12  C   UNL     1       2.205   4.849  20.281  0.00  0.00    +0.000 A 
ATOM     13  C   UNL     1       2.082   4.060  21.426  0.00  0.00    +0.000 A 
ATOM     14  C   UNL     1       1.708   2.723  21.317  0.00  0.00    +0.000 A 
ATOM     15  C   UNL     1       1.458   2.173  20.063  0.00  0.00    +0.000 A 
ATOM     16  C   UNL     1       1.580   2.958  18.914  0.00  0.00    +0.000 A 
ENDBRANCH  10  11
ENDBRANCH   9  10
ENDBRANCH   7   9
TORSDOF 3
ENDMDL
MODEL 4
REMARK VINA RESULT:      -6.3      1.694      1.875
REMARK  Name = 
REMARK  3 active torsions:
REMARK  status: ('A' for Active; 'I' for Inactive)
REMARK    1  A    between atoms: N_7  and  C_8
REMARK    2  A    between atoms: C_8  and  C_9
REMARK    3  A    between atoms: C_9  and  C_10
REMARK                            x       y       z     vdW  Elec       q    Type
REMARK                         _______ _______ _______ _____ _____    ______ ____
ROOT
ATOM      1 BR   UNL     1       7.754   5.837  18.991  0.00  0.00    +0.000 Br
ATOM      2  C   UNL     1       6.781   5.178  17.515  0.00  0.00    +0.000 A 
ATOM      3  C   UNL     1       7.315   5.259  16.237  0.00  0.00    +0.000 A 
ATOM      4  C   UNL     1       6.574   4.756  15.176  0.00  0.00    +0.000 A 
ATOM      5 BR   UNL     1       7.262   4.834  13.422  0.00  0.00    +0.000 Br
ATOM      6  C   UNL     1       5.324   4.183  15.405  0.00  0.00    +0.000 A 
ATOM      7  N   UNL     1       4.823   4.110  16.665  0.00  0.00    +0.000 N 
ATOM      8  C   UNL     1       5.530   4.600  17.715  0.00  0.00    +0.000 A 
ENDROOT
BRANCH   7   9
ATOM      9  C   UNL     1       3.513   3.445  16.907  0.00  0.00    +0.000 C 
BRANCH   9  10
ATOM     10  C   UNL     1       3.667   2.346  17.953  0.00  0.00    +0.000 C 
BRANCH  10  11
ATOM     11  C   UNL     1       2.819   2.621  19.170  0.00  0.00    +0.000 A 
ATOM     12  C   UNL     1       3.352   2.458  20.456  0.00  0.00    +0.000 A 
ATOM     13  C   UNL     1       2.567   2.697  21.585  0.00  0.00    +0.000 A 
ATOM     14  C   UNL     1       1.241   3.100  21.441  0.00  0.00    +0.000 A 
ATOM     15  C   UNL     1       0.700   3.264  20.170  0.00  0.00    +0.000 A 
ATOM     16  C   UNL     1       1.482   3.025  19.036  0.00  0.00    +0.000 A 
ENDBRANCH  10  11
ENDBRANCH   9  10
ENDBRANCH   7   9
TORSDOF 3
ENDMDL
MODEL 5
REMARK VINA RESULT:      -6.3      0.619      1.321
REMARK  Name = 
REMARK  3 active torsions:
REMARK  status: ('A' for Active; 'I' for Inactive)
REMARK    1  A    between atoms: N_7  and  C_8
REMARK    2  A    between atoms: C_8  and  C_9
REMARK    3  A    between atoms: C_9  and  C_10
REMARK                            x       y       z     vdW  Elec       q    Type
REMARK                         _______ _______ _______ _____ _____    ______ ____
ROOT
ATOM      1 BR   UNL     1       8.086   5.515  19.527  0.00  0.00    +0.000 Br
ATOM      2  C   UNL     1       6.691   5.433  18.261  0.00  0.00    +0.000 A 
ATOM      3  C   UNL     1       6.904   4.832  17.028  0.00  0.00    +0.000 A 
ATOM      4  C   UNL     1       5.850   4.783  16.124  0.00  0.00    +0.000 A 
ATOM      5 BR   UNL     1       6.088   3.967  14.440  0.00  0.00    +0.000 Br
ATOM      6  C   UNL     1       4.612   5.326  16.463  0.00  0.00    +0.000 A 
ATOM      7  N   UNL     1       4.425   5.905  17.676  0.00  0.00    +0.000 N 
ATOM      8  C   UNL     1       5.442   5.967  18.571  0.00  0.00    +0.000 A 
ENDROOT
BRANCH   7   9
ATOM      9  C   UNL     1       3.082   6.431  18.050  0.00  0.00    +0.000 C 
BRANCH   9  10
ATOM     10  C   UNL     1       2.005   5.404  17.716  0.00  0.00    +0.000 C 
BRANCH  10  11
ATOM     11  C   UNL     1       1.846   4.393  18.824  0.00  0.00    +0.000 A 
ATOM     12  C   UNL     1       1.811   3.022  18.531  0.00  0.00    +0.000 A 
ATOM     13  C   UNL     1       1.650   2.083  19.551  0.00  0.00    +0.000 A 
ATOM     14  C   UNL     1       1.520   2.502  20.873  0.00  0.00    +0.000 A 
ATOM     15  C   UNL     1       1.552   3.860  21.176  0.00  0.00    +0.000 A 
ATOM     16  C   UNL     1       1.713   4.804  20.158  0.00  0.00    +0.000 A 
ENDBRANCH  10  11
ENDBRANCH   9  10
ENDBRANCH   7   9
TORSDOF 3
ENDMDL
MODEL 6
REMARK VINA RESULT:      -6.2      3.085      5.854
REMARK  Name = 
REMARK  3 active torsions:
REMARK  status: ('A' for Active; 'I' for Inactive)
REMARK    1  A    between atoms: N_7  and  C_8
REMARK    2  A    between atoms: C_8  and  C_9
REMARK    3  A    between atoms: C_9  and  C_10
REMARK                            x       y       z     vdW  Elec       q    Type
REMARK                         _______ _______ _______ _____ _____    ______ ____
ROOT
ATOM      1 BR   UNL     1       1.519   8.211  20.570  0.00  0.00    +0.000 Br
ATOM      2  C   UNL     1       2.046   6.476  20.050  0.00  0.00    +0.000 A 
ATOM      3  C   UNL     1       1.783   5.392  20.875  0.00  0.00    +0.000 A 
ATOM      4  C   UNL     1       2.179   4.128  20.455  0.00  0.00    +0.000 A 
ATOM      5 BR   UNL     1       1.833   2.623  21.537  0.00  0.00    +0.000 Br
ATOM      6  C   UNL     1       2.822   3.968  19.229  0.00  0.00    +0.000 A 
ATOM      7  N   UNL     1       3.066   5.043  18.436  0.00  0.00    +0.000 N 
ATOM      8  C   UNL     1       2.691   6.286  18.830  0.00  0.00    +0.000 A 
ENDROOT
BRANCH   7   9
ATOM      9  C   UNL     1       3.702   4.854  17.103  0.00  0.00    +0.000 C 
BRANCH   9  10
ATOM     10  C   UNL     1       5.075   4.209  17.263  0.00  0.00    +0.000 C 
BRANCH  10  11
ATOM     11  C   UNL     1       6.109   5.216  17.698  0.00  0.00    +0.000 A 
ATOM     12  C   UNL     1       6.328   6.377  16.944  0.00  0.00    +0.000 A 
ATOM     13  C   UNL     1       7.295   7.305  17.335  0.00  0.00    +0.000 A 
ATOM     14  C   UNL     1       8.054   7.082  18.481  0.00  0.00    +0.000 A 
ATOM     15  C   UNL     1       7.847   5.932  19.237  0.00  0.00    +0.000 A 
ATOM     16  C   UNL     1       6.881   5.000  18.849  0.00  0.00    +0.000 A 
ENDBRANCH  10  11
ENDBRANCH   9  10
ENDBRANCH   7   9
TORSDOF 3
ENDMDL
MODEL 7
REMARK VINA RESULT:      -6.2      3.118      5.906
REMARK  Name = 
REMARK  3 active torsions:
REMARK  status: ('A' for Active; 'I' for Inactive)
REMARK    1  A    between atoms: N_7  and  C_8
REMARK    2  A    between atoms: C_8  and  C_9
REMARK    3  A    between atoms: C_9  and  C_10
REMARK                            x       y       z     vdW  Elec       q    Type
REMARK                         _______ _______ _______ _____ _____    ______ ____
ROOT
ATOM      1 BR   UNL     1       1.649   2.682  21.567  0.00  0.00    +0.000 Br
ATOM      2  C   UNL     1       2.022   4.185  20.490  0.00  0.00    +0.000 A 
ATOM      3  C   UNL     1       1.661   5.455  20.917  0.00  0.00    +0.000 A 
ATOM      4  C   UNL     1       1.960   6.539  20.101  0.00  0.00    +0.000 A 
ATOM      5 BR   UNL     1       1.498   8.285  20.644  0.00  0.00    +0.000 Br
ATOM      6  C   UNL     1       2.611   6.340  18.885  0.00  0.00    +0.000 A 
ATOM      7  N   UNL     1       2.960   5.089  18.489  0.00  0.00    +0.000 N 
ATOM      8  C   UNL     1       2.673   4.017  19.269  0.00  0.00    +0.000 A 
ENDROOT
BRANCH   7   9
ATOM      9  C   UNL     1       3.706   4.894  17.215  0.00  0.00    +0.000 C 
BRANCH   9  10
ATOM     10  C   UNL     1       5.073   4.278  17.496  0.00  0.00    +0.000 C 
BRANCH  10  11
ATOM     11  C   UNL     1       6.111   5.340  17.758  0.00  0.00    +0.000 A 
ATOM     12  C   UNL     1       7.054   5.170  18.782  0.00  0.00    +0.000 A 
ATOM     13  C   UNL     1       8.008   6.157  19.038  0.00  0.00    +0.000 A 
ATOM     14  C   UNL     1       8.029   7.322  18.276  0.00  0.00    +0.000 A 
ATOM     15  C   UNL     1       7.098   7.502  17.257  0.00  0.00    +0.000 A 
ATOM     16  C   UNL     1       6.141   6.518  16.998  0.00  0.00    +0.000 A 
ENDBRANCH  10  11
ENDBRANCH   9  10
ENDBRANCH   7   9
TORSDOF 3
ENDMDL
MODEL 8
REMARK VINA RESULT:      -6.2      3.085      6.451
REMARK  Name = 
REMARK  3 active torsions:
REMARK  status: ('A' for Active; 'I' for Inactive)
REMARK    1  A    between atoms: N_7  and  C_8
REMARK    2  A    between atoms: C_8  and  C_9
REMARK    3  A    between atoms: C_9  and  C_10
REMARK                            x       y       z     vdW  Elec       q    Type
REMARK                         _______ _______ _______ _____ _____    ______ ____
ROOT
ATOM      1 BR   UNL     1       2.129   2.144  18.445  0.00  0.00    +0.000 Br
ATOM      2  C   UNL     1       3.125   3.694  18.041  0.00  0.00    +0.000 A 
ATOM      3  C   UNL     1       2.549   4.949  18.187  0.00  0.00    +0.000 A 
ATOM      4  C   UNL     1       3.316   6.068  17.888  0.00  0.00    +0.000 A 
ATOM      5 BR   UNL     1       2.581   7.794  18.081  0.00  0.00    +0.000 Br
ATOM      6  C   UNL     1       4.633   5.919  17.457  0.00  0.00    +0.000 A 
ATOM      7  N   UNL     1       5.177   4.682  17.325  0.00  0.00    +0.000 N 
ATOM      8  C   UNL     1       4.443   3.576  17.608  0.00  0.00    +0.000 A 
ENDROOT
BRANCH   7   9
ATOM      9  C   UNL     1       6.602   4.536  16.918  0.00  0.00    +0.000 C 
BRANCH   9  10
ATOM     10  C   UNL     1       6.935   5.527  15.808  0.00  0.00    +0.000 C 
BRANCH  10  11
ATOM     11  C   UNL     1       6.784   4.898  14.445  0.00  0.00    +0.000 A 
ATOM     12  C   UNL     1       7.720   5.164  13.435  0.00  0.00    +0.000 A 
ATOM     13  C   UNL     1       7.576   4.596  12.168  0.00  0.00    +0.000 A 
ATOM     14  C   UNL     1       6.497   3.759  11.896  0.00  0.00    +0.000 A 
ATOM     15  C   UNL     1       5.561   3.489  12.890  0.00  0.00    +0.000 A 
ATOM     16  C   UNL     1       5.700   4.055  14.160  0.00  0.00    +0.000 A 
ENDBRANCH  10  11
ENDBRANCH   9  10
ENDBRANCH   7   9
TORSDOF 3
ENDMDL
MODEL 9
REMARK VINA RESULT:      -6.2      1.387      3.230
REMARK  Name = 
REMARK  3 active torsions:
REMARK  status: ('A' for Active; 'I' for Inactive)
REMARK    1  A    between atoms: N_7  and  C_8
REMARK    2  A    between atoms: C_8  and  C_9
REMARK    3  A    between atoms: C_9  and  C_10
REMARK                            x       y       z     vdW  Elec       q    Type
REMARK                         _______ _______ _______ _____ _____    ______ ____
ROOT
ATOM      1 BR   UNL     1       6.985   4.621  13.555  0.00  0.00    +0.000 Br
ATOM      2  C   UNL     1       6.519   4.509  15.379  0.00  0.00    +0.000 A 
ATOM      3  C   UNL     1       7.270   5.183  16.332  0.00  0.00    +0.000 A 
ATOM      4  C   UNL     1       6.892   5.083  17.665  0.00  0.00    +0.000 A 
ATOM      5 BR   UNL     1       7.874   5.990  18.995  0.00  0.00    +0.000 Br
ATOM      6  C   UNL     1       5.780   4.323  18.022  0.00  0.00    +0.000 A 
ATOM      7  N   UNL     1       5.057   3.675  17.072  0.00  0.00    +0.000 N 
ATOM      8  C   UNL     1       5.413   3.756  15.765  0.00  0.00    +0.000 A 
ENDROOT
BRANCH   7   9
ATOM      9  C   UNL     1       3.838   2.912  17.458  0.00  0.00    +0.000 C 
BRANCH   9  10
ATOM     10  C   UNL     1       2.592   3.759  17.222  0.00  0.00    +0.000 C 
BRANCH  10  11
ATOM     11  C   UNL     1       2.242   4.576  18.440  0.00  0.00    +0.000 A 
ATOM     12  C   UNL     1       2.594   5.931  18.508  0.00  0.00    +0.000 A 
ATOM     13  C   UNL     1       2.286   6.688  19.640  0.00  0.00    +0.000 A 
ATOM     14  C   UNL     1       1.626   6.099  20.716  0.00  0.00    +0.000 A 
ATOM     15  C   UNL     1       1.273   4.754  20.661  0.00  0.00    +0.000 A 
ATOM     16  C   UNL     1       1.580   3.992  19.530  0.00  0.00    +0.000 A 
ENDBRANCH  10  11
ENDBRANCH   9  10
ENDBRANCH   7   9
TORSDOF 3
ENDMDL
