MODEL 1
REMARK VINA RESULT:      -8.2      0.000      0.000
REMARK  Name = 
REMARK  5 active torsions:
REMARK  status: ('A' for Active; 'I' for Inactive)
REMARK    1  A    between atoms: C_2  and  C_3
REMARK    2  A    between atoms: C_3  and  N_4
REMARK    3  A    between atoms: N_7  and  C_8
REMARK    4  A    between atoms: N_19  and  C_20
REMARK    5  A    between atoms: C_20  and  C_21
REMARK                            x       y       z     vdW  Elec       q    Type
REMARK                         _______ _______ _______ _____ _____    ______ ____
ROOT
ATOM      1  O   UNL     1       3.269   2.684  19.873  0.00  0.00    +0.000 OA
ATOM      2  C   UNL     1       3.758   3.805  19.814  0.00  0.00    +0.000 C 
ATOM      3  N   UNL     1       3.139   4.978  20.180  0.00  0.00    +0.000 N 
ATOM      4  C   UNL     1       1.876   5.060  20.691  0.00  0.00    +0.000 C 
ATOM      5  O   UNL     1       1.206   4.125  21.114  0.00  0.00    +0.000 OA
ATOM      6  N   UNL     1       1.321   6.302  20.718  0.00  0.00    +0.000 N 
ATOM      7  H   UNL     1       3.732   5.789  20.222  0.00  0.00    +0.000 HD
ATOM      8  H   UNL     1       0.415   6.306  21.169  0.00  0.00    +0.000 HD
ENDROOT
BRANCH   2   9
ATOM      9  C   UNL     1       5.121   4.009  19.169  0.00  0.00    +0.000 C 
BRANCH   9  10
ATOM     10  N   UNL     1       5.279   5.311  18.474  0.00  0.00    +0.000 NA
ATOM     11  C   UNL     1       6.679   5.540  18.009  0.00  0.00    +0.000 C 
ATOM     12  C   UNL     1       7.212   4.591  16.899  0.00  0.00    +0.000 C 
ATOM     13  N   UNL     1       6.245   4.480  15.792  0.00  0.00    +0.000 N 
ATOM     14  C   UNL     1       4.850   4.244  16.177  0.00  0.00    +0.000 C 
ATOM     15  C   UNL     1       4.428   5.286  17.245  0.00  0.00    +0.000 C 
BRANCH  13  16
ATOM     16  C   UNL     1       6.623   4.399  14.463  0.00  0.00    +0.000 A 
ATOM     17  C   UNL     1       5.959   3.560  13.552  0.00  0.00    +0.000 A 
ATOM     18  C   UNL     1       6.242   3.576  12.181  0.00  0.00    +0.000 A 
ATOM     19  C   UNL     1       7.221   4.426  11.686  0.00  0.00    +0.000 A 
ATOM     20  C   UNL     1       7.926   5.238  12.567  0.00  0.00    +0.000 A 
ATOM     21  C   UNL     1       7.632   5.217  13.937  0.00  0.00    +0.000 A 
ENDBRANCH  13  16
ENDBRANCH   9  10
ENDBRANCH   2   9
BRANCH   6  22
ATOM     22  C   UNL     1       1.895   7.570  20.330  0.00  0.00    +0.000 C 
BRANCH  22  23
ATOM     23  C   UNL     1       1.034   8.705  20.816  0.00  0.00    +0.000 A 
ATOM     24  C   UNL     1       0.764   9.810  19.998  0.00  0.00    +0.000 A 
ATOM     25  C   UNL     1       0.038  10.893  20.494  0.00  0.00    +0.000 A 
ATOM     26  C   UNL     1      -0.436  10.876  21.805  0.00  0.00    +0.000 A 
ATOM     27  C   UNL     1      -0.190   9.774  22.622  0.00  0.00    +0.000 A 
ATOM     28  C   UNL     1       0.541   8.694  22.130  0.00  0.00    +0.000 A 
ENDBRANCH  22  23
ENDBRANCH   6  22
TORSDOF 5
ENDMDL
MODEL 2
REMARK VINA RESULT:      -8.1      2.320      3.103
REMARK  Name = 
REMARK  5 active torsions:
REMARK  status: ('A' for Active; 'I' for Inactive)
REMARK    1  A    between atoms: C_2  and  C_3
REMARK    2  A    between atoms: C_3  and  N_4
REMARK    3  A    between atoms: N_7  and  C_8
REMARK    4  A    between atoms: N_19  and  C_20
REMARK    5  A    between atoms: C_20  and  C_21
REMARK                            x       y       z     vdW  Elec       q    Type
REMARK                         _______ _______ _______ _____ _____    ______ ____
ROOT
ATOM      1  O   UNL     1       2.485   5.924  20.647  0.00  0.00    +0.000 OA
ATOM      2  C   UNL     1       2.547   6.553  19.597  0.00  0.00    +0.000 C 
ATOM      3  N   UNL     1       2.012   7.801  19.370  0.00  0.00    +0.000 N 
ATOM      4  C   UNL     1       1.344   8.538  20.304  0.00  0.00    +0.000 C 
ATOM      5  O   UNL     1       1.320   8.326  21.510  0.00  0.00    +0.000 OA
ATOM      6  N   UNL     1       0.637   9.601  19.833  0.00  0.00    +0.000 N 
ATOM      7  H   UNL     1       2.290   8.243  18.511  0.00  0.00    +0.000 HD
ATOM      8  H   UNL     1       0.221  10.144  20.578  0.00  0.00    +0.000 HD
ENDROOT
BRANCH   2   9
ATOM      9  C   UNL     1       3.140   5.907  18.354  0.00  0.00    +0.000 C 
BRANCH   9  10
ATOM     10  N   UNL     1       4.555   5.484  18.502  0.00  0.00    +0.000 NA
ATOM     11  C   UNL     1       4.783   4.088  18.023  0.00  0.00    +0.000 C 
ATOM     12  C   UNL     1       4.595   3.831  16.501  0.00  0.00    +0.000 C 
ATOM     13  N   UNL     1       5.313   4.841  15.704  0.00  0.00    +0.000 N 
ATOM     14  C   UNL     1       5.126   6.237  16.113  0.00  0.00    +0.000 C 
ATOM     15  C   UNL     1       5.394   6.367  17.635  0.00  0.00    +0.000 C 
BRANCH  13  16
ATOM     16  C   UNL     1       5.968   4.545  14.521  0.00  0.00    +0.000 A 
ATOM     17  C   UNL     1       5.435   3.646  13.581  0.00  0.00    +0.000 A 
ATOM     18  C   UNL     1       6.019   3.447  12.325  0.00  0.00    +0.000 A 
ATOM     19  C   UNL     1       7.174   4.136  11.981  0.00  0.00    +0.000 A 
ATOM     20  C   UNL     1       7.750   5.001  12.904  0.00  0.00    +0.000 A 
ATOM     21  C   UNL     1       7.156   5.195  14.159  0.00  0.00    +0.000 A 
ENDBRANCH  13  16
ENDBRANCH   9  10
ENDBRANCH   2   9
BRANCH   6  22
ATOM     22  C   UNL     1       0.528  10.102  18.481  0.00  0.00    +0.000 C 
BRANCH  22  23
ATOM     23  C   UNL     1      -0.903  10.444  18.164  0.00  0.00    +0.000 A 
ATOM     24  C   UNL     1      -1.615  11.369  18.940  0.00  0.00    +0.000 A 
ATOM     25  C   UNL     1      -2.965  11.608  18.687  0.00  0.00    +0.000 A 
ATOM     26  C   UNL     1      -3.613  10.939  17.650  0.00  0.00    +0.000 A 
ATOM     27  C   UNL     1      -2.910  10.032  16.859  0.00  0.00    +0.000 A 
ATOM     28  C   UNL     1      -1.563   9.786  17.114  0.00  0.00    +0.000 A 
ENDBRANCH  22  23
ENDBRANCH   6  22
TORSDOF 5
ENDMDL
MODEL 3
REMARK VINA RESULT:      -8.0      0.958      1.782
REMARK  Name = 
REMARK  5 active torsions:
REMARK  status: ('A' for Active; 'I' for Inactive)
REMARK    1  A    between atoms: C_2  and  C_3
REMARK    2  A    between atoms: C_3  and  N_4
REMARK    3  A    between atoms: N_7  and  C_8
REMARK    4  A    between atoms: N_19  and  C_20
REMARK    5  A    between atoms: C_20  and  C_21
REMARK                            x       y       z     vdW  Elec       q    Type
REMARK                         _______ _______ _______ _____ _____    ______ ____
ROOT
ATOM      1  O   UNL     1       3.349   3.556  19.256  0.00  0.00    +0.000 OA
ATOM      2  C   UNL     1       3.794   4.640  19.613  0.00  0.00    +0.000 C 
ATOM      3  N   UNL     1       3.107   5.606  20.311  0.00  0.00    +0.000 N 
ATOM      4  C   UNL     1       1.815   5.483  20.734  0.00  0.00    +0.000 C 
ATOM      5  O   UNL     1       1.161   4.447  20.771  0.00  0.00    +0.000 OA
ATOM      6  N   UNL     1       1.208   6.631  21.143  0.00  0.00    +0.000 N 
ATOM      7  H   UNL     1       3.663   6.365  20.665  0.00  0.00    +0.000 HD
ATOM      8  H   UNL     1       0.279   6.463  21.507  0.00  0.00    +0.000 HD
ENDROOT
BRANCH   2   9
ATOM      9  C   UNL     1       5.181   5.078  19.167  0.00  0.00    +0.000 C 
BRANCH   9  10
ATOM     10  N   UNL     1       5.187   6.241  18.245  0.00  0.00    +0.000 NA
ATOM     11  C   UNL     1       6.532   6.482  17.643  0.00  0.00    +0.000 C 
ATOM     12  C   UNL     1       7.073   5.388  16.680  0.00  0.00    +0.000 C 
ATOM     13  N   UNL     1       6.053   5.010  15.685  0.00  0.00    +0.000 N 
ATOM     14  C   UNL     1       4.708   4.749  16.210  0.00  0.00    +0.000 C 
ATOM     15  C   UNL     1       4.267   5.934  17.108  0.00  0.00    +0.000 C 
BRANCH  13  16
ATOM     16  C   UNL     1       6.353   4.718  14.367  0.00  0.00    +0.000 A 
ATOM     17  C   UNL     1       7.456   5.294  13.710  0.00  0.00    +0.000 A 
ATOM     18  C   UNL     1       7.848   4.899  12.426  0.00  0.00    +0.000 A 
ATOM     19  C   UNL     1       7.128   3.923  11.751  0.00  0.00    +0.000 A 
ATOM     20  C   UNL     1       6.007   3.365  12.355  0.00  0.00    +0.000 A 
ATOM     21  C   UNL     1       5.625   3.765  13.643  0.00  0.00    +0.000 A 
ENDBRANCH  13  16
ENDBRANCH   9  10
ENDBRANCH   2   9
BRANCH   6  22
ATOM     22  C   UNL     1       1.751   7.967  21.246  0.00  0.00    +0.000 C 
BRANCH  22  23
ATOM     23  C   UNL     1       1.103   8.873  20.234  0.00  0.00    +0.000 A 
ATOM     24  C   UNL     1      -0.004   9.662  20.573  0.00  0.00    +0.000 A 
ATOM     25  C   UNL     1      -0.647  10.429  19.601  0.00  0.00    +0.000 A 
ATOM     26  C   UNL     1      -0.181  10.427  18.287  0.00  0.00    +0.000 A 
ATOM     27  C   UNL     1       0.931   9.661  17.943  0.00  0.00    +0.000 A 
ATOM     28  C   UNL     1       1.570   8.889  18.910  0.00  0.00    +0.000 A 
ENDBRANCH  22  23
ENDBRANCH   6  22
TORSDOF 5
ENDMDL
MODEL 4
REMARK VINA RESULT:      -8.0      0.887      1.701
REMARK  Name = 
REMARK  5 active torsions:
REMARK  status: ('A' for Active; 'I' for Inactive)
REMARK    1  A    between atoms: C_2  and  C_3
REMARK    2  A    between atoms: C_3  and  N_4
REMARK    3  A    between atoms: N_7  and  C_8
REMARK    4  A    between atoms: N_19  and  C_20
REMARK    5  A    between atoms: C_20  and  C_21
REMARK                            x       y       z     vdW  Elec       q    Type
REMARK                         _______ _______ _______ _____ _____    ______ ____
ROOT
ATOM      1  O   UNL     1       3.254   3.014  19.075  0.00  0.00    +0.000 OA
ATOM      2  C   UNL     1       3.754   4.045  19.512  0.00  0.00    +0.000 C 
ATOM      3  N   UNL     1       3.091   5.037  20.197  0.00  0.00    +0.000 N 
ATOM      4  C   UNL     1       1.764   5.005  20.514  0.00  0.00    +0.000 C 
ATOM      5  O   UNL     1       1.030   4.025  20.456  0.00  0.00    +0.000 OA
ATOM      6  N   UNL     1       1.218   6.182  20.925  0.00  0.00    +0.000 N 
ATOM      7  H   UNL     1       3.675   5.735  20.625  0.00  0.00    +0.000 HD
ATOM      8  H   UNL     1       0.253   6.078  21.209  0.00  0.00    +0.000 HD
ENDROOT
BRANCH   2   9
ATOM      9  C   UNL     1       5.202   4.385  19.193  0.00  0.00    +0.000 C 
BRANCH   9  10
ATOM     10  N   UNL     1       5.381   5.662  18.458  0.00  0.00    +0.000 NA
ATOM     11  C   UNL     1       6.764   5.813  17.913  0.00  0.00    +0.000 C 
ATOM     12  C   UNL     1       7.191   4.815  16.801  0.00  0.00    +0.000 C 
ATOM     13  N   UNL     1       6.161   4.724  15.750  0.00  0.00    +0.000 N 
ATOM     14  C   UNL     1       4.780   4.564  16.215  0.00  0.00    +0.000 C 
ATOM     15  C   UNL     1       4.465   5.649  17.278  0.00  0.00    +0.000 C 
BRANCH  13  16
ATOM     16  C   UNL     1       6.462   4.595  14.406  0.00  0.00    +0.000 A 
ATOM     17  C   UNL     1       7.500   5.327  13.803  0.00  0.00    +0.000 A 
ATOM     18  C   UNL     1       7.901   5.101  12.481  0.00  0.00    +0.000 A 
ATOM     19  C   UNL     1       7.253   4.141  11.715  0.00  0.00    +0.000 A 
ATOM     20  C   UNL     1       6.194   3.431  12.268  0.00  0.00    +0.000 A 
ATOM     21  C   UNL     1       5.802   3.663  13.594  0.00  0.00    +0.000 A 
ENDBRANCH  13  16
ENDBRANCH   9  10
ENDBRANCH   2   9
BRANCH   6  22
ATOM     22  C   UNL     1       1.854   7.465  21.127  0.00  0.00    +0.000 C 
BRANCH  22  23
ATOM     23  C   UNL     1       1.443   8.427  20.045  0.00  0.00    +0.000 A 
ATOM     24  C   UNL     1       1.937   8.302  18.740  0.00  0.00    +0.000 A 
ATOM     25  C   UNL     1       1.618   9.253  17.771  0.00  0.00    +0.000 A 
ATOM     26  C   UNL     1       0.790  10.328  18.093  0.00  0.00    +0.000 A 
ATOM     27  C   UNL     1       0.277  10.452  19.382  0.00  0.00    +0.000 A 
ATOM     28  C   UNL     1       0.601   9.507  20.353  0.00  0.00    +0.000 A 
ENDBRANCH  22  23
ENDBRANCH   6  22
TORSDOF 5
ENDMDL
MODEL 5
REMARK VINA RESULT:      -7.9      0.579      1.432
REMARK  Name = 
REMARK  5 active torsions:
REMARK  status: ('A' for Active; 'I' for Inactive)
REMARK    1  A    between atoms: C_2  and  C_3
REMARK    2  A    between atoms: C_3  and  N_4
REMARK    3  A    between atoms: N_7  and  C_8
REMARK    4  A    between atoms: N_19  and  C_20
REMARK    5  A    between atoms: C_20  and  C_21
REMARK                            x       y       z     vdW  Elec       q    Type
REMARK                         _______ _______ _______ _____ _____    ______ ____
ROOT
ATOM      1  O   UNL     1       4.021   3.175  20.052  0.00  0.00    +0.000 OA
ATOM      2  C   UNL     1       4.278   4.360  19.876  0.00  0.00    +0.000 C 
ATOM      3  N   UNL     1       3.466   5.421  20.207  0.00  0.00    +0.000 N 
ATOM      4  C   UNL     1       2.247   5.304  20.809  0.00  0.00    +0.000 C 
ATOM      5  O   UNL     1       1.800   4.298  21.348  0.00  0.00    +0.000 OA
ATOM      6  N   UNL     1       1.462   6.416  20.793  0.00  0.00    +0.000 N 
ATOM      7  H   UNL     1       3.891   6.330  20.145  0.00  0.00    +0.000 HD
ATOM      8  H   UNL     1       0.603   6.286  21.312  0.00  0.00    +0.000 HD
ENDROOT
BRANCH   2   9
ATOM      9  C   UNL     1       5.530   4.764  19.113  0.00  0.00    +0.000 C 
BRANCH   9  10
ATOM     10  N   UNL     1       5.346   5.928  18.210  0.00  0.00    +0.000 NA
ATOM     11  C   UNL     1       6.610   6.309  17.511  0.00  0.00    +0.000 C 
ATOM     12  C   UNL     1       7.182   5.283  16.493  0.00  0.00    +0.000 C 
ATOM     13  N   UNL     1       6.132   4.810  15.574  0.00  0.00    +0.000 N 
ATOM     14  C   UNL     1       4.866   4.409  16.196  0.00  0.00    +0.000 C 
ATOM     15  C   UNL     1       4.377   5.536  17.142  0.00  0.00    +0.000 C 
BRANCH  13  16
ATOM     16  C   UNL     1       6.358   4.559  14.232  0.00  0.00    +0.000 A 
ATOM     17  C   UNL     1       7.414   5.165  13.530  0.00  0.00    +0.000 A 
ATOM     18  C   UNL     1       7.735   4.813  12.214  0.00  0.00    +0.000 A 
ATOM     19  C   UNL     1       6.985   3.848  11.554  0.00  0.00    +0.000 A 
ATOM     20  C   UNL     1       5.907   3.260  12.206  0.00  0.00    +0.000 A 
ATOM     21  C   UNL     1       5.597   3.619  13.524  0.00  0.00    +0.000 A 
ENDBRANCH  13  16
ENDBRANCH   9  10
ENDBRANCH   2   9
BRANCH   6  22
ATOM     22  C   UNL     1       1.752   7.733  20.273  0.00  0.00    +0.000 C 
BRANCH  22  23
ATOM     23  C   UNL     1       0.998   8.779  21.050  0.00  0.00    +0.000 A 
ATOM     24  C   UNL     1       0.316   8.452  22.229  0.00  0.00    +0.000 A 
ATOM     25  C   UNL     1      -0.450   9.413  22.889  0.00  0.00    +0.000 A 
ATOM     26  C   UNL     1      -0.529  10.711  22.386  0.00  0.00    +0.000 A 
ATOM     27  C   UNL     1       0.161  11.052  21.225  0.00  0.00    +0.000 A 
ATOM     28  C   UNL     1       0.921  10.092  20.560  0.00  0.00    +0.000 A 
ENDBRANCH  22  23
ENDBRANCH   6  22
TORSDOF 5
ENDMDL
MODEL 6
REMARK VINA RESULT:      -7.8      3.194      8.316
REMARK  Name = 
REMARK  5 active torsions:
REMARK  status: ('A' for Active; 'I' for Inactive)
REMARK    1  A    between atoms: C_2  and  C_3
REMARK    2  A    between atoms: C_3  and  N_4
REMARK    3  A    between atoms: N_7  and  C_8
REMARK    4  A    between atoms: N_19  and  C_20
REMARK    5  A    between atoms: C_20  and  C_21
REMARK                            x       y       z     vdW  Elec       q    Type
REMARK                         _______ _______ _______ _____ _____    ______ ____
ROOT
ATOM      1  O   UNL     1       4.963   6.751  16.055  0.00  0.00    +0.000 OA
ATOM      2  C   UNL     1       4.630   6.681  17.232  0.00  0.00    +0.000 C 
ATOM      3  N   UNL     1       4.907   5.642  18.090  0.00  0.00    +0.000 N 
ATOM      4  C   UNL     1       5.625   4.531  17.754  0.00  0.00    +0.000 C 
ATOM      5  O   UNL     1       6.314   4.392  16.750  0.00  0.00    +0.000 OA
ATOM      6  N   UNL     1       5.552   3.486  18.622  0.00  0.00    +0.000 N 
ATOM      7  H   UNL     1       4.705   5.813  19.060  0.00  0.00    +0.000 HD
ATOM      8  H   UNL     1       6.156   2.721  18.352  0.00  0.00    +0.000 HD
ENDROOT
BRANCH   2   9
ATOM      9  C   UNL     1       3.717   7.740  17.830  0.00  0.00    +0.000 C 
BRANCH   9  10
ATOM     10  N   UNL     1       2.276   7.383  17.818  0.00  0.00    +0.000 NA
ATOM     11  C   UNL     1       1.827   6.792  19.113  0.00  0.00    +0.000 C 
ATOM     12  C   UNL     1       1.848   7.728  20.354  0.00  0.00    +0.000 C 
ATOM     13  N   UNL     1       1.203   9.018  20.052  0.00  0.00    +0.000 N 
ATOM     14  C   UNL     1       1.607   9.661  18.797  0.00  0.00    +0.000 C 
ATOM     15  C   UNL     1       1.490   8.641  17.635  0.00  0.00    +0.000 C 
BRANCH  13  16
ATOM     16  C   UNL     1       0.416   9.702  20.962  0.00  0.00    +0.000 A 
ATOM     17  C   UNL     1       0.082   9.156  22.214  0.00  0.00    +0.000 A 
ATOM     18  C   UNL     1      -0.593   9.893  23.192  0.00  0.00    +0.000 A 
ATOM     19  C   UNL     1      -0.974  11.203  22.933  0.00  0.00    +0.000 A 
ATOM     20  C   UNL     1      -0.696  11.759  21.689  0.00  0.00    +0.000 A 
ATOM     21  C   UNL     1      -0.016  11.012  20.718  0.00  0.00    +0.000 A 
ENDBRANCH  13  16
ENDBRANCH   9  10
ENDBRANCH   2   9
BRANCH   6  22
ATOM     22  C   UNL     1       4.860   3.394  19.888  0.00  0.00    +0.000 C 
BRANCH  22  23
ATOM     23  C   UNL     1       3.406   3.074  19.668  0.00  0.00    +0.000 A 
ATOM     24  C   UNL     1       2.979   2.413  18.508  0.00  0.00    +0.000 A 
ATOM     25  C   UNL     1       1.620   2.203  18.278  0.00  0.00    +0.000 A 
ATOM     26  C   UNL     1       0.677   2.637  19.209  0.00  0.00    +0.000 A 
ATOM     27  C   UNL     1       1.091   3.277  20.374  0.00  0.00    +0.000 A 
ATOM     28  C   UNL     1       2.448   3.495  20.603  0.00  0.00    +0.000 A 
ENDBRANCH  22  23
ENDBRANCH   6  22
TORSDOF 5
ENDMDL
MODEL 7
REMARK VINA RESULT:      -7.7      2.268      8.578
REMARK  Name = 
REMARK  5 active torsions:
REMARK  status: ('A' for Active; 'I' for Inactive)
REMARK    1  A    between atoms: C_2  and  C_3
REMARK    2  A    between atoms: C_3  and  N_4
REMARK    3  A    between atoms: N_7  and  C_8
REMARK    4  A    between atoms: N_19  and  C_20
REMARK    5  A    between atoms: C_20  and  C_21
REMARK                            x       y       z     vdW  Elec       q    Type
REMARK                         _______ _______ _______ _____ _____    ______ ____
ROOT
ATOM      1  O   UNL     1       1.796   4.203  18.932  0.00  0.00    +0.000 OA
ATOM      2  C   UNL     1       2.336   4.879  18.064  0.00  0.00    +0.000 C 
ATOM      3  N   UNL     1       3.439   4.515  17.326  0.00  0.00    +0.000 N 
ATOM      4  C   UNL     1       4.086   3.319  17.440  0.00  0.00    +0.000 C 
ATOM      5  O   UNL     1       3.669   2.323  18.019  0.00  0.00    +0.000 OA
ATOM      6  N   UNL     1       5.313   3.245  16.855  0.00  0.00    +0.000 N 
ATOM      7  H   UNL     1       3.657   5.112  16.547  0.00  0.00    +0.000 HD
ATOM      8  H   UNL     1       5.710   2.316  16.916  0.00  0.00    +0.000 HD
ENDROOT
BRANCH   2   9
ATOM      9  C   UNL     1       1.881   6.309  17.818  0.00  0.00    +0.000 C 
BRANCH   9  10
ATOM     10  N   UNL     1       2.773   7.343  18.402  0.00  0.00    +0.000 NA
ATOM     11  C   UNL     1       2.322   8.729  18.079  0.00  0.00    +0.000 C 
ATOM     12  C   UNL     1       0.967   9.184  18.691  0.00  0.00    +0.000 C 
ATOM     13  N   UNL     1       0.910   8.877  20.131  0.00  0.00    +0.000 N 
ATOM     14  C   UNL     1       1.330   7.527  20.518  0.00  0.00    +0.000 C 
ATOM     15  C   UNL     1       2.713   7.218  19.890  0.00  0.00    +0.000 C 
BRANCH  13  16
ATOM     16  C   UNL     1       0.317   9.714  21.060  0.00  0.00    +0.000 A 
ATOM     17  C   UNL     1      -0.211  10.967  20.701  0.00  0.00    +0.000 A 
ATOM     18  C   UNL     1      -0.935  11.756  21.602  0.00  0.00    +0.000 A 
ATOM     19  C   UNL     1      -1.133  11.317  22.904  0.00  0.00    +0.000 A 
ATOM     20  C   UNL     1      -0.587  10.102  23.303  0.00  0.00    +0.000 A 
ATOM     21  C   UNL     1       0.133   9.318  22.391  0.00  0.00    +0.000 A 
ENDBRANCH  13  16
ENDBRANCH   9  10
ENDBRANCH   2   9
BRANCH   6  22
ATOM     22  C   UNL     1       6.019   4.239  16.079  0.00  0.00    +0.000 C 
BRANCH  22  23
ATOM     23  C   UNL     1       6.694   5.230  16.988  0.00  0.00    +0.000 A 
ATOM     24  C   UNL     1       6.746   6.592  16.662  0.00  0.00    +0.000 A 
ATOM     25  C   UNL     1       7.451   7.483  17.470  0.00  0.00    +0.000 A 
ATOM     26  C   UNL     1       8.097   7.026  18.618  0.00  0.00    +0.000 A 
ATOM     27  C   UNL     1       8.035   5.678  18.963  0.00  0.00    +0.000 A 
ATOM     28  C   UNL     1       7.337   4.784  18.153  0.00  0.00    +0.000 A 
ENDBRANCH  22  23
ENDBRANCH   6  22
TORSDOF 5
ENDMDL
MODEL 8
REMARK VINA RESULT:      -7.6      3.132      8.320
REMARK  Name = 
REMARK  5 active torsions:
REMARK  status: ('A' for Active; 'I' for Inactive)
REMARK    1  A    between atoms: C_2  and  C_3
REMARK    2  A    between atoms: C_3  and  N_4
REMARK    3  A    between atoms: N_7  and  C_8
REMARK    4  A    between atoms: N_19  and  C_20
REMARK    5  A    between atoms: C_20  and  C_21
REMARK                            x       y       z     vdW  Elec       q    Type
REMARK                         _______ _______ _______ _____ _____    ______ ____
ROOT
ATOM      1  O   UNL     1       5.773   7.042  17.016  0.00  0.00    +0.000 OA
ATOM      2  C   UNL     1       4.668   6.749  17.458  0.00  0.00    +0.000 C 
ATOM      3  N   UNL     1       4.149   5.479  17.562  0.00  0.00    +0.000 N 
ATOM      4  C   UNL     1       4.811   4.341  17.203  0.00  0.00    +0.000 C 
ATOM      5  O   UNL     1       6.010   4.246  16.965  0.00  0.00    +0.000 OA
ATOM      6  N   UNL     1       4.053   3.216  17.096  0.00  0.00    +0.000 N 
ATOM      7  H   UNL     1       3.299   5.398  18.093  0.00  0.00    +0.000 HD
ATOM      8  H   UNL     1       4.611   2.396  16.894  0.00  0.00    +0.000 HD
ENDROOT
BRANCH   2   9
ATOM      9  C   UNL     1       3.678   7.845  17.822  0.00  0.00    +0.000 C 
BRANCH   9  10
ATOM     10  N   UNL     1       2.262   7.403  17.855  0.00  0.00    +0.000 NA
ATOM     11  C   UNL     1       1.877   6.831  19.179  0.00  0.00    +0.000 C 
ATOM     12  C   UNL     1       1.868   7.808  20.388  0.00  0.00    +0.000 C 
ATOM     13  N   UNL     1       1.140   9.047  20.058  0.00  0.00    +0.000 N 
ATOM     14  C   UNL     1       1.477   9.669  18.774  0.00  0.00    +0.000 C 
ATOM     15  C   UNL     1       1.397   8.604  17.649  0.00  0.00    +0.000 C 
BRANCH  13  16
ATOM     16  C   UNL     1       0.333   9.714  20.963  0.00  0.00    +0.000 A 
ATOM     17  C   UNL     1       0.118   9.229  22.265  0.00  0.00    +0.000 A 
ATOM     18  C   UNL     1      -0.580   9.965  23.229  0.00  0.00    +0.000 A 
ATOM     19  C   UNL     1      -1.104  11.209  22.905  0.00  0.00    +0.000 A 
ATOM     20  C   UNL     1      -0.946  11.698  21.613  0.00  0.00    +0.000 A 
ATOM     21  C   UNL     1      -0.242  10.954  20.657  0.00  0.00    +0.000 A 
ENDBRANCH  13  16
ENDBRANCH   9  10
ENDBRANCH   2   9
BRANCH   6  22
ATOM     22  C   UNL     1       2.643   3.034  17.359  0.00  0.00    +0.000 C 
BRANCH  22  23
ATOM     23  C   UNL     1       2.399   2.913  18.839  0.00  0.00    +0.000 A 
ATOM     24  C   UNL     1       1.173   3.291  19.403  0.00  0.00    +0.000 A 
ATOM     25  C   UNL     1       0.993   3.256  20.785  0.00  0.00    +0.000 A 
ATOM     26  C   UNL     1       2.029   2.830  21.615  0.00  0.00    +0.000 A 
ATOM     27  C   UNL     1       3.246   2.434  21.065  0.00  0.00    +0.000 A 
ATOM     28  C   UNL     1       3.430   2.474  19.684  0.00  0.00    +0.000 A 
ENDBRANCH  22  23
ENDBRANCH   6  22
TORSDOF 5
ENDMDL
MODEL 9
REMARK VINA RESULT:      -7.5      2.203      3.064
REMARK  Name = 
REMARK  5 active torsions:
REMARK  status: ('A' for Active; 'I' for Inactive)
REMARK    1  A    between atoms: C_2  and  C_3
REMARK    2  A    between atoms: C_3  and  N_4
REMARK    3  A    between atoms: N_7  and  C_8
REMARK    4  A    between atoms: N_19  and  C_20
REMARK    5  A    between atoms: C_20  and  C_21
REMARK                            x       y       z     vdW  Elec       q    Type
REMARK                         _______ _______ _______ _____ _____    ______ ____
ROOT
ATOM      1  O   UNL     1       2.413   5.798  20.486  0.00  0.00    +0.000 OA
ATOM      2  C   UNL     1       2.579   6.503  19.498  0.00  0.00    +0.000 C 
ATOM      3  N   UNL     1       2.136   7.797  19.345  0.00  0.00    +0.000 N 
ATOM      4  C   UNL     1       1.456   8.500  20.296  0.00  0.00    +0.000 C 
ATOM      5  O   UNL     1       1.343   8.195  21.478  0.00  0.00    +0.000 OA
ATOM      6  N   UNL     1       0.845   9.641  19.875  0.00  0.00    +0.000 N 
ATOM      7  H   UNL     1       2.493   8.287  18.543  0.00  0.00    +0.000 HD
ATOM      8  H   UNL     1       0.417  10.150  20.638  0.00  0.00    +0.000 HD
ENDROOT
BRANCH   2   9
ATOM      9  C   UNL     1       3.208   5.920  18.242  0.00  0.00    +0.000 C 
BRANCH   9  10
ATOM     10  N   UNL     1       4.625   5.507  18.404  0.00  0.00    +0.000 NA
ATOM     11  C   UNL     1       4.865   4.109  17.937  0.00  0.00    +0.000 C 
ATOM     12  C   UNL     1       4.692   3.841  16.415  0.00  0.00    +0.000 C 
ATOM     13  N   UNL     1       5.410   4.850  15.617  0.00  0.00    +0.000 N 
ATOM     14  C   UNL     1       5.210   6.247  16.015  0.00  0.00    +0.000 C 
ATOM     15  C   UNL     1       5.465   6.389  17.537  0.00  0.00    +0.000 C 
BRANCH  13  16
ATOM     16  C   UNL     1       6.076   4.550  14.441  0.00  0.00    +0.000 A 
ATOM     17  C   UNL     1       5.584   3.599  13.530  0.00  0.00    +0.000 A 
ATOM     18  C   UNL     1       6.175   3.391  12.278  0.00  0.00    +0.000 A 
ATOM     19  C   UNL     1       7.296   4.123  11.911  0.00  0.00    +0.000 A 
ATOM     20  C   UNL     1       7.832   5.041  12.807  0.00  0.00    +0.000 A 
ATOM     21  C   UNL     1       7.231   5.243  14.057  0.00  0.00    +0.000 A 
ENDBRANCH  13  16
ENDBRANCH   9  10
ENDBRANCH   2   9
BRANCH   6  22
ATOM     22  C   UNL     1       0.852  10.253  18.565  0.00  0.00    +0.000 C 
BRANCH  22  23
ATOM     23  C   UNL     1       1.129  11.728  18.679  0.00  0.00    +0.000 A 
ATOM     24  C   UNL     1       0.136  12.620  19.107  0.00  0.00    +0.000 A 
ATOM     25  C   UNL     1       0.381  13.992  19.122  0.00  0.00    +0.000 A 
ATOM     26  C   UNL     1       1.623  14.486  18.726  0.00  0.00    +0.000 A 
ATOM     27  C   UNL     1       2.624  13.608  18.317  0.00  0.00    +0.000 A 
ATOM     28  C   UNL     1       2.379  12.236  18.294  0.00  0.00    +0.000 A 
ENDBRANCH  22  23
ENDBRANCH   6  22
TORSDOF 5
ENDMDL
