MODEL 1
REMARK VINA RESULT:      -8.4      0.000      0.000
REMARK  Name = 
REMARK  4 active torsions:
REMARK  status: ('A' for Active; 'I' for Inactive)
REMARK    1  A    between atoms: C_2  and  C_3
REMARK    2  A    between atoms: C_7  and  C_8
REMARK    3  A    between atoms: C_10  and  C_11
REMARK    4  A    between atoms: C_12  and  C_13
REMARK                            x       y       z     vdW  Elec       q    Type
REMARK                         _______ _______ _______ _____ _____    ______ ____
ROOT
ATOM      1  C   UNL     1       5.807   5.453  17.671  0.00  0.00    +0.000 A 
ATOM      2  N   UNL     1       6.329   6.328  18.501  0.00  0.00    +0.000 NA
ATOM      3  C   UNL     1       7.339   6.875  17.754  0.00  0.00    +0.000 A 
ATOM      4  N   UNL     1       7.443   6.385  16.511  0.00  0.00    +0.000 NA
ATOM      5  O   UNL     1       6.424   5.435  16.452  0.00  0.00    +0.000 OA
ENDROOT
BRANCH   1  10
ATOM      6  C   UNL     1       3.326   3.263  19.446  0.00  0.00    +0.000 A 
ATOM      7  C   UNL     1       2.628   2.698  18.376  0.00  0.00    +0.000 A 
ATOM      8  C   UNL     1       2.963   3.040  17.066  0.00  0.00    +0.000 A 
ATOM      9  C   UNL     1       3.999   3.946  16.822  0.00  0.00    +0.000 A 
ATOM     10  C   UNL     1       4.710   4.521  17.885  0.00  0.00    +0.000 A 
ATOM     11  C   UNL     1       4.360   4.173  19.199  0.00  0.00    +0.000 A 
BRANCH   6  13
ATOM     12  N   UNL     1       2.725   2.615  21.882  0.00  0.00    +0.000 NA
ATOM     13  C   UNL     1       2.996   2.906  20.792  0.00  0.00    +0.000 C 
ENDBRANCH   6  13
ENDBRANCH   1  10
BRANCH   3  14
ATOM     14  C   UNL     1       8.188   7.866  18.321  0.00  0.00    +0.000 C 
ATOM     15  C   UNL     1       8.241   9.156  17.946  0.00  0.00    +0.000 C 
BRANCH  15  16
ATOM     16  C   UNL     1       9.105  10.160  18.582  0.00  0.00    +0.000 A 
ATOM     17  C   UNL     1       9.165  10.323  19.975  0.00  0.00    +0.000 A 
ATOM     18  C   UNL     1       9.981  11.301  20.542  0.00  0.00    +0.000 A 
ATOM     19  C   UNL     1      10.756  12.106  19.719  0.00  0.00    +0.000 A 
ATOM     20  F   UNL     1      11.534  13.051  20.264  0.00  0.00    +0.000 F 
ATOM     21  C   UNL     1      10.741  11.943  18.340  0.00  0.00    +0.000 A 
ATOM     22  C   UNL     1       9.920  10.965  17.771  0.00  0.00    +0.000 A 
ENDBRANCH  15  16
ENDBRANCH   3  14
TORSDOF 4
ENDMDL
MODEL 2
REMARK VINA RESULT:      -8.4      0.116      1.036
REMARK  Name = 
REMARK  4 active torsions:
REMARK  status: ('A' for Active; 'I' for Inactive)
REMARK    1  A    between atoms: C_2  and  C_3
REMARK    2  A    between atoms: C_7  and  C_8
REMARK    3  A    between atoms: C_10  and  C_11
REMARK    4  A    between atoms: C_12  and  C_13
REMARK                            x       y       z     vdW  Elec       q    Type
REMARK                         _______ _______ _______ _____ _____    ______ ____
ROOT
ATOM      1  C   UNL     1       5.799   5.454  17.663  0.00  0.00    +0.000 A 
ATOM      2  N   UNL     1       6.323   6.356  18.463  0.00  0.00    +0.000 NA
ATOM      3  C   UNL     1       7.360   6.845  17.713  0.00  0.00    +0.000 A 
ATOM      4  N   UNL     1       7.480   6.294  16.497  0.00  0.00    +0.000 NA
ATOM      5  O   UNL     1       6.440   5.365  16.461  0.00  0.00    +0.000 OA
ENDROOT
BRANCH   1  10
ATOM      6  C   UNL     1       3.240   3.396  19.485  0.00  0.00    +0.000 A 
ATOM      7  C   UNL     1       2.545   2.805  18.427  0.00  0.00    +0.000 A 
ATOM      8  C   UNL     1       2.908   3.085  17.110  0.00  0.00    +0.000 A 
ATOM      9  C   UNL     1       3.969   3.956  16.847  0.00  0.00    +0.000 A 
ATOM     10  C   UNL     1       4.677   4.558  17.897  0.00  0.00    +0.000 A 
ATOM     11  C   UNL     1       4.299   4.271  19.218  0.00  0.00    +0.000 A 
BRANCH   6  13
ATOM     12  N   UNL     1       2.588   2.860  21.936  0.00  0.00    +0.000 NA
ATOM     13  C   UNL     1       2.881   3.102  20.839  0.00  0.00    +0.000 C 
ENDBRANCH   6  13
ENDBRANCH   1  10
BRANCH   3  14
ATOM     14  C   UNL     1       8.221   7.843  18.251  0.00  0.00    +0.000 C 
ATOM     15  C   UNL     1       8.191   9.150  17.936  0.00  0.00    +0.000 C 
BRANCH  15  16
ATOM     16  C   UNL     1       9.071  10.159  18.542  0.00  0.00    +0.000 A 
ATOM     17  C   UNL     1       9.872  11.015  17.771  0.00  0.00    +0.000 A 
ATOM     18  C   UNL     1      10.712  11.947  18.382  0.00  0.00    +0.000 A 
ATOM     19  C   UNL     1      10.737  12.038  19.767  0.00  0.00    +0.000 A 
ATOM     20  F   UNL     1      11.550  12.927  20.354  0.00  0.00    +0.000 F 
ATOM     21  C   UNL     1       9.930  11.225  20.552  0.00  0.00    +0.000 A 
ATOM     22  C   UNL     1       9.092  10.290  19.940  0.00  0.00    +0.000 A 
ENDBRANCH  15  16
ENDBRANCH   3  14
TORSDOF 4
ENDMDL
MODEL 3
REMARK VINA RESULT:      -8.0      1.420      1.899
REMARK  Name = 
REMARK  4 active torsions:
REMARK  status: ('A' for Active; 'I' for Inactive)
REMARK    1  A    between atoms: C_2  and  C_3
REMARK    2  A    between atoms: C_7  and  C_8
REMARK    3  A    between atoms: C_10  and  C_11
REMARK    4  A    between atoms: C_12  and  C_13
REMARK                            x       y       z     vdW  Elec       q    Type
REMARK                         _______ _______ _______ _____ _____    ______ ____
ROOT
ATOM      1  C   UNL     1       5.785   6.497  17.439  0.00  0.00    +0.000 A 
ATOM      2  N   UNL     1       6.180   7.663  17.898  0.00  0.00    +0.000 NA
ATOM      3  C   UNL     1       7.410   7.809  17.311  0.00  0.00    +0.000 A 
ATOM      4  N   UNL     1       7.770   6.797  16.511  0.00  0.00    +0.000 NA
ATOM      5  O   UNL     1       6.690   5.919  16.594  0.00  0.00    +0.000 OA
ENDROOT
BRANCH   1  10
ATOM      6  C   UNL     1       3.477   3.626  18.169  0.00  0.00    +0.000 A 
ATOM      7  C   UNL     1       2.238   4.268  18.237  0.00  0.00    +0.000 A 
ATOM      8  C   UNL     1       2.155   5.647  18.051  0.00  0.00    +0.000 A 
ATOM      9  C   UNL     1       3.311   6.389  17.795  0.00  0.00    +0.000 A 
ATOM     10  C   UNL     1       4.562   5.761  17.722  0.00  0.00    +0.000 A 
ATOM     11  C   UNL     1       4.633   4.373  17.915  0.00  0.00    +0.000 A 
BRANCH   6  13
ATOM     12  N   UNL     1       3.643   1.059  18.485  0.00  0.00    +0.000 NA
ATOM     13  C   UNL     1       3.567   2.209  18.345  0.00  0.00    +0.000 C 
ENDBRANCH   6  13
ENDBRANCH   1  10
BRANCH   3  14
ATOM     14  C   UNL     1       8.201   8.958  17.590  0.00  0.00    +0.000 C 
ATOM     15  C   UNL     1       8.668   9.308  18.802  0.00  0.00    +0.000 C 
BRANCH  15  16
ATOM     16  C   UNL     1       9.516  10.483  19.046  0.00  0.00    +0.000 A 
ATOM     17  C   UNL     1      10.079  11.231  18.000  0.00  0.00    +0.000 A 
ATOM     18  C   UNL     1      10.897  12.328  18.269  0.00  0.00    +0.000 A 
ATOM     19  C   UNL     1      11.138  12.693  19.586  0.00  0.00    +0.000 A 
ATOM     20  F   UNL     1      11.930  13.741  19.845  0.00  0.00    +0.000 F 
ATOM     21  C   UNL     1      10.566  11.990  20.639  0.00  0.00    +0.000 A 
ATOM     22  C   UNL     1       9.750  10.888  20.369  0.00  0.00    +0.000 A 
ENDBRANCH  15  16
ENDBRANCH   3  14
TORSDOF 4
ENDMDL
MODEL 4
REMARK VINA RESULT:      -8.0      0.972      1.419
REMARK  Name = 
REMARK  4 active torsions:
REMARK  status: ('A' for Active; 'I' for Inactive)
REMARK    1  A    between atoms: C_2  and  C_3
REMARK    2  A    between atoms: C_7  and  C_8
REMARK    3  A    between atoms: C_10  and  C_11
REMARK    4  A    between atoms: C_12  and  C_13
REMARK                            x       y       z     vdW  Elec       q    Type
REMARK                         _______ _______ _______ _____ _____    ______ ____
ROOT
ATOM      1  C   UNL     1       6.044   5.884  17.529  0.00  0.00    +0.000 A 
ATOM      2  N   UNL     1       6.275   7.059  18.071  0.00  0.00    +0.000 NA
ATOM      3  C   UNL     1       7.352   7.507  17.351  0.00  0.00    +0.000 A 
ATOM      4  N   UNL     1       7.773   6.668  16.395  0.00  0.00    +0.000 NA
ATOM      5  O   UNL     1       6.904   5.583  16.512  0.00  0.00    +0.000 OA
ENDROOT
BRANCH   1  10
ATOM      6  C   UNL     1       4.360   3.034  19.303  0.00  0.00    +0.000 A 
ATOM      7  C   UNL     1       3.165   2.920  18.589  0.00  0.00    +0.000 A 
ATOM      8  C   UNL     1       2.903   3.785  17.526  0.00  0.00    +0.000 A 
ATOM      9  C   UNL     1       3.836   4.763  17.173  0.00  0.00    +0.000 A 
ATOM     10  C   UNL     1       5.040   4.890  17.879  0.00  0.00    +0.000 A 
ATOM     11  C   UNL     1       5.291   4.017  18.949  0.00  0.00    +0.000 A 
BRANCH   6  13
ATOM     12  N   UNL     1       4.868   1.415  21.262  0.00  0.00    +0.000 NA
ATOM     13  C   UNL     1       4.641   2.142  20.386  0.00  0.00    +0.000 C 
ENDBRANCH   6  13
ENDBRANCH   1  10
BRANCH   3  14
ATOM     14  C   UNL     1       7.944   8.763  17.661  0.00  0.00    +0.000 C 
ATOM     15  C   UNL     1       8.705   9.022  18.740  0.00  0.00    +0.000 C 
BRANCH  15  16
ATOM     16  C   UNL     1       9.332  10.323  19.007  0.00  0.00    +0.000 A 
ATOM     17  C   UNL     1       9.742  11.183  17.976  0.00  0.00    +0.000 A 
ATOM     18  C   UNL     1      10.353  12.403  18.268  0.00  0.00    +0.000 A 
ATOM     19  C   UNL     1      10.538  12.775  19.592  0.00  0.00    +0.000 A 
ATOM     20  F   UNL     1      11.133  13.941  19.872  0.00  0.00    +0.000 F 
ATOM     21  C   UNL     1      10.111  11.957  20.631  0.00  0.00    +0.000 A 
ATOM     22  C   UNL     1       9.503  10.734  20.338  0.00  0.00    +0.000 A 
ENDBRANCH  15  16
ENDBRANCH   3  14
TORSDOF 4
ENDMDL
MODEL 5
REMARK VINA RESULT:      -7.9      1.372      1.631
REMARK  Name = 
REMARK  4 active torsions:
REMARK  status: ('A' for Active; 'I' for Inactive)
REMARK    1  A    between atoms: C_2  and  C_3
REMARK    2  A    between atoms: C_7  and  C_8
REMARK    3  A    between atoms: C_10  and  C_11
REMARK    4  A    between atoms: C_12  and  C_13
REMARK                            x       y       z     vdW  Elec       q    Type
REMARK                         _______ _______ _______ _____ _____    ______ ____
ROOT
ATOM      1  C   UNL     1       6.124   5.695  18.274  0.00  0.00    +0.000 A 
ATOM      2  N   UNL     1       6.215   6.908  17.776  0.00  0.00    +0.000 NA
ATOM      3  C   UNL     1       7.496   7.265  18.106  0.00  0.00    +0.000 A 
ATOM      4  N   UNL     1       8.187   6.324  18.766  0.00  0.00    +0.000 NA
ATOM      5  O   UNL     1       7.274   5.276  18.880  0.00  0.00    +0.000 OA
ENDROOT
BRANCH   1  10
ATOM      6  C   UNL     1       3.421   3.425  19.557  0.00  0.00    +0.000 A 
ATOM      7  C   UNL     1       2.823   2.996  18.370  0.00  0.00    +0.000 A 
ATOM      8  C   UNL     1       3.299   3.455  17.142  0.00  0.00    +0.000 A 
ATOM      9  C   UNL     1       4.377   4.344  17.098  0.00  0.00    +0.000 A 
ATOM     10  C   UNL     1       4.989   4.785  18.280  0.00  0.00    +0.000 A 
ATOM     11  C   UNL     1       4.497   4.318  19.509  0.00  0.00    +0.000 A 
BRANCH   6  13
ATOM     12  N   UNL     1       2.558   2.557  21.841  0.00  0.00    +0.000 NA
ATOM     13  C   UNL     1       2.946   2.947  20.819  0.00  0.00    +0.000 C 
ENDBRANCH   6  13
ENDBRANCH   1  10
BRANCH   3  14
ATOM     14  C   UNL     1       7.986   8.557  17.767  0.00  0.00    +0.000 C 
ATOM     15  C   UNL     1       8.681   9.367  18.585  0.00  0.00    +0.000 C 
BRANCH  15  16
ATOM     16  C   UNL     1       9.204  10.681  18.186  0.00  0.00    +0.000 A 
ATOM     17  C   UNL     1       8.363  11.744  17.822  0.00  0.00    +0.000 A 
ATOM     18  C   UNL     1       8.897  12.971  17.428  0.00  0.00    +0.000 A 
ATOM     19  C   UNL     1      10.273  13.145  17.417  0.00  0.00    +0.000 A 
ATOM     20  F   UNL     1      10.786  14.321  17.031  0.00  0.00    +0.000 F 
ATOM     21  C   UNL     1      11.127  12.120  17.805  0.00  0.00    +0.000 A 
ATOM     22  C   UNL     1      10.592  10.890  18.195  0.00  0.00    +0.000 A 
ENDBRANCH  15  16
ENDBRANCH   3  14
TORSDOF 4
ENDMDL
MODEL 6
REMARK VINA RESULT:      -7.8      1.357      1.521
REMARK  Name = 
REMARK  4 active torsions:
REMARK  status: ('A' for Active; 'I' for Inactive)
REMARK    1  A    between atoms: C_2  and  C_3
REMARK    2  A    between atoms: C_7  and  C_8
REMARK    3  A    between atoms: C_10  and  C_11
REMARK    4  A    between atoms: C_12  and  C_13
REMARK                            x       y       z     vdW  Elec       q    Type
REMARK                         _______ _______ _______ _____ _____    ______ ____
ROOT
ATOM      1  C   UNL     1       5.826   6.371  17.443  0.00  0.00    +0.000 A 
ATOM      2  N   UNL     1       6.426   7.291  18.163  0.00  0.00    +0.000 NA
ATOM      3  C   UNL     1       7.571   7.523  17.448  0.00  0.00    +0.000 A 
ATOM      4  N   UNL     1       7.686   6.800  16.326  0.00  0.00    +0.000 NA
ATOM      5  O   UNL     1       6.523   6.028  16.320  0.00  0.00    +0.000 OA
ENDROOT
BRANCH   1  10
ATOM      6  C   UNL     1       3.399   3.589  18.132  0.00  0.00    +0.000 A 
ATOM      7  C   UNL     1       2.180   4.270  18.143  0.00  0.00    +0.000 A 
ATOM      8  C   UNL     1       2.149   5.649  17.931  0.00  0.00    +0.000 A 
ATOM      9  C   UNL     1       3.338   6.349  17.707  0.00  0.00    +0.000 A 
ATOM     10  C   UNL     1       4.569   5.680  17.692  0.00  0.00    +0.000 A 
ATOM     11  C   UNL     1       4.588   4.293  17.910  0.00  0.00    +0.000 A 
BRANCH   6  13
ATOM     12  N   UNL     1       3.463   1.024  18.501  0.00  0.00    +0.000 NA
ATOM     13  C   UNL     1       3.436   2.172  18.334  0.00  0.00    +0.000 C 
ENDBRANCH   6  13
ENDBRANCH   1  10
BRANCH   3  14
ATOM     14  C   UNL     1       8.534   8.455  17.927  0.00  0.00    +0.000 C 
ATOM     15  C   UNL     1       8.290   9.743  18.230  0.00  0.00    +0.000 C 
BRANCH  15  16
ATOM     16  C   UNL     1       9.303  10.666  18.759  0.00  0.00    +0.000 A 
ATOM     17  C   UNL     1       9.436  10.925  20.132  0.00  0.00    +0.000 A 
ATOM     18  C   UNL     1      10.396  11.825  20.596  0.00  0.00    +0.000 A 
ATOM     19  C   UNL     1      11.239  12.452  19.690  0.00  0.00    +0.000 A 
ATOM     20  F   UNL     1      12.155  13.323  20.135  0.00  0.00    +0.000 F 
ATOM     21  C   UNL     1      11.150  12.188  18.329  0.00  0.00    +0.000 A 
ATOM     22  C   UNL     1      10.185  11.290  17.864  0.00  0.00    +0.000 A 
ENDBRANCH  15  16
ENDBRANCH   3  14
TORSDOF 4
ENDMDL
MODEL 7
REMARK VINA RESULT:      -7.8      2.540      3.874
REMARK  Name = 
REMARK  4 active torsions:
REMARK  status: ('A' for Active; 'I' for Inactive)
REMARK    1  A    between atoms: C_2  and  C_3
REMARK    2  A    between atoms: C_7  and  C_8
REMARK    3  A    between atoms: C_10  and  C_11
REMARK    4  A    between atoms: C_12  and  C_13
REMARK                            x       y       z     vdW  Elec       q    Type
REMARK                         _______ _______ _______ _____ _____    ______ ____
ROOT
ATOM      1  C   UNL     1       7.160   6.637  17.432  0.00  0.00    +0.000 A 
ATOM      2  N   UNL     1       7.346   7.895  17.100  0.00  0.00    +0.000 NA
ATOM      3  C   UNL     1       8.178   8.340  18.095  0.00  0.00    +0.000 A 
ATOM      4  N   UNL     1       8.513   7.411  19.001  0.00  0.00    +0.000 NA
ATOM      5  O   UNL     1       7.835   6.274  18.562  0.00  0.00    +0.000 OA
ENDROOT
BRANCH   1  10
ATOM      6  C   UNL     1       5.896   4.254  14.819  0.00  0.00    +0.000 A 
ATOM      7  C   UNL     1       4.779   3.704  15.452  0.00  0.00    +0.000 A 
ATOM      8  C   UNL     1       4.440   4.107  16.743  0.00  0.00    +0.000 A 
ATOM      9  C   UNL     1       5.216   5.063  17.404  0.00  0.00    +0.000 A 
ATOM     10  C   UNL     1       6.339   5.625  16.783  0.00  0.00    +0.000 A 
ATOM     11  C   UNL     1       6.673   5.209  15.485  0.00  0.00    +0.000 A 
BRANCH   6  13
ATOM     12  N   UNL     1       6.525   3.532  12.410  0.00  0.00    +0.000 NA
ATOM     13  C   UNL     1       6.241   3.855  13.489  0.00  0.00    +0.000 C 
ENDBRANCH   6  13
ENDBRANCH   1  10
BRANCH   3  14
ATOM     14  C   UNL     1       8.596   9.700  18.118  0.00  0.00    +0.000 C 
ATOM     15  C   UNL     1       9.424  10.246  19.026  0.00  0.00    +0.000 C 
BRANCH  15  16
ATOM     16  C   UNL     1       9.865  11.647  18.996  0.00  0.00    +0.000 A 
ATOM     17  C   UNL     1       9.502  12.524  17.962  0.00  0.00    +0.000 A 
ATOM     18  C   UNL     1       9.957  13.843  17.955  0.00  0.00    +0.000 A 
ATOM     19  C   UNL     1      10.761  14.294  18.993  0.00  0.00    +0.000 A 
ATOM     20  F   UNL     1      11.205  15.557  18.982  0.00  0.00    +0.000 F 
ATOM     21  C   UNL     1      11.107  13.455  20.045  0.00  0.00    +0.000 A 
ATOM     22  C   UNL     1      10.654  12.133  20.049  0.00  0.00    +0.000 A 
ENDBRANCH  15  16
ENDBRANCH   3  14
TORSDOF 4
ENDMDL
MODEL 8
REMARK VINA RESULT:      -7.7      2.547      3.799
REMARK  Name = 
REMARK  4 active torsions:
REMARK  status: ('A' for Active; 'I' for Inactive)
REMARK    1  A    between atoms: C_2  and  C_3
REMARK    2  A    between atoms: C_7  and  C_8
REMARK    3  A    between atoms: C_10  and  C_11
REMARK    4  A    between atoms: C_12  and  C_13
REMARK                            x       y       z     vdW  Elec       q    Type
REMARK                         _______ _______ _______ _____ _____    ______ ____
ROOT
ATOM      1  C   UNL     1       7.173   6.590  17.400  0.00  0.00    +0.000 A 
ATOM      2  N   UNL     1       7.351   7.854  17.088  0.00  0.00    +0.000 NA
ATOM      3  C   UNL     1       8.166   8.294  18.097  0.00  0.00    +0.000 A 
ATOM      4  N   UNL     1       8.500   7.357  18.995  0.00  0.00    +0.000 NA
ATOM      5  O   UNL     1       7.838   6.219  18.534  0.00  0.00    +0.000 OA
ENDROOT
BRANCH   1  10
ATOM      6  C   UNL     1       5.950   4.245  14.735  0.00  0.00    +0.000 A 
ATOM      7  C   UNL     1       4.842   3.662  15.355  0.00  0.00    +0.000 A 
ATOM      8  C   UNL     1       4.496   4.030  16.655  0.00  0.00    +0.000 A 
ATOM      9  C   UNL     1       5.255   4.985  17.337  0.00  0.00    +0.000 A 
ATOM     10  C   UNL     1       6.369   5.580  16.729  0.00  0.00    +0.000 A 
ATOM     11  C   UNL     1       6.710   5.198  15.422  0.00  0.00    +0.000 A 
BRANCH   6  13
ATOM     12  N   UNL     1       6.590   3.589  12.311  0.00  0.00    +0.000 NA
ATOM     13  C   UNL     1       6.302   3.881  13.396  0.00  0.00    +0.000 C 
ENDBRANCH   6  13
ENDBRANCH   1  10
BRANCH   3  14
ATOM     14  C   UNL     1       8.571   9.658  18.143  0.00  0.00    +0.000 C 
ATOM     15  C   UNL     1       9.455  10.180  19.012  0.00  0.00    +0.000 C 
BRANCH  15  16
ATOM     16  C   UNL     1       9.878  11.587  19.003  0.00  0.00    +0.000 A 
ATOM     17  C   UNL     1      10.160  12.292  20.184  0.00  0.00    +0.000 A 
ATOM     18  C   UNL     1      10.539  13.634  20.139  0.00  0.00    +0.000 A 
ATOM     19  C   UNL     1      10.658  14.269  18.911  0.00  0.00    +0.000 A 
ATOM     20  F   UNL     1      11.013  15.559  18.868  0.00  0.00    +0.000 F 
ATOM     21  C   UNL     1      10.418  13.585  17.726  0.00  0.00    +0.000 A 
ATOM     22  C   UNL     1      10.034  12.242  17.772  0.00  0.00    +0.000 A 
ENDBRANCH  15  16
ENDBRANCH   3  14
TORSDOF 4
ENDMDL
MODEL 9
REMARK VINA RESULT:      -7.7      1.044      1.491
REMARK  Name = 
REMARK  4 active torsions:
REMARK  status: ('A' for Active; 'I' for Inactive)
REMARK    1  A    between atoms: C_2  and  C_3
REMARK    2  A    between atoms: C_7  and  C_8
REMARK    3  A    between atoms: C_10  and  C_11
REMARK    4  A    between atoms: C_12  and  C_13
REMARK                            x       y       z     vdW  Elec       q    Type
REMARK                         _______ _______ _______ _____ _____    ______ ____
ROOT
ATOM      1  C   UNL     1       6.007   6.267  17.345  0.00  0.00    +0.000 A 
ATOM      2  N   UNL     1       6.213   7.421  17.940  0.00  0.00    +0.000 NA
ATOM      3  C   UNL     1       7.395   7.831  17.381  0.00  0.00    +0.000 A 
ATOM      4  N   UNL     1       7.905   6.990  16.471  0.00  0.00    +0.000 NA
ATOM      5  O   UNL     1       6.982   5.945  16.446  0.00  0.00    +0.000 OA
ENDROOT
BRANCH   1  10
ATOM      6  C   UNL     1       3.157   4.431  18.961  0.00  0.00    +0.000 A 
ATOM      7  C   UNL     1       2.840   3.483  17.986  0.00  0.00    +0.000 A 
ATOM      8  C   UNL     1       3.555   3.447  16.789  0.00  0.00    +0.000 A 
ATOM      9  C   UNL     1       4.591   4.357  16.565  0.00  0.00    +0.000 A 
ATOM     10  C   UNL     1       4.923   5.315  17.534  0.00  0.00    +0.000 A 
ATOM     11  C   UNL     1       4.193   5.344  18.733  0.00  0.00    +0.000 A 
BRANCH   6  13
ATOM     12  N   UNL     1       1.853   4.488  21.201  0.00  0.00    +0.000 NA
ATOM     13  C   UNL     1       2.436   4.464  20.197  0.00  0.00    +0.000 C 
ENDBRANCH   6  13
ENDBRANCH   1  10
BRANCH   3  14
ATOM     14  C   UNL     1       7.993   9.053  17.797  0.00  0.00    +0.000 C 
ATOM     15  C   UNL     1       8.871   9.189  18.807  0.00  0.00    +0.000 C 
BRANCH  15  16
ATOM     16  C   UNL     1       9.498  10.463  19.183  0.00  0.00    +0.000 A 
ATOM     17  C   UNL     1      10.143  11.286  18.246  0.00  0.00    +0.000 A 
ATOM     18  C   UNL     1      10.746  12.479  18.643  0.00  0.00    +0.000 A 
ATOM     19  C   UNL     1      10.688  12.864  19.975  0.00  0.00    +0.000 A 
ATOM     20  F   UNL     1      11.274  14.006  20.358  0.00  0.00    +0.000 F 
ATOM     21  C   UNL     1      10.027  12.084  20.916  0.00  0.00    +0.000 A 
ATOM     22  C   UNL     1       9.427  10.887  20.518  0.00  0.00    +0.000 A 
ENDBRANCH  15  16
ENDBRANCH   3  14
TORSDOF 4
ENDMDL
