MODEL 1
REMARK VINA RESULT:      -7.4      0.000      0.000
REMARK  Name = 
REMARK  4 active torsions:
REMARK  status: ('A' for Active; 'I' for Inactive)
REMARK    1  A    between atoms: C_2  and  C_3
REMARK    2  A    between atoms: C_3  and  C_4
REMARK    3  A    between atoms: C_4  and  S_5
REMARK    4  A    between atoms: S_5  and  C_6
REMARK                            x       y       z     vdW  Elec       q    Type
REMARK                         _______ _______ _______ _____ _____    ______ ____
ROOT
ATOM      1  S   UNL     1       7.022   6.300  17.554  0.00  0.00    +0.000 S 
ENDROOT
BRANCH   1   2
ATOM      2  C   UNL     1       6.786   5.515  16.015  0.00  0.00    +0.000 A 
ATOM      3  N   UNL     1       5.793   4.697  15.715  0.00  0.00    +0.000 NA
ATOM      4  C   UNL     1       6.039   4.340  14.408  0.00  0.00    +0.000 A 
ATOM      5  C   UNL     1       5.349   3.494  13.526  0.00  0.00    +0.000 A 
ATOM      6  C   UNL     1       5.869   3.330  12.235  0.00  0.00    +0.000 A 
ATOM      7 CL   UNL     1       5.055   2.296  11.121  0.00  0.00    +0.000 Cl
ATOM      8  C   UNL     1       7.038   3.986  11.822  0.00  0.00    +0.000 A 
ATOM      9  C   UNL     1       7.734   4.833  12.691  0.00  0.00    +0.000 A 
ATOM     10  C   UNL     1       7.190   4.969  13.963  0.00  0.00    +0.000 A 
ATOM     11  O   UNL     1       7.672   5.724  14.987  0.00  0.00    +0.000 OA
ENDBRANCH   1   2
BRANCH   1  12
ATOM     12  C   UNL     1       6.728   4.952  18.736  0.00  0.00    +0.000 C 
BRANCH  12  13
ATOM     13  C   UNL     1       5.388   5.182  19.447  0.00  0.00    +0.000 C 
BRANCH  13  15
ATOM     14  O   UNL     1       5.222   2.856  19.999  0.00  0.00    +0.000 OA
ATOM     15  C   UNL     1       4.635   3.877  19.637  0.00  0.00    +0.000 C 
ATOM     16  N   UNL     1       3.268   3.888  19.414  0.00  0.00    +0.000 N 
ATOM     17  C   UNL     1       2.474   2.696  19.726  0.00  0.00    +0.000 C 
ATOM     18  C   UNL     1       1.691   2.236  18.495  0.00  0.00    +0.000 C 
ATOM     19  O   UNL     1       0.869   3.301  17.989  0.00  0.00    +0.000 OA
ATOM     20  C   UNL     1       1.673   4.431  17.613  0.00  0.00    +0.000 C 
ATOM     21  C   UNL     1       2.482   4.969  18.806  0.00  0.00    +0.000 C 
ENDBRANCH  13  15
ENDBRANCH  12  13
ENDBRANCH   1  12
TORSDOF 4
ENDMDL
MODEL 2
REMARK VINA RESULT:      -7.3      1.270      1.606
REMARK  Name = 
REMARK  4 active torsions:
REMARK  status: ('A' for Active; 'I' for Inactive)
REMARK    1  A    between atoms: C_2  and  C_3
REMARK    2  A    between atoms: C_3  and  C_4
REMARK    3  A    between atoms: C_4  and  S_5
REMARK    4  A    between atoms: S_5  and  C_6
REMARK                            x       y       z     vdW  Elec       q    Type
REMARK                         _______ _______ _______ _____ _____    ______ ____
ROOT
ATOM      1  S   UNL     1       7.019   6.181  17.896  0.00  0.00    +0.000 S 
ENDROOT
BRANCH   1   2
ATOM      2  C   UNL     1       6.834   5.459  16.320  0.00  0.00    +0.000 A 
ATOM      3  N   UNL     1       5.940   4.542  15.995  0.00  0.00    +0.000 NA
ATOM      4  C   UNL     1       6.188   4.291  14.664  0.00  0.00    +0.000 A 
ATOM      5  C   UNL     1       5.580   3.416  13.750  0.00  0.00    +0.000 A 
ATOM      6  C   UNL     1       6.077   3.391  12.441  0.00  0.00    +0.000 A 
ATOM      7 CL   UNL     1       5.362   2.327  11.287  0.00  0.00    +0.000 Cl
ATOM      8  C   UNL     1       7.143   4.208  12.039  0.00  0.00    +0.000 A 
ATOM      9  C   UNL     1       7.756   5.086  12.940  0.00  0.00    +0.000 A 
ATOM     10  C   UNL     1       7.239   5.083  14.231  0.00  0.00    +0.000 A 
ATOM     11  O   UNL     1       7.656   5.834  15.285  0.00  0.00    +0.000 OA
ENDBRANCH   1   2
BRANCH   1  12
ATOM     12  C   UNL     1       6.132   5.015  18.972  0.00  0.00    +0.000 C 
BRANCH  12  13
ATOM     13  C   UNL     1       4.776   5.616  19.364  0.00  0.00    +0.000 C 
BRANCH  13  15
ATOM     14  O   UNL     1       3.212   5.579  17.549  0.00  0.00    +0.000 OA
ATOM     15  C   UNL     1       3.648   5.007  18.548  0.00  0.00    +0.000 C 
ATOM     16  N   UNL     1       3.153   3.780  18.957  0.00  0.00    +0.000 N 
ATOM     17  C   UNL     1       2.170   3.082  18.122  0.00  0.00    +0.000 C 
ATOM     18  C   UNL     1       0.909   2.768  18.929  0.00  0.00    +0.000 C 
ATOM     19  O   UNL     1       1.235   2.011  20.107  0.00  0.00    +0.000 OA
ATOM     20  C   UNL     1       2.136   2.745  20.951  0.00  0.00    +0.000 C 
ATOM     21  C   UNL     1       3.445   3.086  20.217  0.00  0.00    +0.000 C 
ENDBRANCH  13  15
ENDBRANCH  12  13
ENDBRANCH   1  12
TORSDOF 4
ENDMDL
MODEL 3
REMARK VINA RESULT:      -7.2      1.326      1.574
REMARK  Name = 
REMARK  4 active torsions:
REMARK  status: ('A' for Active; 'I' for Inactive)
REMARK    1  A    between atoms: C_2  and  C_3
REMARK    2  A    between atoms: C_3  and  C_4
REMARK    3  A    between atoms: C_4  and  S_5
REMARK    4  A    between atoms: S_5  and  C_6
REMARK                            x       y       z     vdW  Elec       q    Type
REMARK                         _______ _______ _______ _____ _____    ______ ____
ROOT
ATOM      1  S   UNL     1       7.129   6.144  17.866  0.00  0.00    +0.000 S 
ENDROOT
BRANCH   1   2
ATOM      2  C   UNL     1       6.900   5.426  16.294  0.00  0.00    +0.000 A 
ATOM      3  N   UNL     1       5.983   4.524  15.988  0.00  0.00    +0.000 NA
ATOM      4  C   UNL     1       6.200   4.268  14.653  0.00  0.00    +0.000 A 
ATOM      5  C   UNL     1       5.558   3.404  13.753  0.00  0.00    +0.000 A 
ATOM      6  C   UNL     1       6.028   3.369  12.433  0.00  0.00    +0.000 A 
ATOM      7 CL   UNL     1       5.271   2.317  11.294  0.00  0.00    +0.000 Cl
ATOM      8  C   UNL     1       7.100   4.168  12.009  0.00  0.00    +0.000 A 
ATOM      9  C   UNL     1       7.746   5.035  12.897  0.00  0.00    +0.000 A 
ATOM     10  C   UNL     1       7.256   5.041  14.197  0.00  0.00    +0.000 A 
ATOM     11  O   UNL     1       7.707   5.786  15.243  0.00  0.00    +0.000 OA
ENDBRANCH   1   2
BRANCH   1  12
ATOM     12  C   UNL     1       5.733   5.473  18.817  0.00  0.00    +0.000 C 
BRANCH  12  13
ATOM     13  C   UNL     1       4.417   5.964  18.201  0.00  0.00    +0.000 C 
BRANCH  13  15
ATOM     14  O   UNL     1       2.867   6.286  20.000  0.00  0.00    +0.000 OA
ATOM     15  C   UNL     1       3.228   5.573  19.062  0.00  0.00    +0.000 C 
ATOM     16  N   UNL     1       2.557   4.407  18.737  0.00  0.00    +0.000 N 
ATOM     17  C   UNL     1       1.318   4.064  19.441  0.00  0.00    +0.000 C 
ATOM     18  C   UNL     1       1.427   2.676  20.074  0.00  0.00    +0.000 C 
ATOM     19  O   UNL     1       1.761   1.690  19.082  0.00  0.00    +0.000 OA
ATOM     20  C   UNL     1       3.018   2.000  18.459  0.00  0.00    +0.000 C 
ATOM     21  C   UNL     1       2.985   3.379  17.778  0.00  0.00    +0.000 C 
ENDBRANCH  13  15
ENDBRANCH  12  13
ENDBRANCH   1  12
TORSDOF 4
ENDMDL
MODEL 4
REMARK VINA RESULT:      -6.8      4.452      6.675
REMARK  Name = 
REMARK  4 active torsions:
REMARK  status: ('A' for Active; 'I' for Inactive)
REMARK    1  A    between atoms: C_2  and  C_3
REMARK    2  A    between atoms: C_3  and  C_4
REMARK    3  A    between atoms: C_4  and  S_5
REMARK    4  A    between atoms: S_5  and  C_6
REMARK                            x       y       z     vdW  Elec       q    Type
REMARK                         _______ _______ _______ _____ _____    ______ ____
ROOT
ATOM      1  S   UNL     1       4.763   5.487  18.190  0.00  0.00    +0.000 S 
ENDROOT
BRANCH   1   2
ATOM      2  C   UNL     1       3.555   6.700  18.517  0.00  0.00    +0.000 A 
ATOM      3  N   UNL     1       3.152   7.631  17.670  0.00  0.00    +0.000 NA
ATOM      4  C   UNL     1       2.206   8.339  18.377  0.00  0.00    +0.000 A 
ATOM      5  C   UNL     1       1.418   9.447  18.030  0.00  0.00    +0.000 A 
ATOM      6  C   UNL     1       0.534   9.947  18.995  0.00  0.00    +0.000 A 
ATOM      7 CL   UNL     1      -0.450  11.311  18.612  0.00  0.00    +0.000 Cl
ATOM      8  C   UNL     1       0.425   9.369  20.268  0.00  0.00    +0.000 A 
ATOM      9  C   UNL     1       1.204   8.263  20.625  0.00  0.00    +0.000 A 
ATOM     10  C   UNL     1       2.071   7.795  19.644  0.00  0.00    +0.000 A 
ATOM     11  O   UNL     1       2.931   6.745  19.740  0.00  0.00    +0.000 OA
ENDBRANCH   1   2
BRANCH   1  12
ATOM     12  C   UNL     1       4.173   4.747  16.638  0.00  0.00    +0.000 C 
BRANCH  12  13
ATOM     13  C   UNL     1       3.544   3.380  16.935  0.00  0.00    +0.000 C 
BRANCH  13  15
ATOM     14  O   UNL     1       1.343   4.229  17.353  0.00  0.00    +0.000 OA
ATOM     15  C   UNL     1       2.271   3.525  17.751  0.00  0.00    +0.000 C 
ATOM     16  N   UNL     1       2.188   2.819  18.940  0.00  0.00    +0.000 N 
ATOM     17  C   UNL     1       0.928   2.807  19.689  0.00  0.00    +0.000 C 
ATOM     18  C   UNL     1       1.152   3.295  21.121  0.00  0.00    +0.000 C 
ATOM     19  O   UNL     1       2.162   2.507  21.774  0.00  0.00    +0.000 OA
ATOM     20  C   UNL     1       3.411   2.595  21.070  0.00  0.00    +0.000 C 
ATOM     21  C   UNL     1       3.276   2.103  19.619  0.00  0.00    +0.000 C 
ENDBRANCH  13  15
ENDBRANCH  12  13
ENDBRANCH   1  12
TORSDOF 4
ENDMDL
MODEL 5
REMARK VINA RESULT:      -6.7      5.814      9.059
REMARK  Name = 
REMARK  4 active torsions:
REMARK  status: ('A' for Active; 'I' for Inactive)
REMARK    1  A    between atoms: C_2  and  C_3
REMARK    2  A    between atoms: C_3  and  C_4
REMARK    3  A    between atoms: C_4  and  S_5
REMARK    4  A    between atoms: S_5  and  C_6
REMARK                            x       y       z     vdW  Elec       q    Type
REMARK                         _______ _______ _______ _____ _____    ______ ____
ROOT
ATOM      1  S   UNL     1       2.400   7.592  18.609  0.00  0.00    +0.000 S 
ENDROOT
BRANCH   1   2
ATOM      2  C   UNL     1       1.501   8.584  19.726  0.00  0.00    +0.000 A 
ATOM      3  N   UNL     1       1.154   9.844  19.527  0.00  0.00    +0.000 NA
ATOM      4  C   UNL     1       0.473  10.187  20.673  0.00  0.00    +0.000 A 
ATOM      5  C   UNL     1      -0.139  11.385  21.071  0.00  0.00    +0.000 A 
ATOM      6  C   UNL     1      -0.760  11.416  22.327  0.00  0.00    +0.000 A 
ATOM      7 CL   UNL     1      -1.520  12.871  22.858  0.00  0.00    +0.000 Cl
ATOM      8  C   UNL     1      -0.780  10.295  23.169  0.00  0.00    +0.000 A 
ATOM      9  C   UNL     1      -0.175   9.094  22.782  0.00  0.00    +0.000 A 
ATOM     10  C   UNL     1       0.433   9.101  21.532  0.00  0.00    +0.000 A 
ATOM     11  O   UNL     1       1.087   8.071  20.931  0.00  0.00    +0.000 OA
ENDBRANCH   1   2
BRANCH   1  12
ATOM     12  C   UNL     1       2.474   5.993  19.469  0.00  0.00    +0.000 C 
BRANCH  12  13
ATOM     13  C   UNL     1       3.924   5.494  19.488  0.00  0.00    +0.000 C 
BRANCH  13  15
ATOM     14  O   UNL     1       3.812   3.589  18.037  0.00  0.00    +0.000 OA
ATOM     15  C   UNL     1       4.256   4.723  18.221  0.00  0.00    +0.000 C 
ATOM     16  N   UNL     1       5.052   5.352  17.279  0.00  0.00    +0.000 N 
ATOM     17  C   UNL     1       5.279   4.713  15.979  0.00  0.00    +0.000 C 
ATOM     18  C   UNL     1       6.777   4.552  15.715  0.00  0.00    +0.000 C 
ATOM     19  O   UNL     1       7.447   5.821  15.804  0.00  0.00    +0.000 OA
ATOM     20  C   UNL     1       7.281   6.395  17.110  0.00  0.00    +0.000 C 
ATOM     21  C   UNL     1       5.795   6.608  17.447  0.00  0.00    +0.000 C 
ENDBRANCH  13  15
ENDBRANCH  12  13
ENDBRANCH   1  12
TORSDOF 4
ENDMDL
MODEL 6
REMARK VINA RESULT:      -6.7      1.245      2.128
REMARK  Name = 
REMARK  4 active torsions:
REMARK  status: ('A' for Active; 'I' for Inactive)
REMARK    1  A    between atoms: C_2  and  C_3
REMARK    2  A    between atoms: C_3  and  C_4
REMARK    3  A    between atoms: C_4  and  S_5
REMARK    4  A    between atoms: S_5  and  C_6
REMARK                            x       y       z     vdW  Elec       q    Type
REMARK                         _______ _______ _______ _____ _____    ______ ____
ROOT
ATOM      1  S   UNL     1       6.030   6.663  17.538  0.00  0.00    +0.000 S 
ENDROOT
BRANCH   1   2
ATOM      2  C   UNL     1       6.101   5.759  16.048  0.00  0.00    +0.000 A 
ATOM      3  N   UNL     1       5.172   4.927  15.609  0.00  0.00    +0.000 NA
ATOM      4  C   UNL     1       5.677   4.464  14.415  0.00  0.00    +0.000 A 
ATOM      5  C   UNL     1       5.165   3.556  13.476  0.00  0.00    +0.000 A 
ATOM      6  C   UNL     1       5.940   3.285  12.340  0.00  0.00    +0.000 A 
ATOM      7 CL   UNL     1       5.350   2.171  11.162  0.00  0.00    +0.000 Cl
ATOM      8  C   UNL     1       7.185   3.895  12.132  0.00  0.00    +0.000 A 
ATOM      9  C   UNL     1       7.705   4.804  13.061  0.00  0.00    +0.000 A 
ATOM     10  C   UNL     1       6.911   5.046  14.176  0.00  0.00    +0.000 A 
ATOM     11  O   UNL     1       7.187   5.877  15.217  0.00  0.00    +0.000 OA
ENDBRANCH   1   2
BRANCH   1  12
ATOM     12  C   UNL     1       4.280   7.145  17.625  0.00  0.00    +0.000 C 
BRANCH  12  13
ATOM     13  C   UNL     1       3.601   6.387  18.773  0.00  0.00    +0.000 C 
BRANCH  13  15
ATOM     14  O   UNL     1       1.651   5.387  17.803  0.00  0.00    +0.000 OA
ATOM     15  C   UNL     1       2.785   5.216  18.253  0.00  0.00    +0.000 C 
ATOM     16  N   UNL     1       3.374   3.963  18.281  0.00  0.00    +0.000 N 
ATOM     17  C   UNL     1       2.689   2.827  17.656  0.00  0.00    +0.000 C 
ATOM     18  C   UNL     1       2.501   1.693  18.665  0.00  0.00    +0.000 C 
ATOM     19  O   UNL     1       3.764   1.302  19.230  0.00  0.00    +0.000 OA
ATOM     20  C   UNL     1       4.383   2.407  19.908  0.00  0.00    +0.000 C 
ATOM     21  C   UNL     1       4.625   3.590  18.953  0.00  0.00    +0.000 C 
ENDBRANCH  13  15
ENDBRANCH  12  13
ENDBRANCH   1  12
TORSDOF 4
ENDMDL
MODEL 7
REMARK VINA RESULT:      -6.6      5.190      8.232
REMARK  Name = 
REMARK  4 active torsions:
REMARK  status: ('A' for Active; 'I' for Inactive)
REMARK    1  A    between atoms: C_2  and  C_3
REMARK    2  A    between atoms: C_3  and  C_4
REMARK    3  A    between atoms: C_4  and  S_5
REMARK    4  A    between atoms: S_5  and  C_6
REMARK                            x       y       z     vdW  Elec       q    Type
REMARK                         _______ _______ _______ _____ _____    ______ ____
ROOT
ATOM      1  S   UNL     1       3.075   6.377  18.618  0.00  0.00    +0.000 S 
ENDROOT
BRANCH   1   2
ATOM      2  C   UNL     1       2.110   7.568  19.449  0.00  0.00    +0.000 A 
ATOM      3  N   UNL     1       1.635   7.450  20.676  0.00  0.00    +0.000 NA
ATOM      4  C   UNL     1       0.947   8.625  20.881  0.00  0.00    +0.000 A 
ATOM      5  C   UNL     1       0.220   9.101  21.984  0.00  0.00    +0.000 A 
ATOM      6  C   UNL     1      -0.379  10.363  21.876  0.00  0.00    +0.000 A 
ATOM      7 CL   UNL     1      -1.286  10.984  23.205  0.00  0.00    +0.000 Cl
ATOM      8  C   UNL     1      -0.263  11.139  20.714  0.00  0.00    +0.000 A 
ATOM      9  C   UNL     1       0.461  10.677  19.609  0.00  0.00    +0.000 A 
ATOM     10  C   UNL     1       1.039   9.421  19.750  0.00  0.00    +0.000 A 
ATOM     11  O   UNL     1       1.784   8.750  18.831  0.00  0.00    +0.000 OA
ENDBRANCH   1   2
BRANCH   1  12
ATOM     12  C   UNL     1       3.091   4.990  19.792  0.00  0.00    +0.000 C 
BRANCH  12  13
ATOM     13  C   UNL     1       4.037   3.899  19.276  0.00  0.00    +0.000 C 
BRANCH  13  15
ATOM     14  O   UNL     1       6.104   4.960  19.862  0.00  0.00    +0.000 OA
ATOM     15  C   UNL     1       5.414   4.464  18.971  0.00  0.00    +0.000 C 
ATOM     16  N   UNL     1       5.866   4.377  17.665  0.00  0.00    +0.000 N 
ATOM     17  C   UNL     1       7.242   4.772  17.348  0.00  0.00    +0.000 C 
ATOM     18  C   UNL     1       7.255   5.842  16.255  0.00  0.00    +0.000 C 
ATOM     19  O   UNL     1       6.554   5.382  15.086  0.00  0.00    +0.000 OA
ATOM     20  C   UNL     1       5.186   5.077  15.400  0.00  0.00    +0.000 C 
ATOM     21  C   UNL     1       5.085   3.990  16.483  0.00  0.00    +0.000 C 
ENDBRANCH  13  15
ENDBRANCH  12  13
ENDBRANCH   1  12
TORSDOF 4
ENDMDL
MODEL 8
REMARK VINA RESULT:      -6.6      4.919      7.027
REMARK  Name = 
REMARK  4 active torsions:
REMARK  status: ('A' for Active; 'I' for Inactive)
REMARK    1  A    between atoms: C_2  and  C_3
REMARK    2  A    between atoms: C_3  and  C_4
REMARK    3  A    between atoms: C_4  and  S_5
REMARK    4  A    between atoms: S_5  and  C_6
REMARK                            x       y       z     vdW  Elec       q    Type
REMARK                         _______ _______ _______ _____ _____    ______ ____
ROOT
ATOM      1  S   UNL     1       4.125   6.361  17.378  0.00  0.00    +0.000 S 
ENDROOT
BRANCH   1   2
ATOM      2  C   UNL     1       3.015   7.223  18.410  0.00  0.00    +0.000 A 
ATOM      3  N   UNL     1       2.702   6.887  19.650  0.00  0.00    +0.000 NA
ATOM      4  C   UNL     1       1.802   7.854  20.039  0.00  0.00    +0.000 A 
ATOM      5  C   UNL     1       1.104   8.049  21.241  0.00  0.00    +0.000 A 
ATOM      6  C   UNL     1       0.239   9.149  21.323  0.00  0.00    +0.000 A 
ATOM      7 CL   UNL     1      -0.642   9.423  22.780  0.00  0.00    +0.000 Cl
ATOM      8  C   UNL     1       0.068  10.036  20.251  0.00  0.00    +0.000 A 
ATOM      9  C   UNL     1       0.760   9.853  19.048  0.00  0.00    +0.000 A 
ATOM     10  C   UNL     1       1.606   8.751  19.001  0.00  0.00    +0.000 A 
ATOM     11  O   UNL     1       2.382   8.354  17.957  0.00  0.00    +0.000 OA
ENDBRANCH   1   2
BRANCH   1  12
ATOM     12  C   UNL     1       5.145   5.444  18.570  0.00  0.00    +0.000 C 
BRANCH  12  13
ATOM     13  C   UNL     1       5.107   3.950  18.227  0.00  0.00    +0.000 C 
BRANCH  13  15
ATOM     14  O   UNL     1       3.166   3.560  16.877  0.00  0.00    +0.000 OA
ATOM     15  C   UNL     1       3.683   3.476  17.991  0.00  0.00    +0.000 C 
ATOM     16  N   UNL     1       3.005   2.926  19.067  0.00  0.00    +0.000 N 
ATOM     17  C   UNL     1       1.687   2.320  18.858  0.00  0.00    +0.000 C 
ATOM     18  C   UNL     1       0.649   2.964  19.779  0.00  0.00    +0.000 C 
ATOM     19  O   UNL     1       1.062   2.871  21.153  0.00  0.00    +0.000 OA
ATOM     20  C   UNL     1       2.317   3.541  21.354  0.00  0.00    +0.000 C 
ATOM     21  C   UNL     1       3.425   2.937  20.474  0.00  0.00    +0.000 C 
ENDBRANCH  13  15
ENDBRANCH  12  13
ENDBRANCH   1  12
TORSDOF 4
ENDMDL
MODEL 9
REMARK VINA RESULT:      -6.5      5.521      8.596
REMARK  Name = 
REMARK  4 active torsions:
REMARK  status: ('A' for Active; 'I' for Inactive)
REMARK    1  A    between atoms: C_2  and  C_3
REMARK    2  A    between atoms: C_3  and  C_4
REMARK    3  A    between atoms: C_4  and  S_5
REMARK    4  A    between atoms: S_5  and  C_6
REMARK                            x       y       z     vdW  Elec       q    Type
REMARK                         _______ _______ _______ _____ _____    ______ ____
ROOT
ATOM      1  S   UNL     1       2.829   7.031  18.577  0.00  0.00    +0.000 S 
ENDROOT
BRANCH   1   2
ATOM      2  C   UNL     1       1.815   8.170  19.421  0.00  0.00    +0.000 A 
ATOM      3  N   UNL     1       1.506   8.119  20.705  0.00  0.00    +0.000 NA
ATOM      4  C   UNL     1       0.694   9.213  20.896  0.00  0.00    +0.000 A 
ATOM      5  C   UNL     1       0.043   9.704  22.039  0.00  0.00    +0.000 A 
ATOM      6  C   UNL     1      -0.732  10.864  21.902  0.00  0.00    +0.000 A 
ATOM      7 CL   UNL     1      -1.554  11.497  23.280  0.00  0.00    +0.000 Cl
ATOM      8  C   UNL     1      -0.859  11.526  20.673  0.00  0.00    +0.000 A 
ATOM      9  C   UNL     1      -0.213  11.049  19.528  0.00  0.00    +0.000 A 
ATOM     10  C   UNL     1       0.544   9.896  19.700  0.00  0.00    +0.000 A 
ATOM     11  O   UNL     1       1.261   9.234  18.752  0.00  0.00    +0.000 OA
ENDBRANCH   1   2
BRANCH   1  12
ATOM     12  C   UNL     1       2.522   5.483  19.478  0.00  0.00    +0.000 C 
BRANCH  12  13
ATOM     13  C   UNL     1       3.706   4.531  19.269  0.00  0.00    +0.000 C 
BRANCH  13  15
ATOM     14  O   UNL     1       3.142   3.694  17.095  0.00  0.00    +0.000 OA
ATOM     15  C   UNL     1       3.965   4.290  17.791  0.00  0.00    +0.000 C 
ATOM     16  N   UNL     1       5.143   4.786  17.259  0.00  0.00    +0.000 N 
ATOM     17  C   UNL     1       5.372   4.711  15.812  0.00  0.00    +0.000 C 
ATOM     18  C   UNL     1       6.682   3.980  15.514  0.00  0.00    +0.000 C 
ATOM     19  O   UNL     1       7.782   4.613  16.190  0.00  0.00    +0.000 OA
ATOM     20  C   UNL     1       7.578   4.605  17.612  0.00  0.00    +0.000 C 
ATOM     21  C   UNL     1       6.283   5.340  18.000  0.00  0.00    +0.000 C 
ENDBRANCH  13  15
ENDBRANCH  12  13
ENDBRANCH   1  12
TORSDOF 4
ENDMDL
