MODEL 1
REMARK VINA RESULT:      -8.4      0.000      0.000
REMARK  Name = 
REMARK  5 active torsions:
REMARK  status: ('A' for Active; 'I' for Inactive)
REMARK    1  A    between atoms: C_1  and  C_2
REMARK    2  A    between atoms: C_5  and  C_6
REMARK    3  A    between atoms: C_9  and  N_10
REMARK    4  A    between atoms: C_23  and  S_24
REMARK    5  A    between atoms: S_24  and  N_25
REMARK                            x       y       z     vdW  Elec       q    Type
REMARK                         _______ _______ _______ _____ _____    ______ ____
ROOT
ATOM      1  C   UNL     1       2.344   7.831  18.683  0.00  0.00    +0.000 A 
ATOM      2  N   UNL     1       3.244   8.169  17.732  0.00  0.00    +0.000 NA
ATOM      3  N   UNL     1       4.257   7.307  17.380  0.00  0.00    +0.000 NA
ATOM      4  C   UNL     1       4.395   6.096  17.960  0.00  0.00    +0.000 A 
ATOM      5  C   UNL     1       3.457   5.689  18.951  0.00  0.00    +0.000 A 
ATOM      6  C   UNL     1       3.443   4.392  19.537  0.00  0.00    +0.000 A 
ATOM      7  C   UNL     1       2.550   4.006  20.534  0.00  0.00    +0.000 A 
ATOM      8  C   UNL     1       1.605   4.906  20.971  0.00  0.00    +0.000 A 
ATOM      9  C   UNL     1       1.556   6.175  20.396  0.00  0.00    +0.000 A 
ATOM     10  C   UNL     1       2.437   6.589  19.353  0.00  0.00    +0.000 A 
ENDROOT
BRANCH   1  15
ATOM     11  C   UNL     1      -1.957  11.751  19.341  0.00  0.00    +0.000 C 
ATOM     12  C   UNL     1      -0.827  10.769  19.218  0.00  0.00    +0.000 A 
ATOM     13  C   UNL     1      -0.590  10.164  17.973  0.00  0.00    +0.000 A 
ATOM     14  C   UNL     1       0.437   9.222  17.799  0.00  0.00    +0.000 A 
ATOM     15  C   UNL     1       1.266   8.837  18.862  0.00  0.00    +0.000 A 
ATOM     16  C   UNL     1       0.992   9.414  20.111  0.00  0.00    +0.000 A 
ATOM     17  C   UNL     1      -0.012  10.385  20.291  0.00  0.00    +0.000 A 
BRANCH  17  18
ATOM     18  S   UNL     1      -0.142  11.057  21.930  0.00  0.00    +0.000 S 
ATOM     19  O   UNL     1       0.524  12.339  21.964  0.00  0.00    +0.000 OA
ATOM     20  O   UNL     1      -1.474  10.885  22.466  0.00  0.00    +0.000 OA
BRANCH  18  21
ATOM     21  N   UNL     1       0.839  10.003  22.786  0.00  0.00    +0.000 NA
ATOM     22  H   UNL     1       0.283   9.247  23.185  0.00  0.00    +0.000 HD
ATOM     23  H   UNL     1       1.616   9.693  22.206  0.00  0.00    +0.000 HD
ENDBRANCH  18  21
ENDBRANCH  17  18
ENDBRANCH   1  15
BRANCH   4  24
ATOM     24  N   UNL     1       5.407   5.274  17.508  0.00  0.00    +0.000 N 
ATOM     25  C   UNL     1       6.390   4.711  18.442  0.00  0.00    +0.000 C 
ATOM     26  C   UNL     1       7.766   4.744  17.736  0.00  0.00    +0.000 C 
ATOM     27  O   UNL     1       7.746   4.101  16.442  0.00  0.00    +0.000 OA
ATOM     28  C   UNL     1       6.724   4.667  15.597  0.00  0.00    +0.000 C 
ATOM     29  C   UNL     1       5.344   4.511  16.259  0.00  0.00    +0.000 C 
ENDBRANCH   4  24
TORSDOF 4
ENDMDL
MODEL 2
REMARK VINA RESULT:      -8.3      3.112      7.804
REMARK  Name = 
REMARK  5 active torsions:
REMARK  status: ('A' for Active; 'I' for Inactive)
REMARK    1  A    between atoms: C_1  and  C_2
REMARK    2  A    between atoms: C_5  and  C_6
REMARK    3  A    between atoms: C_9  and  N_10
REMARK    4  A    between atoms: C_23  and  S_24
REMARK    5  A    between atoms: S_24  and  N_25
REMARK                            x       y       z     vdW  Elec       q    Type
REMARK                         _______ _______ _______ _____ _____    ______ ____
ROOT
ATOM      1  C   UNL     1       1.673   8.304  19.607  0.00  0.00    +0.000 A 
ATOM      2  N   UNL     1       2.071   8.878  18.450  0.00  0.00    +0.000 NA
ATOM      3  N   UNL     1       1.796  10.200  18.187  0.00  0.00    +0.000 NA
ATOM      4  C   UNL     1       1.125  10.977  19.065  0.00  0.00    +0.000 A 
ATOM      5  C   UNL     1       0.706  10.419  20.306  0.00  0.00    +0.000 A 
ATOM      6  C   UNL     1       0.100  11.178  21.346  0.00  0.00    +0.000 A 
ATOM      7  C   UNL     1      -0.346  10.626  22.544  0.00  0.00    +0.000 A 
ATOM      8  C   UNL     1      -0.174   9.279  22.766  0.00  0.00    +0.000 A 
ATOM      9  C   UNL     1       0.452   8.503  21.791  0.00  0.00    +0.000 A 
ATOM     10  C   UNL     1       0.945   9.045  20.566  0.00  0.00    +0.000 A 
ENDROOT
BRANCH   1  15
ATOM     11  C   UNL     1       3.443   2.755  20.230  0.00  0.00    +0.000 C 
ATOM     12  C   UNL     1       3.043   4.192  20.053  0.00  0.00    +0.000 A 
ATOM     13  C   UNL     1       1.928   4.675  20.758  0.00  0.00    +0.000 A 
ATOM     14  C   UNL     1       1.491   6.002  20.619  0.00  0.00    +0.000 A 
ATOM     15  C   UNL     1       2.142   6.903  19.765  0.00  0.00    +0.000 A 
ATOM     16  C   UNL     1       3.227   6.398  19.032  0.00  0.00    +0.000 A 
ATOM     17  C   UNL     1       3.697   5.080  19.189  0.00  0.00    +0.000 A 
BRANCH  17  18
ATOM     18  S   UNL     1       5.137   4.663  18.236  0.00  0.00    +0.000 S 
ATOM     19  O   UNL     1       6.238   4.412  19.139  0.00  0.00    +0.000 OA
ATOM     20  O   UNL     1       4.814   3.744  17.168  0.00  0.00    +0.000 OA
BRANCH  18  21
ATOM     21  N   UNL     1       5.468   6.130  17.499  0.00  0.00    +0.000 NA
ATOM     22  H   UNL     1       6.332   6.067  16.960  0.00  0.00    +0.000 HD
ATOM     23  H   UNL     1       4.661   6.448  16.966  0.00  0.00    +0.000 HD
ENDBRANCH  18  21
ENDBRANCH  17  18
ENDBRANCH   1  15
BRANCH   4  24
ATOM     24  N   UNL     1       0.941  12.305  18.743  0.00  0.00    +0.000 N 
ATOM     25  C   UNL     1       2.067  13.129  18.286  0.00  0.00    +0.000 C 
ATOM     26  C   UNL     1       1.901  14.529  18.924  0.00  0.00    +0.000 C 
ATOM     27  O   UNL     1       0.603  15.109  18.668  0.00  0.00    +0.000 OA
ATOM     28  C   UNL     1      -0.454  14.226  19.092  0.00  0.00    +0.000 C 
ATOM     29  C   UNL     1      -0.348  12.881  18.352  0.00  0.00    +0.000 C 
ENDBRANCH   4  24
TORSDOF 4
ENDMDL
MODEL 3
REMARK VINA RESULT:      -8.3      1.052      1.072
REMARK  Name = 
REMARK  5 active torsions:
REMARK  status: ('A' for Active; 'I' for Inactive)
REMARK    1  A    between atoms: C_1  and  C_2
REMARK    2  A    between atoms: C_5  and  C_6
REMARK    3  A    between atoms: C_9  and  N_10
REMARK    4  A    between atoms: C_23  and  S_24
REMARK    5  A    between atoms: S_24  and  N_25
REMARK                            x       y       z     vdW  Elec       q    Type
REMARK                         _______ _______ _______ _____ _____    ______ ____
ROOT
ATOM      1  C   UNL     1       2.404   7.679  18.813  0.00  0.00    +0.000 A 
ATOM      2  N   UNL     1       3.212   8.064  17.800  0.00  0.00    +0.000 NA
ATOM      3  N   UNL     1       4.103   7.181  17.233  0.00  0.00    +0.000 NA
ATOM      4  C   UNL     1       4.207   5.903  17.657  0.00  0.00    +0.000 A 
ATOM      5  C   UNL     1       3.360   5.449  18.708  0.00  0.00    +0.000 A 
ATOM      6  C   UNL     1       3.307   4.097  19.147  0.00  0.00    +0.000 A 
ATOM      7  C   UNL     1       2.508   3.659  20.201  0.00  0.00    +0.000 A 
ATOM      8  C   UNL     1       1.697   4.564  20.847  0.00  0.00    +0.000 A 
ATOM      9  C   UNL     1       1.686   5.892  20.423  0.00  0.00    +0.000 A 
ATOM     10  C   UNL     1       2.472   6.364  19.329  0.00  0.00    +0.000 A 
ENDROOT
BRANCH   1  15
ATOM     11  C   UNL     1      -1.444  11.797  20.407  0.00  0.00    +0.000 C 
ATOM     12  C   UNL     1      -0.433  10.745  20.051  0.00  0.00    +0.000 A 
ATOM     13  C   UNL     1      -0.143  10.517  18.695  0.00  0.00    +0.000 A 
ATOM     14  C   UNL     1       0.776   9.533  18.297  0.00  0.00    +0.000 A 
ATOM     15  C   UNL     1       1.441   8.729  19.233  0.00  0.00    +0.000 A 
ATOM     16  C   UNL     1       1.112   8.935  20.582  0.00  0.00    +0.000 A 
ATOM     17  C   UNL     1       0.218   9.942  20.996  0.00  0.00    +0.000 A 
BRANCH  17  18
ATOM     18  S   UNL     1       0.004  10.098  22.752  0.00  0.00    +0.000 S 
ATOM     19  O   UNL     1       1.210   9.651  23.412  0.00  0.00    +0.000 OA
ATOM     20  O   UNL     1      -0.621  11.356  23.097  0.00  0.00    +0.000 OA
BRANCH  18  21
ATOM     21  N   UNL     1      -1.147   8.916  23.041  0.00  0.00    +0.000 NA
ATOM     22  H   UNL     1      -1.140   8.225  22.291  0.00  0.00    +0.000 HD
ATOM     23  H   UNL     1      -1.026   8.526  23.974  0.00  0.00    +0.000 HD
ENDBRANCH  18  21
ENDBRANCH  17  18
ENDBRANCH   1  15
BRANCH   4  24
ATOM     24  N   UNL     1       5.088   5.072  16.995  0.00  0.00    +0.000 N 
ATOM     25  C   UNL     1       6.375   4.710  17.601  0.00  0.00    +0.000 C 
ATOM     26  C   UNL     1       7.429   4.701  16.469  0.00  0.00    +0.000 C 
ATOM     27  O   UNL     1       7.045   3.865  15.354  0.00  0.00    +0.000 OA
ATOM     28  C   UNL     1       5.751   4.243  14.844  0.00  0.00    +0.000 C 
ATOM     29  C   UNL     1       4.690   4.123  15.953  0.00  0.00    +0.000 C 
ENDBRANCH   4  24
TORSDOF 4
ENDMDL
MODEL 4
REMARK VINA RESULT:      -8.3      3.063      7.771
REMARK  Name = 
REMARK  5 active torsions:
REMARK  status: ('A' for Active; 'I' for Inactive)
REMARK    1  A    between atoms: C_1  and  C_2
REMARK    2  A    between atoms: C_5  and  C_6
REMARK    3  A    between atoms: C_9  and  N_10
REMARK    4  A    between atoms: C_23  and  S_24
REMARK    5  A    between atoms: S_24  and  N_25
REMARK                            x       y       z     vdW  Elec       q    Type
REMARK                         _______ _______ _______ _____ _____    ______ ____
ROOT
ATOM      1  C   UNL     1       2.080   8.176  18.493  0.00  0.00    +0.000 A 
ATOM      2  N   UNL     1       2.281   8.995  17.437  0.00  0.00    +0.000 NA
ATOM      3  N   UNL     1       1.959  10.331  17.509  0.00  0.00    +0.000 NA
ATOM      4  C   UNL     1       1.437  10.879  18.627  0.00  0.00    +0.000 A 
ATOM      5  C   UNL     1       1.229  10.057  19.771  0.00  0.00    +0.000 A 
ATOM      6  C   UNL     1       0.797  10.557  21.031  0.00  0.00    +0.000 A 
ATOM      7  C   UNL     1       0.555   9.749  22.140  0.00  0.00    +0.000 A 
ATOM      8  C   UNL     1       0.768   8.392  22.038  0.00  0.00    +0.000 A 
ATOM      9  C   UNL     1       1.231   7.864  20.834  0.00  0.00    +0.000 A 
ATOM     10  C   UNL     1       1.514   8.669  19.691  0.00  0.00    +0.000 A 
ENDROOT
BRANCH   1  15
ATOM     11  C   UNL     1       3.970   2.709  17.573  0.00  0.00    +0.000 C 
ATOM     12  C   UNL     1       3.539   4.124  17.828  0.00  0.00    +0.000 A 
ATOM     13  C   UNL     1       2.172   4.392  18.010  0.00  0.00    +0.000 A 
ATOM     14  C   UNL     1       1.703   5.697  18.231  0.00  0.00    +0.000 A 
ATOM     15  C   UNL     1       2.576   6.793  18.272  0.00  0.00    +0.000 A 
ATOM     16  C   UNL     1       3.934   6.520  18.045  0.00  0.00    +0.000 A 
ATOM     17  C   UNL     1       4.421   5.212  17.857  0.00  0.00    +0.000 A 
BRANCH  17  18
ATOM     18  S   UNL     1       6.182   5.071  17.675  0.00  0.00    +0.000 S 
ATOM     19  O   UNL     1       6.733   4.502  18.884  0.00  0.00    +0.000 OA
ATOM     20  O   UNL     1       6.537   4.557  16.371  0.00  0.00    +0.000 OA
BRANCH  18  21
ATOM     21  N   UNL     1       6.634   6.684  17.674  0.00  0.00    +0.000 NA
ATOM     22  H   UNL     1       5.874   7.264  18.028  0.00  0.00    +0.000 HD
ATOM     23  H   UNL     1       7.518   6.803  18.164  0.00  0.00    +0.000 HD
ENDBRANCH  18  21
ENDBRANCH  17  18
ENDBRANCH   1  15
BRANCH   4  24
ATOM     24  N   UNL     1       1.196  12.237  18.629  0.00  0.00    +0.000 N 
ATOM     25  C   UNL     1       2.274  13.191  18.338  0.00  0.00    +0.000 C 
ATOM     26  C   UNL     1       2.089  14.397  19.289  0.00  0.00    +0.000 C 
ATOM     27  O   UNL     1       0.763  14.966  19.219  0.00  0.00    +0.000 OA
ATOM     28  C   UNL     1      -0.245  13.965  19.463  0.00  0.00    +0.000 C 
ATOM     29  C   UNL     1      -0.127  12.833  18.427  0.00  0.00    +0.000 C 
ENDBRANCH   4  24
TORSDOF 4
ENDMDL
MODEL 5
REMARK VINA RESULT:      -8.2      1.862      2.325
REMARK  Name = 
REMARK  5 active torsions:
REMARK  status: ('A' for Active; 'I' for Inactive)
REMARK    1  A    between atoms: C_1  and  C_2
REMARK    2  A    between atoms: C_5  and  C_6
REMARK    3  A    between atoms: C_9  and  N_10
REMARK    4  A    between atoms: C_23  and  S_24
REMARK    5  A    between atoms: S_24  and  N_25
REMARK                            x       y       z     vdW  Elec       q    Type
REMARK                         _______ _______ _______ _____ _____    ______ ____
ROOT
ATOM      1  C   UNL     1       2.347   7.361  19.438  0.00  0.00    +0.000 A 
ATOM      2  N   UNL     1       3.171   7.881  18.501  0.00  0.00    +0.000 NA
ATOM      3  N   UNL     1       4.007   7.070  17.769  0.00  0.00    +0.000 NA
ATOM      4  C   UNL     1       4.040   5.732  17.949  0.00  0.00    +0.000 A 
ATOM      5  C   UNL     1       3.173   5.140  18.910  0.00  0.00    +0.000 A 
ATOM      6  C   UNL     1       3.045   3.735  19.094  0.00  0.00    +0.000 A 
ATOM      7  C   UNL     1       2.226   3.155  20.061  0.00  0.00    +0.000 A 
ATOM      8  C   UNL     1       1.471   3.969  20.874  0.00  0.00    +0.000 A 
ATOM      9  C   UNL     1       1.534   5.351  20.702  0.00  0.00    +0.000 A 
ATOM     10  C   UNL     1       2.341   5.972  19.702  0.00  0.00    +0.000 A 
ENDROOT
BRANCH   1  15
ATOM     11  C   UNL     1      -1.147  11.341  21.940  0.00  0.00    +0.000 C 
ATOM     12  C   UNL     1      -0.284  10.324  21.250  0.00  0.00    +0.000 A 
ATOM     13  C   UNL     1       0.467   9.432  22.033  0.00  0.00    +0.000 A 
ATOM     14  C   UNL     1       1.309   8.473  21.449  0.00  0.00    +0.000 A 
ATOM     15  C   UNL     1       1.446   8.367  20.058  0.00  0.00    +0.000 A 
ATOM     16  C   UNL     1       0.726   9.292  19.286  0.00  0.00    +0.000 A 
ATOM     17  C   UNL     1      -0.148  10.236  19.859  0.00  0.00    +0.000 A 
BRANCH  17  18
ATOM     18  S   UNL     1      -1.032  11.258  18.705  0.00  0.00    +0.000 S 
ATOM     19  O   UNL     1      -2.430  11.276  19.073  0.00  0.00    +0.000 OA
ATOM     20  O   UNL     1      -0.312  12.479  18.424  0.00  0.00    +0.000 OA
BRANCH  18  21
ATOM     21  N   UNL     1      -0.931  10.331  17.314  0.00  0.00    +0.000 NA
ATOM     22  H   UNL     1      -0.278   9.560  17.450  0.00  0.00    +0.000 HD
ATOM     23  H   UNL     1      -1.861  10.047  17.011  0.00  0.00    +0.000 HD
ENDBRANCH  18  21
ENDBRANCH  17  18
ENDBRANCH   1  15
BRANCH   4  24
ATOM     24  N   UNL     1       4.869   4.990  17.133  0.00  0.00    +0.000 N 
ATOM     25  C   UNL     1       6.168   4.510  17.622  0.00  0.00    +0.000 C 
ATOM     26  C   UNL     1       7.177   4.648  16.457  0.00  0.00    +0.000 C 
ATOM     27  O   UNL     1       6.725   3.999  15.247  0.00  0.00    +0.000 OA
ATOM     28  C   UNL     1       5.424   4.480  14.855  0.00  0.00    +0.000 C 
ATOM     29  C   UNL     1       4.404   4.220  15.978  0.00  0.00    +0.000 C 
ENDBRANCH   4  24
TORSDOF 4
ENDMDL
MODEL 6
REMARK VINA RESULT:      -8.2      3.466      7.619
REMARK  Name = 
REMARK  5 active torsions:
REMARK  status: ('A' for Active; 'I' for Inactive)
REMARK    1  A    between atoms: C_1  and  C_2
REMARK    2  A    between atoms: C_5  and  C_6
REMARK    3  A    between atoms: C_9  and  N_10
REMARK    4  A    between atoms: C_23  and  S_24
REMARK    5  A    between atoms: S_24  and  N_25
REMARK                            x       y       z     vdW  Elec       q    Type
REMARK                         _______ _______ _______ _____ _____    ______ ____
ROOT
ATOM      1  C   UNL     1       2.057   8.379  18.523  0.00  0.00    +0.000 A 
ATOM      2  N   UNL     1       2.221   9.232  17.488  0.00  0.00    +0.000 NA
ATOM      3  N   UNL     1       1.828  10.547  17.588  0.00  0.00    +0.000 NA
ATOM      4  C   UNL     1       1.269  11.040  18.714  0.00  0.00    +0.000 A 
ATOM      5  C   UNL     1       1.097  10.181  19.837  0.00  0.00    +0.000 A 
ATOM      6  C   UNL     1       0.630  10.627  21.105  0.00  0.00    +0.000 A 
ATOM      7  C   UNL     1       0.424   9.782  22.193  0.00  0.00    +0.000 A 
ATOM      8  C   UNL     1       0.710   8.441  22.062  0.00  0.00    +0.000 A 
ATOM      9  C   UNL     1       1.209   7.967  20.850  0.00  0.00    +0.000 A 
ATOM     10  C   UNL     1       1.457   8.813  19.728  0.00  0.00    +0.000 A 
ENDROOT
BRANCH   1  15
ATOM     11  C   UNL     1       4.384   3.092  17.553  0.00  0.00    +0.000 C 
ATOM     12  C   UNL     1       3.736   4.422  17.811  0.00  0.00    +0.000 A 
ATOM     13  C   UNL     1       4.335   5.579  17.286  0.00  0.00    +0.000 A 
ATOM     14  C   UNL     1       3.790   6.853  17.511  0.00  0.00    +0.000 A 
ATOM     15  C   UNL     1       2.628   7.030  18.275  0.00  0.00    +0.000 A 
ATOM     16  C   UNL     1       2.063   5.872  18.831  0.00  0.00    +0.000 A 
ATOM     17  C   UNL     1       2.580   4.585  18.585  0.00  0.00    +0.000 A 
BRANCH  17  18
ATOM     18  S   UNL     1       1.668   3.244  19.309  0.00  0.00    +0.000 S 
ATOM     19  O   UNL     1       0.835   2.642  18.292  0.00  0.00    +0.000 OA
ATOM     20  O   UNL     1       2.507   2.439  20.168  0.00  0.00    +0.000 OA
BRANCH  18  21
ATOM     21  N   UNL     1       0.629   4.075  20.326  0.00  0.00    +0.000 NA
ATOM     22  H   UNL     1       0.548   5.048  20.031  0.00  0.00    +0.000 HD
ATOM     23  H   UNL     1      -0.259   3.583  20.403  0.00  0.00    +0.000 HD
ENDBRANCH  18  21
ENDBRANCH  17  18
ENDBRANCH   1  15
BRANCH   4  24
ATOM     24  N   UNL     1       0.955  12.383  18.746  0.00  0.00    +0.000 N 
ATOM     25  C   UNL     1       2.005  13.401  18.619  0.00  0.00    +0.000 C 
ATOM     26  C   UNL     1       1.650  14.550  19.592  0.00  0.00    +0.000 C 
ATOM     27  O   UNL     1       0.310  15.055  19.396  0.00  0.00    +0.000 OA
ATOM     28  C   UNL     1      -0.662  13.994  19.482  0.00  0.00    +0.000 C 
ATOM     29  C   UNL     1      -0.368  12.921  18.420  0.00  0.00    +0.000 C 
ENDBRANCH   4  24
TORSDOF 4
ENDMDL
MODEL 7
REMARK VINA RESULT:      -8.2      0.616      1.090
REMARK  Name = 
REMARK  5 active torsions:
REMARK  status: ('A' for Active; 'I' for Inactive)
REMARK    1  A    between atoms: C_1  and  C_2
REMARK    2  A    between atoms: C_5  and  C_6
REMARK    3  A    between atoms: C_9  and  N_10
REMARK    4  A    between atoms: C_23  and  S_24
REMARK    5  A    between atoms: S_24  and  N_25
REMARK                            x       y       z     vdW  Elec       q    Type
REMARK                         _______ _______ _______ _____ _____    ______ ____
ROOT
ATOM      1  C   UNL     1       2.199   8.240  18.527  0.00  0.00    +0.000 A 
ATOM      2  N   UNL     1       2.992   8.665  17.518  0.00  0.00    +0.000 NA
ATOM      3  N   UNL     1       4.040   7.894  17.071  0.00  0.00    +0.000 NA
ATOM      4  C   UNL     1       4.320   6.689  17.612  0.00  0.00    +0.000 A 
ATOM      5  C   UNL     1       3.497   6.192  18.664  0.00  0.00    +0.000 A 
ATOM      6  C   UNL     1       3.633   4.890  19.220  0.00  0.00    +0.000 A 
ATOM      7  C   UNL     1       2.855   4.417  20.275  0.00  0.00    +0.000 A 
ATOM      8  C   UNL     1       1.877   5.230  20.802  0.00  0.00    +0.000 A 
ATOM      9  C   UNL     1       1.682   6.499  20.260  0.00  0.00    +0.000 A 
ATOM     10  C   UNL     1       2.443   7.000  19.162  0.00  0.00    +0.000 A 
ENDROOT
BRANCH   1  15
ATOM     11  C   UNL     1      -2.338  11.786  19.596  0.00  0.00    +0.000 C 
ATOM     12  C   UNL     1      -1.147  10.901  19.367  0.00  0.00    +0.000 A 
ATOM     13  C   UNL     1      -0.945  10.357  18.088  0.00  0.00    +0.000 A 
ATOM     14  C   UNL     1       0.137   9.505  17.817  0.00  0.00    +0.000 A 
ATOM     15  C   UNL     1       1.061   9.151  18.810  0.00  0.00    +0.000 A 
ATOM     16  C   UNL     1       0.825   9.665  20.095  0.00  0.00    +0.000 A 
ATOM     17  C   UNL     1      -0.237  10.548  20.372  0.00  0.00    +0.000 A 
BRANCH  17  18
ATOM     18  S   UNL     1      -0.310  11.154  22.040  0.00  0.00    +0.000 S 
ATOM     19  O   UNL     1       0.303  12.462  22.090  0.00  0.00    +0.000 OA
ATOM     20  O   UNL     1      -1.606  10.907  22.634  0.00  0.00    +0.000 OA
BRANCH  18  21
ATOM     21  N   UNL     1       0.755  10.114  22.806  0.00  0.00    +0.000 NA
ATOM     22  H   UNL     1       1.709  10.463  22.725  0.00  0.00    +0.000 HD
ATOM     23  H   UNL     1       0.451   9.938  23.762  0.00  0.00    +0.000 HD
ENDBRANCH  18  21
ENDBRANCH  17  18
ENDBRANCH   1  15
BRANCH   4  24
ATOM     24  N   UNL     1       5.355   5.960  17.066  0.00  0.00    +0.000 N 
ATOM     25  C   UNL     1       5.198   5.290  15.768  0.00  0.00    +0.000 C 
ATOM     26  C   UNL     1       5.914   3.922  15.868  0.00  0.00    +0.000 C 
ATOM     27  O   UNL     1       7.285   4.040  16.309  0.00  0.00    +0.000 OA
ATOM     28  C   UNL     1       7.369   4.752  17.560  0.00  0.00    +0.000 C 
ATOM     29  C   UNL     1       6.766   6.159  17.408  0.00  0.00    +0.000 C 
ENDBRANCH   4  24
TORSDOF 4
ENDMDL
MODEL 8
REMARK VINA RESULT:      -8.1      2.421      2.829
REMARK  Name = 
REMARK  5 active torsions:
REMARK  status: ('A' for Active; 'I' for Inactive)
REMARK    1  A    between atoms: C_1  and  C_2
REMARK    2  A    between atoms: C_5  and  C_6
REMARK    3  A    between atoms: C_9  and  N_10
REMARK    4  A    between atoms: C_23  and  S_24
REMARK    5  A    between atoms: S_24  and  N_25
REMARK                            x       y       z     vdW  Elec       q    Type
REMARK                         _______ _______ _______ _____ _____    ______ ____
ROOT
ATOM      1  C   UNL     1       2.170   8.341  18.565  0.00  0.00    +0.000 A 
ATOM      2  N   UNL     1       2.932   8.775  17.536  0.00  0.00    +0.000 NA
ATOM      3  N   UNL     1       3.958   8.002  17.042  0.00  0.00    +0.000 NA
ATOM      4  C   UNL     1       4.244   6.787  17.554  0.00  0.00    +0.000 A 
ATOM      5  C   UNL     1       3.454   6.280  18.625  0.00  0.00    +0.000 A 
ATOM      6  C   UNL     1       3.596   4.968  19.156  0.00  0.00    +0.000 A 
ATOM      7  C   UNL     1       2.850   4.485  20.229  0.00  0.00    +0.000 A 
ATOM      8  C   UNL     1       1.898   5.297  20.802  0.00  0.00    +0.000 A 
ATOM      9  C   UNL     1       1.696   6.577  20.287  0.00  0.00    +0.000 A 
ATOM     10  C   UNL     1       2.424   7.089  19.171  0.00  0.00    +0.000 A 
ENDROOT
BRANCH   1  15
ATOM     11  C   UNL     1      -2.191  12.010  19.915  0.00  0.00    +0.000 C 
ATOM     12  C   UNL     1      -1.110  11.039  19.535  0.00  0.00    +0.000 A 
ATOM     13  C   UNL     1      -0.001  10.897  20.385  0.00  0.00    +0.000 A 
ATOM     14  C   UNL     1       1.053  10.022  20.075  0.00  0.00    +0.000 A 
ATOM     15  C   UNL     1       1.050   9.257  18.900  0.00  0.00    +0.000 A 
ATOM     16  C   UNL     1      -0.042   9.440  18.037  0.00  0.00    +0.000 A 
ATOM     17  C   UNL     1      -1.121  10.288  18.353  0.00  0.00    +0.000 A 
BRANCH  17  18
ATOM     18  S   UNL     1      -2.445  10.312  17.170  0.00  0.00    +0.000 S 
ATOM     19  O   UNL     1      -2.133   9.391  16.100  0.00  0.00    +0.000 OA
ATOM     20  O   UNL     1      -3.735  10.299  17.823  0.00  0.00    +0.000 OA
BRANCH  18  21
ATOM     21  N   UNL     1      -2.270  11.847  16.525  0.00  0.00    +0.000 NA
ATOM     22  H   UNL     1      -1.380  12.252  16.812  0.00  0.00    +0.000 HD
ATOM     23  H   UNL     1      -2.417  11.826  15.517  0.00  0.00    +0.000 HD
ENDBRANCH  18  21
ENDBRANCH  17  18
ENDBRANCH   1  15
BRANCH   4  24
ATOM     24  N   UNL     1       5.255   6.057  16.962  0.00  0.00    +0.000 N 
ATOM     25  C   UNL     1       5.068   5.461  15.633  0.00  0.00    +0.000 C 
ATOM     26  C   UNL     1       5.745   4.070  15.655  0.00  0.00    +0.000 C 
ATOM     27  O   UNL     1       7.122   4.125  16.090  0.00  0.00    +0.000 OA
ATOM     28  C   UNL     1       7.235   4.768  17.375  0.00  0.00    +0.000 C 
ATOM     29  C   UNL     1       6.672   6.198  17.302  0.00  0.00    +0.000 C 
ENDBRANCH   4  24
TORSDOF 4
ENDMDL
MODEL 9
REMARK VINA RESULT:      -8.1      3.067      7.947
REMARK  Name = 
REMARK  5 active torsions:
REMARK  status: ('A' for Active; 'I' for Inactive)
REMARK    1  A    between atoms: C_1  and  C_2
REMARK    2  A    between atoms: C_5  and  C_6
REMARK    3  A    between atoms: C_9  and  N_10
REMARK    4  A    between atoms: C_23  and  S_24
REMARK    5  A    between atoms: S_24  and  N_25
REMARK                            x       y       z     vdW  Elec       q    Type
REMARK                         _______ _______ _______ _____ _____    ______ ____
ROOT
ATOM      1  C   UNL     1       2.130   8.497  18.389  0.00  0.00    +0.000 A 
ATOM      2  N   UNL     1       2.242   9.404  17.393  0.00  0.00    +0.000 NA
ATOM      3  N   UNL     1       1.797  10.696  17.562  0.00  0.00    +0.000 NA
ATOM      4  C   UNL     1       1.237  11.111  18.719  0.00  0.00    +0.000 A 
ATOM      5  C   UNL     1       1.119  10.193  19.801  0.00  0.00    +0.000 A 
ATOM      6  C   UNL     1       0.654  10.559  21.095  0.00  0.00    +0.000 A 
ATOM      7  C   UNL     1       0.501   9.655  22.144  0.00  0.00    +0.000 A 
ATOM      8  C   UNL     1       0.838   8.335  21.944  0.00  0.00    +0.000 A 
ATOM      9  C   UNL     1       1.337   7.940  20.704  0.00  0.00    +0.000 A 
ATOM     10  C   UNL     1       1.532   8.848  19.621  0.00  0.00    +0.000 A 
ENDROOT
BRANCH   1  15
ATOM     11  C   UNL     1       4.509   3.305  17.087  0.00  0.00    +0.000 C 
ATOM     12  C   UNL     1       3.952   4.657  17.429  0.00  0.00    +0.000 A 
ATOM     13  C   UNL     1       2.628   4.747  17.890  0.00  0.00    +0.000 A 
ATOM     14  C   UNL     1       2.044   5.984  18.205  0.00  0.00    +0.000 A 
ATOM     15  C   UNL     1       2.751   7.186  18.067  0.00  0.00    +0.000 A 
ATOM     16  C   UNL     1       4.058   7.089  17.565  0.00  0.00    +0.000 A 
ATOM     17  C   UNL     1       4.667   5.852  17.277  0.00  0.00    +0.000 A 
BRANCH  17  18
ATOM     18  S   UNL     1       6.357   5.940  16.735  0.00  0.00    +0.000 S 
ATOM     19  O   UNL     1       6.812   7.308  16.844  0.00  0.00    +0.000 OA
ATOM     20  O   UNL     1       7.137   4.843  17.262  0.00  0.00    +0.000 OA
BRANCH  18  21
ATOM     21  N   UNL     1       6.183   5.639  15.097  0.00  0.00    +0.000 NA
ATOM     22  H   UNL     1       6.491   6.446  14.555  0.00  0.00    +0.000 HD
ATOM     23  H   UNL     1       6.641   4.764  14.848  0.00  0.00    +0.000 HD
ENDBRANCH  18  21
ENDBRANCH  17  18
ENDBRANCH   1  15
BRANCH   4  24
ATOM     24  N   UNL     1       0.869  12.436  18.819  0.00  0.00    +0.000 N 
ATOM     25  C   UNL     1       1.881  13.500  18.777  0.00  0.00    +0.000 C 
ATOM     26  C   UNL     1       1.459  14.576  19.805  0.00  0.00    +0.000 C 
ATOM     27  O   UNL     1       0.105  15.040  19.606  0.00  0.00    +0.000 OA
ATOM     28  C   UNL     1      -0.827  13.940  19.606  0.00  0.00    +0.000 C 
ATOM     29  C   UNL     1      -0.466  12.942  18.492  0.00  0.00    +0.000 C 
ENDBRANCH   4  24
TORSDOF 4
ENDMDL
