MODEL 1
REMARK VINA RESULT:      -8.0      0.000      0.000
REMARK  Name = 
REMARK  9 active torsions:
REMARK  status: ('A' for Active; 'I' for Inactive)
REMARK    1  A    between atoms: C_2  and  O_3
REMARK    2  A    between atoms: C_2  and  C_4
REMARK    3  A    between atoms: C_4  and  C_5
REMARK    4  A    between atoms: C_5  and  C_6
REMARK    5  A    between atoms: C_6  and  O_7
REMARK    6  A    between atoms: O_7  and  C_8
REMARK    7  A    between atoms: C_11  and  C_12
REMARK    8  A    between atoms: C_14  and  O_15
REMARK    9  A    between atoms: O_15  and  C_16
REMARK                            x       y       z     vdW  Elec       q    Type
REMARK                         _______ _______ _______ _____ _____    ______ ____
ROOT
ATOM      1  C   UNL     1       1.136   9.470  19.301  0.00  0.00    +0.000 A 
ATOM      2  C   UNL     1       1.704   8.879  18.178  0.00  0.00    +0.000 A 
ATOM      3  C   UNL     1       2.278   7.611  18.258  0.00  0.00    +0.000 A 
ATOM      4  C   UNL     1       2.346   6.896  19.467  0.00  0.00    +0.000 A 
ATOM      5  C   UNL     1       1.789   7.522  20.595  0.00  0.00    +0.000 A 
ATOM      6  C   UNL     1       1.168   8.779  20.510  0.00  0.00    +0.000 A 
ENDROOT
BRANCH   4   7
ATOM      7  C   UNL     1       3.025   5.570  19.508  0.00  0.00    +0.000 A 
ATOM      8  C   UNL     1       4.366   5.483  19.054  0.00  0.00    +0.000 A 
ATOM      9  C   UNL     1       5.067   4.276  19.009  0.00  0.00    +0.000 A 
ATOM     10  C   UNL     1       4.498   3.136  19.560  0.00  0.00    +0.000 A 
ATOM     11  C   UNL     1       3.175   3.175  19.995  0.00  0.00    +0.000 A 
ATOM     12  C   UNL     1       2.432   4.364  19.935  0.00  0.00    +0.000 A 
ATOM     13 CL   UNL     1       0.753   4.209  20.334  0.00  0.00    +0.000 Cl
BRANCH   9  14
ATOM     14  O   UNL     1       6.318   4.325  18.437  0.00  0.00    +0.000 OA
BRANCH  14  15
ATOM     15  C   UNL     1       6.436   4.476  17.076  0.00  0.00    +0.000 A 
ATOM     16  C   UNL     1       5.779   3.704  16.116  0.00  0.00    +0.000 A 
ATOM     17  C   UNL     1       6.059   3.906  14.767  0.00  0.00    +0.000 A 
ATOM     18  C   UNL     1       6.938   4.920  14.421  0.00  0.00    +0.000 A 
ATOM     19  N   UNL     1       7.525   5.741  15.319  0.00  0.00    +0.000 NA
ATOM     20  C   UNL     1       7.255   5.502  16.625  0.00  0.00    +0.000 A 
ENDBRANCH  14  15
ENDBRANCH   9  14
ENDBRANCH   4   7
BRANCH   1  21
ATOM     21  O   UNL     1       0.552  10.710  19.323  0.00  0.00    +0.000 OA
BRANCH  21  22
ATOM     22  C   UNL     1      -0.707  10.774  20.003  0.00  0.00    +0.000 C 
BRANCH  22  23
ATOM     23  C   UNL     1      -1.558  11.893  19.414  0.00  0.00    +0.000 C 
BRANCH  23  24
ATOM     24  C   UNL     1      -1.739  11.786  17.905  0.00  0.00    +0.000 C 
BRANCH  24  26
ATOM     25  O   UNL     1      -3.655  10.328  17.884  0.00  0.00    +0.000 OA
ATOM     26  C   UNL     1      -2.510  10.556  17.524  0.00  0.00    +0.000 C 
BRANCH  26  27
ATOM     27  O   UNL     1      -1.795   9.672  16.786  0.00  0.00    +0.000 OA
ATOM     28  H   UNL     1      -1.361   8.974  17.322  0.00  0.00    +0.000 HD
ENDBRANCH  26  27
ENDBRANCH  24  26
ENDBRANCH  23  24
ENDBRANCH  22  23
ENDBRANCH  21  22
ENDBRANCH   1  21
TORSDOF 9
ENDMDL
MODEL 2
REMARK VINA RESULT:      -7.8      0.715      1.189
REMARK  Name = 
REMARK  9 active torsions:
REMARK  status: ('A' for Active; 'I' for Inactive)
REMARK    1  A    between atoms: C_2  and  O_3
REMARK    2  A    between atoms: C_2  and  C_4
REMARK    3  A    between atoms: C_4  and  C_5
REMARK    4  A    between atoms: C_5  and  C_6
REMARK    5  A    between atoms: C_6  and  O_7
REMARK    6  A    between atoms: O_7  and  C_8
REMARK    7  A    between atoms: C_11  and  C_12
REMARK    8  A    between atoms: C_14  and  O_15
REMARK    9  A    between atoms: O_15  and  C_16
REMARK                            x       y       z     vdW  Elec       q    Type
REMARK                         _______ _______ _______ _____ _____    ______ ____
ROOT
ATOM      1  C   UNL     1       1.051   9.234  19.863  0.00  0.00    +0.000 A 
ATOM      2  C   UNL     1       1.137   8.385  20.961  0.00  0.00    +0.000 A 
ATOM      3  C   UNL     1       1.825   7.176  20.869  0.00  0.00    +0.000 A 
ATOM      4  C   UNL     1       2.422   6.744  19.672  0.00  0.00    +0.000 A 
ATOM      5  C   UNL     1       2.303   7.606  18.568  0.00  0.00    +0.000 A 
ATOM      6  C   UNL     1       1.651   8.846  18.667  0.00  0.00    +0.000 A 
ENDROOT
BRANCH   4   7
ATOM      7  C   UNL     1       3.093   5.415  19.614  0.00  0.00    +0.000 A 
ATOM      8  C   UNL     1       4.426   5.351  19.133  0.00  0.00    +0.000 A 
ATOM      9  C   UNL     1       5.119   4.146  18.996  0.00  0.00    +0.000 A 
ATOM     10  C   UNL     1       4.552   2.975  19.479  0.00  0.00    +0.000 A 
ATOM     11  C   UNL     1       3.236   2.992  19.937  0.00  0.00    +0.000 A 
ATOM     12  C   UNL     1       2.500   4.186  19.969  0.00  0.00    +0.000 A 
ATOM     13 CL   UNL     1       0.826   4.013  20.384  0.00  0.00    +0.000 Cl
BRANCH   9  14
ATOM     14  O   UNL     1       6.361   4.227  18.408  0.00  0.00    +0.000 OA
BRANCH  14  15
ATOM     15  C   UNL     1       6.457   4.406  17.049  0.00  0.00    +0.000 A 
ATOM     16  C   UNL     1       5.814   3.632  16.082  0.00  0.00    +0.000 A 
ATOM     17  C   UNL     1       6.071   3.868  14.734  0.00  0.00    +0.000 A 
ATOM     18  C   UNL     1       6.912   4.916  14.397  0.00  0.00    +0.000 A 
ATOM     19  N   UNL     1       7.484   5.738  15.304  0.00  0.00    +0.000 NA
ATOM     20  C   UNL     1       7.237   5.466  16.608  0.00  0.00    +0.000 A 
ENDBRANCH  14  15
ENDBRANCH   9  14
ENDBRANCH   4   7
BRANCH   1  21
ATOM     21  O   UNL     1       0.397  10.439  19.853  0.00  0.00    +0.000 OA
BRANCH  21  22
ATOM     22  C   UNL     1      -0.936  10.399  19.331  0.00  0.00    +0.000 C 
BRANCH  22  23
ATOM     23  C   UNL     1      -1.347  11.787  18.854  0.00  0.00    +0.000 C 
BRANCH  23  24
ATOM     24  C   UNL     1      -2.848  12.036  18.936  0.00  0.00    +0.000 C 
BRANCH  24  26
ATOM     25  O   UNL     1      -4.198  10.287  17.980  0.00  0.00    +0.000 OA
ATOM     26  C   UNL     1      -3.589  11.335  17.835  0.00  0.00    +0.000 C 
BRANCH  26  27
ATOM     27  O   UNL     1      -3.469  11.939  16.628  0.00  0.00    +0.000 OA
ATOM     28  H   UNL     1      -3.995  12.764  16.547  0.00  0.00    +0.000 HD
ENDBRANCH  26  27
ENDBRANCH  24  26
ENDBRANCH  23  24
ENDBRANCH  22  23
ENDBRANCH  21  22
ENDBRANCH   1  21
TORSDOF 9
ENDMDL
MODEL 3
REMARK VINA RESULT:      -7.7      1.425      2.253
REMARK  Name = 
REMARK  9 active torsions:
REMARK  status: ('A' for Active; 'I' for Inactive)
REMARK    1  A    between atoms: C_2  and  O_3
REMARK    2  A    between atoms: C_2  and  C_4
REMARK    3  A    between atoms: C_4  and  C_5
REMARK    4  A    between atoms: C_5  and  C_6
REMARK    5  A    between atoms: C_6  and  O_7
REMARK    6  A    between atoms: O_7  and  C_8
REMARK    7  A    between atoms: C_11  and  C_12
REMARK    8  A    between atoms: C_14  and  O_15
REMARK    9  A    between atoms: O_15  and  C_16
REMARK                            x       y       z     vdW  Elec       q    Type
REMARK                         _______ _______ _______ _____ _____    ______ ____
ROOT
ATOM      1  C   UNL     1       1.205   9.520  19.073  0.00  0.00    +0.000 A 
ATOM      2  C   UNL     1       1.798   8.901  17.978  0.00  0.00    +0.000 A 
ATOM      3  C   UNL     1       2.368   7.634  18.103  0.00  0.00    +0.000 A 
ATOM      4  C   UNL     1       2.406   6.949  19.330  0.00  0.00    +0.000 A 
ATOM      5  C   UNL     1       1.823   7.603  20.429  0.00  0.00    +0.000 A 
ATOM      6  C   UNL     1       1.206   8.858  20.299  0.00  0.00    +0.000 A 
ENDROOT
BRANCH   4   7
ATOM      7  C   UNL     1       3.081   5.624  19.420  0.00  0.00    +0.000 A 
ATOM      8  C   UNL     1       4.412   5.510  18.943  0.00  0.00    +0.000 A 
ATOM      9  C   UNL     1       5.108   4.299  18.941  0.00  0.00    +0.000 A 
ATOM     10  C   UNL     1       4.547   3.188  19.556  0.00  0.00    +0.000 A 
ATOM     11  C   UNL     1       3.234   3.253  20.015  0.00  0.00    +0.000 A 
ATOM     12  C   UNL     1       2.493   4.441  19.915  0.00  0.00    +0.000 A 
ATOM     13 CL   UNL     1       0.822   4.312  20.354  0.00  0.00    +0.000 Cl
BRANCH   9  14
ATOM     14  O   UNL     1       6.348   4.316  18.341  0.00  0.00    +0.000 OA
BRANCH  14  15
ATOM     15  C   UNL     1       6.439   4.455  16.977  0.00  0.00    +0.000 A 
ATOM     16  C   UNL     1       5.721   3.714  16.038  0.00  0.00    +0.000 A 
ATOM     17  C   UNL     1       5.978   3.896  14.681  0.00  0.00    +0.000 A 
ATOM     18  C   UNL     1       6.898   4.863  14.309  0.00  0.00    +0.000 A 
ATOM     19  N   UNL     1       7.549   5.655  15.188  0.00  0.00    +0.000 NA
ATOM     20  C   UNL     1       7.298   5.436  16.501  0.00  0.00    +0.000 A 
ENDBRANCH  14  15
ENDBRANCH   9  14
ENDBRANCH   4   7
BRANCH   1  21
ATOM     21  O   UNL     1       0.622  10.760  19.051  0.00  0.00    +0.000 OA
BRANCH  21  22
ATOM     22  C   UNL     1       0.128  11.219  20.314  0.00  0.00    +0.000 C 
BRANCH  22  23
ATOM     23  C   UNL     1      -1.074  12.131  20.101  0.00  0.00    +0.000 C 
BRANCH  23  24
ATOM     24  C   UNL     1      -1.852  12.418  21.379  0.00  0.00    +0.000 C 
BRANCH  24  26
ATOM     25  O   UNL     1      -0.970  11.348  23.348  0.00  0.00    +0.000 OA
ATOM     26  C   UNL     1      -0.979  12.311  22.596  0.00  0.00    +0.000 C 
BRANCH  26  27
ATOM     27  O   UNL     1      -0.236  13.418  22.832  0.00  0.00    +0.000 OA
ATOM     28  H   UNL     1       0.470  13.567  22.166  0.00  0.00    +0.000 HD
ENDBRANCH  26  27
ENDBRANCH  24  26
ENDBRANCH  23  24
ENDBRANCH  22  23
ENDBRANCH  21  22
ENDBRANCH   1  21
TORSDOF 9
ENDMDL
MODEL 4
REMARK VINA RESULT:      -7.6      1.984      2.968
REMARK  Name = 
REMARK  9 active torsions:
REMARK  status: ('A' for Active; 'I' for Inactive)
REMARK    1  A    between atoms: C_2  and  O_3
REMARK    2  A    between atoms: C_2  and  C_4
REMARK    3  A    between atoms: C_4  and  C_5
REMARK    4  A    between atoms: C_5  and  C_6
REMARK    5  A    between atoms: C_6  and  O_7
REMARK    6  A    between atoms: O_7  and  C_8
REMARK    7  A    between atoms: C_11  and  C_12
REMARK    8  A    between atoms: C_14  and  O_15
REMARK    9  A    between atoms: O_15  and  C_16
REMARK                            x       y       z     vdW  Elec       q    Type
REMARK                         _______ _______ _______ _____ _____    ______ ____
ROOT
ATOM      1  C   UNL     1       0.989   9.397  19.753  0.00  0.00    +0.000 A 
ATOM      2  C   UNL     1       1.048   8.564  20.866  0.00  0.00    +0.000 A 
ATOM      3  C   UNL     1       1.739   7.354  20.809  0.00  0.00    +0.000 A 
ATOM      4  C   UNL     1       2.365   6.904  19.634  0.00  0.00    +0.000 A 
ATOM      5  C   UNL     1       2.272   7.749  18.514  0.00  0.00    +0.000 A 
ATOM      6  C   UNL     1       1.618   8.990  18.578  0.00  0.00    +0.000 A 
ENDROOT
BRANCH   4   7
ATOM      7  C   UNL     1       3.037   5.575  19.613  0.00  0.00    +0.000 A 
ATOM      8  C   UNL     1       4.367   5.498  19.127  0.00  0.00    +0.000 A 
ATOM      9  C   UNL     1       5.061   4.290  19.023  0.00  0.00    +0.000 A 
ATOM     10  C   UNL     1       4.498   3.133  19.544  0.00  0.00    +0.000 A 
ATOM     11  C   UNL     1       3.185   3.163  20.009  0.00  0.00    +0.000 A 
ATOM     12  C   UNL     1       2.447   4.356  20.008  0.00  0.00    +0.000 A 
ATOM     13 CL   UNL     1       0.776   4.195  20.437  0.00  0.00    +0.000 Cl
BRANCH   9  14
ATOM     14  O   UNL     1       6.300   4.354  18.426  0.00  0.00    +0.000 OA
BRANCH  14  15
ATOM     15  C   UNL     1       6.388   4.494  17.062  0.00  0.00    +0.000 A 
ATOM     16  C   UNL     1       5.603   3.819  16.126  0.00  0.00    +0.000 A 
ATOM     17  C   UNL     1       5.860   3.989  14.767  0.00  0.00    +0.000 A 
ATOM     18  C   UNL     1       6.852   4.880  14.391  0.00  0.00    +0.000 A 
ATOM     19  N   UNL     1       7.573   5.612  15.267  0.00  0.00    +0.000 NA
ATOM     20  C   UNL     1       7.319   5.405  16.582  0.00  0.00    +0.000 A 
ENDBRANCH  14  15
ENDBRANCH   9  14
ENDBRANCH   4   7
BRANCH   1  21
ATOM     21  O   UNL     1       0.335  10.600  19.709  0.00  0.00    +0.000 OA
BRANCH  21  22
ATOM     22  C   UNL     1       1.135  11.736  20.056  0.00  0.00    +0.000 C 
BRANCH  22  23
ATOM     23  C   UNL     1       1.228  12.687  18.868  0.00  0.00    +0.000 C 
BRANCH  23  24
ATOM     24  C   UNL     1       2.624  12.767  18.263  0.00  0.00    +0.000 C 
BRANCH  24  26
ATOM     25  O   UNL     1       4.280  14.488  17.963  0.00  0.00    +0.000 OA
ATOM     26  C   UNL     1       3.266  14.099  18.522  0.00  0.00    +0.000 C 
BRANCH  26  27
ATOM     27  O   UNL     1       2.654  14.819  19.492  0.00  0.00    +0.000 OA
ATOM     28  H   UNL     1       3.208  15.546  19.851  0.00  0.00    +0.000 HD
ENDBRANCH  26  27
ENDBRANCH  24  26
ENDBRANCH  23  24
ENDBRANCH  22  23
ENDBRANCH  21  22
ENDBRANCH   1  21
TORSDOF 9
ENDMDL
MODEL 5
REMARK VINA RESULT:      -7.5      1.270      2.086
REMARK  Name = 
REMARK  9 active torsions:
REMARK  status: ('A' for Active; 'I' for Inactive)
REMARK    1  A    between atoms: C_2  and  O_3
REMARK    2  A    between atoms: C_2  and  C_4
REMARK    3  A    between atoms: C_4  and  C_5
REMARK    4  A    between atoms: C_5  and  C_6
REMARK    5  A    between atoms: C_6  and  O_7
REMARK    6  A    between atoms: O_7  and  C_8
REMARK    7  A    between atoms: C_11  and  C_12
REMARK    8  A    between atoms: C_14  and  O_15
REMARK    9  A    between atoms: O_15  and  C_16
REMARK                            x       y       z     vdW  Elec       q    Type
REMARK                         _______ _______ _______ _____ _____    ______ ____
ROOT
ATOM      1  C   UNL     1       1.151   9.238  19.298  0.00  0.00    +0.000 A 
ATOM      2  C   UNL     1       1.212   8.528  20.492  0.00  0.00    +0.000 A 
ATOM      3  C   UNL     1       1.867   7.299  20.552  0.00  0.00    +0.000 A 
ATOM      4  C   UNL     1       2.454   6.707  19.420  0.00  0.00    +0.000 A 
ATOM      5  C   UNL     1       2.359   7.430  18.218  0.00  0.00    +0.000 A 
ATOM      6  C   UNL     1       1.741   8.690  18.162  0.00  0.00    +0.000 A 
ENDROOT
BRANCH   4   7
ATOM      7  C   UNL     1       3.089   5.364  19.529  0.00  0.00    +0.000 A 
ATOM      8  C   UNL     1       4.433   5.215  19.102  0.00  0.00    +0.000 A 
ATOM      9  C   UNL     1       5.095   3.985  19.120  0.00  0.00    +0.000 A 
ATOM     10  C   UNL     1       4.481   2.888  19.708  0.00  0.00    +0.000 A 
ATOM     11  C   UNL     1       3.153   2.988  20.118  0.00  0.00    +0.000 A 
ATOM     12  C   UNL     1       2.450   4.196  19.996  0.00  0.00    +0.000 A 
ATOM     13 CL   UNL     1       0.761   4.112  20.372  0.00  0.00    +0.000 Cl
BRANCH   9  14
ATOM     14  O   UNL     1       6.356   3.971  18.568  0.00  0.00    +0.000 OA
BRANCH  14  15
ATOM     15  C   UNL     1       6.975   5.158  18.260  0.00  0.00    +0.000 A 
ATOM     16  C   UNL     1       7.690   5.955  19.155  0.00  0.00    +0.000 A 
ATOM     17  C   UNL     1       8.192   7.183  18.730  0.00  0.00    +0.000 A 
ATOM     18  C   UNL     1       8.017   7.541  17.403  0.00  0.00    +0.000 A 
ATOM     19  N   UNL     1       7.404   6.757  16.490  0.00  0.00    +0.000 NA
ATOM     20  C   UNL     1       6.903   5.581  16.940  0.00  0.00    +0.000 A 
ENDBRANCH  14  15
ENDBRANCH   9  14
ENDBRANCH   4   7
BRANCH   1  21
ATOM     21  O   UNL     1       0.530  10.449  19.138  0.00  0.00    +0.000 OA
BRANCH  21  22
ATOM     22  C   UNL     1      -0.201  10.598  17.915  0.00  0.00    +0.000 C 
BRANCH  22  23
ATOM     23  C   UNL     1      -1.604  11.114  18.209  0.00  0.00    +0.000 C 
BRANCH  23  24
ATOM     24  C   UNL     1      -2.697  10.353  17.468  0.00  0.00    +0.000 C 
BRANCH  24  26
ATOM     25  O   UNL     1      -4.691  11.654  17.118  0.00  0.00    +0.000 OA
ATOM     26  C   UNL     1      -3.603  11.279  16.710  0.00  0.00    +0.000 C 
BRANCH  26  27
ATOM     27  O   UNL     1      -3.134  11.618  15.485  0.00  0.00    +0.000 OA
ATOM     28  H   UNL     1      -2.435  12.307  15.509  0.00  0.00    +0.000 HD
ENDBRANCH  26  27
ENDBRANCH  24  26
ENDBRANCH  23  24
ENDBRANCH  22  23
ENDBRANCH  21  22
ENDBRANCH   1  21
TORSDOF 9
ENDMDL
MODEL 6
REMARK VINA RESULT:      -7.4      1.538      2.113
REMARK  Name = 
REMARK  9 active torsions:
REMARK  status: ('A' for Active; 'I' for Inactive)
REMARK    1  A    between atoms: C_2  and  O_3
REMARK    2  A    between atoms: C_2  and  C_4
REMARK    3  A    between atoms: C_4  and  C_5
REMARK    4  A    between atoms: C_5  and  C_6
REMARK    5  A    between atoms: C_6  and  O_7
REMARK    6  A    between atoms: O_7  and  C_8
REMARK    7  A    between atoms: C_11  and  C_12
REMARK    8  A    between atoms: C_14  and  O_15
REMARK    9  A    between atoms: O_15  and  C_16
REMARK                            x       y       z     vdW  Elec       q    Type
REMARK                         _______ _______ _______ _____ _____    ______ ____
ROOT
ATOM      1  C   UNL     1       1.078   9.293  19.980  0.00  0.00    +0.000 A 
ATOM      2  C   UNL     1       1.726   8.871  18.824  0.00  0.00    +0.000 A 
ATOM      3  C   UNL     1       2.298   7.601  18.756  0.00  0.00    +0.000 A 
ATOM      4  C   UNL     1       2.284   6.715  19.847  0.00  0.00    +0.000 A 
ATOM      5  C   UNL     1       1.645   7.171  21.014  0.00  0.00    +0.000 A 
ATOM      6  C   UNL     1       1.027   8.430  21.072  0.00  0.00    +0.000 A 
ENDROOT
BRANCH   4   7
ATOM      7  C   UNL     1       2.964   5.393  19.740  0.00  0.00    +0.000 A 
ATOM      8  C   UNL     1       4.292   5.354  19.243  0.00  0.00    +0.000 A 
ATOM      9  C   UNL     1       4.991   4.159  19.061  0.00  0.00    +0.000 A 
ATOM     10  C   UNL     1       4.438   2.969  19.512  0.00  0.00    +0.000 A 
ATOM     11  C   UNL     1       3.127   2.962  19.984  0.00  0.00    +0.000 A 
ATOM     12  C   UNL     1       2.383   4.149  20.062  0.00  0.00    +0.000 A 
ATOM     13 CL   UNL     1       0.715   3.951  20.489  0.00  0.00    +0.000 Cl
BRANCH   9  14
ATOM     14  O   UNL     1       6.227   4.268  18.463  0.00  0.00    +0.000 OA
BRANCH  14  15
ATOM     15  C   UNL     1       6.308   4.433  17.101  0.00  0.00    +0.000 A 
ATOM     16  C   UNL     1       5.485   3.814  16.160  0.00  0.00    +0.000 A 
ATOM     17  C   UNL     1       5.736   4.001  14.802  0.00  0.00    +0.000 A 
ATOM     18  C   UNL     1       6.762   4.857  14.434  0.00  0.00    +0.000 A 
ATOM     19  N   UNL     1       7.523   5.537  15.318  0.00  0.00    +0.000 NA
ATOM     20  C   UNL     1       7.273   5.313  16.631  0.00  0.00    +0.000 A 
ENDBRANCH  14  15
ENDBRANCH   9  14
ENDBRANCH   4   7
BRANCH   1  21
ATOM     21  O   UNL     1       0.488  10.519  20.144  0.00  0.00    +0.000 OA
BRANCH  21  22
ATOM     22  C   UNL     1      -0.528  10.835  19.186  0.00  0.00    +0.000 C 
BRANCH  22  23
ATOM     23  C   UNL     1      -0.210  12.164  18.511  0.00  0.00    +0.000 C 
BRANCH  23  24
ATOM     24  C   UNL     1      -0.821  13.365  19.221  0.00  0.00    +0.000 C 
BRANCH  24  26
ATOM     25  O   UNL     1       1.121  14.725  18.803  0.00  0.00    +0.000 OA
ATOM     26  C   UNL     1      -0.094  14.636  18.890  0.00  0.00    +0.000 C 
BRANCH  26  27
ATOM     27  O   UNL     1      -0.908  15.711  18.757  0.00  0.00    +0.000 OA
ATOM     28  H   UNL     1      -1.580  15.609  18.048  0.00  0.00    +0.000 HD
ENDBRANCH  26  27
ENDBRANCH  24  26
ENDBRANCH  23  24
ENDBRANCH  22  23
ENDBRANCH  21  22
ENDBRANCH   1  21
TORSDOF 9
ENDMDL
MODEL 7
REMARK VINA RESULT:      -7.4      1.387      2.045
REMARK  Name = 
REMARK  9 active torsions:
REMARK  status: ('A' for Active; 'I' for Inactive)
REMARK    1  A    between atoms: C_2  and  O_3
REMARK    2  A    between atoms: C_2  and  C_4
REMARK    3  A    between atoms: C_4  and  C_5
REMARK    4  A    between atoms: C_5  and  C_6
REMARK    5  A    between atoms: C_6  and  O_7
REMARK    6  A    between atoms: O_7  and  C_8
REMARK    7  A    between atoms: C_11  and  C_12
REMARK    8  A    between atoms: C_14  and  O_15
REMARK    9  A    between atoms: O_15  and  C_16
REMARK                            x       y       z     vdW  Elec       q    Type
REMARK                         _______ _______ _______ _____ _____    ______ ____
ROOT
ATOM      1  C   UNL     1       1.092   9.372  19.583  0.00  0.00    +0.000 A 
ATOM      2  C   UNL     1       1.126   8.562  20.712  0.00  0.00    +0.000 A 
ATOM      3  C   UNL     1       1.795   7.339  20.687  0.00  0.00    +0.000 A 
ATOM      4  C   UNL     1       2.422   6.853  19.526  0.00  0.00    +0.000 A 
ATOM      5  C   UNL     1       2.355   7.677  18.389  0.00  0.00    +0.000 A 
ATOM      6  C   UNL     1       1.723   8.930  18.422  0.00  0.00    +0.000 A 
ENDROOT
BRANCH   4   7
ATOM      7  C   UNL     1       3.070   5.511  19.538  0.00  0.00    +0.000 A 
ATOM      8  C   UNL     1       4.407   5.402  19.077  0.00  0.00    +0.000 A 
ATOM      9  C   UNL     1       5.079   4.180  19.005  0.00  0.00    +0.000 A 
ATOM     10  C   UNL     1       4.486   3.043  19.534  0.00  0.00    +0.000 A 
ATOM     11  C   UNL     1       3.166   3.104  19.975  0.00  0.00    +0.000 A 
ATOM     12  C   UNL     1       2.451   4.311  19.943  0.00  0.00    +0.000 A 
ATOM     13 CL   UNL     1       0.770   4.187  20.345  0.00  0.00    +0.000 Cl
BRANCH   9  14
ATOM     14  O   UNL     1       6.330   4.212  18.429  0.00  0.00    +0.000 OA
BRANCH  14  15
ATOM     15  C   UNL     1       6.447   4.410  17.074  0.00  0.00    +0.000 A 
ATOM     16  C   UNL     1       5.795   3.667  16.088  0.00  0.00    +0.000 A 
ATOM     17  C   UNL     1       6.075   3.917  14.746  0.00  0.00    +0.000 A 
ATOM     18  C   UNL     1       6.947   4.948  14.436  0.00  0.00    +0.000 A 
ATOM     19  N   UNL     1       7.529   5.741  15.362  0.00  0.00    +0.000 NA
ATOM     20  C   UNL     1       7.259   5.456  16.659  0.00  0.00    +0.000 A 
ENDBRANCH  14  15
ENDBRANCH   9  14
ENDBRANCH   4   7
BRANCH   1  21
ATOM     21  O   UNL     1       0.461  10.587  19.508  0.00  0.00    +0.000 OA
BRANCH  21  22
ATOM     22  C   UNL     1       0.943  11.576  20.425  0.00  0.00    +0.000 C 
BRANCH  22  23
ATOM     23  C   UNL     1      -0.215  12.130  21.247  0.00  0.00    +0.000 C 
BRANCH  23  24
ATOM     24  C   UNL     1      -1.574  11.935  20.586  0.00  0.00    +0.000 C 
BRANCH  24  26
ATOM     25  O   UNL     1      -3.682  13.099  20.580  0.00  0.00    +0.000 OA
ATOM     26  C   UNL     1      -2.490  13.096  20.847  0.00  0.00    +0.000 C 
BRANCH  26  27
ATOM     27  O   UNL     1      -1.860  14.183  21.354  0.00  0.00    +0.000 OA
ATOM     28  H   UNL     1      -0.992  14.367  20.932  0.00  0.00    +0.000 HD
ENDBRANCH  26  27
ENDBRANCH  24  26
ENDBRANCH  23  24
ENDBRANCH  22  23
ENDBRANCH  21  22
ENDBRANCH   1  21
TORSDOF 9
ENDMDL
MODEL 8
REMARK VINA RESULT:      -7.4      2.233      3.160
REMARK  Name = 
REMARK  9 active torsions:
REMARK  status: ('A' for Active; 'I' for Inactive)
REMARK    1  A    between atoms: C_2  and  O_3
REMARK    2  A    between atoms: C_2  and  C_4
REMARK    3  A    between atoms: C_4  and  C_5
REMARK    4  A    between atoms: C_5  and  C_6
REMARK    5  A    between atoms: C_6  and  O_7
REMARK    6  A    between atoms: O_7  and  C_8
REMARK    7  A    between atoms: C_11  and  C_12
REMARK    8  A    between atoms: C_14  and  O_15
REMARK    9  A    between atoms: O_15  and  C_16
REMARK                            x       y       z     vdW  Elec       q    Type
REMARK                         _______ _______ _______ _____ _____    ______ ____
ROOT
ATOM      1  C   UNL     1       1.181   9.290  19.797  0.00  0.00    +0.000 A 
ATOM      2  C   UNL     1       1.823   8.830  18.653  0.00  0.00    +0.000 A 
ATOM      3  C   UNL     1       2.381   7.552  18.619  0.00  0.00    +0.000 A 
ATOM      4  C   UNL     1       2.358   6.696  19.733  0.00  0.00    +0.000 A 
ATOM      5  C   UNL     1       1.726   7.190  20.887  0.00  0.00    +0.000 A 
ATOM      6  C   UNL     1       1.122   8.458  20.912  0.00  0.00    +0.000 A 
ENDROOT
BRANCH   4   7
ATOM      7  C   UNL     1       3.023   5.364  19.661  0.00  0.00    +0.000 A 
ATOM      8  C   UNL     1       4.386   5.310  19.275  0.00  0.00    +0.000 A 
ATOM      9  C   UNL     1       5.079   4.105  19.132  0.00  0.00    +0.000 A 
ATOM     10  C   UNL     1       4.471   2.919  19.517  0.00  0.00    +0.000 A 
ATOM     11  C   UNL     1       3.126   2.928  19.879  0.00  0.00    +0.000 A 
ATOM     12  C   UNL     1       2.397   4.126  19.914  0.00  0.00    +0.000 A 
ATOM     13 CL   UNL     1       0.696   3.951  20.198  0.00  0.00    +0.000 Cl
BRANCH   9  14
ATOM     14  O   UNL     1       6.362   4.202  18.640  0.00  0.00    +0.000 OA
BRANCH  14  15
ATOM     15  C   UNL     1       6.860   5.432  18.282  0.00  0.00    +0.000 A 
ATOM     16  C   UNL     1       7.845   6.138  18.973  0.00  0.00    +0.000 A 
ATOM     17  C   UNL     1       8.194   7.419  18.549  0.00  0.00    +0.000 A 
ATOM     18  C   UNL     1       7.591   7.921  17.406  0.00  0.00    +0.000 A 
ATOM     19  N   UNL     1       6.697   7.230  16.666  0.00  0.00    +0.000 NA
ATOM     20  C   UNL     1       6.357   5.999  17.120  0.00  0.00    +0.000 A 
ENDBRANCH  14  15
ENDBRANCH   9  14
ENDBRANCH   4   7
BRANCH   1  21
ATOM     21  O   UNL     1       0.605  10.527  19.928  0.00  0.00    +0.000 OA
BRANCH  21  22
ATOM     22  C   UNL     1       0.449  11.255  18.705  0.00  0.00    +0.000 C 
BRANCH  22  23
ATOM     23  C   UNL     1       1.105  12.625  18.829  0.00  0.00    +0.000 C 
BRANCH  23  24
ATOM     24  C   UNL     1       2.483  12.698  18.183  0.00  0.00    +0.000 C 
BRANCH  24  26
ATOM     25  O   UNL     1       2.344  15.089  18.426  0.00  0.00    +0.000 OA
ATOM     26  C   UNL     1       3.013  14.102  18.163  0.00  0.00    +0.000 C 
BRANCH  26  27
ATOM     27  O   UNL     1       4.303  14.191  17.757  0.00  0.00    +0.000 OA
ATOM     28  H   UNL     1       4.435  13.955  16.814  0.00  0.00    +0.000 HD
ENDBRANCH  26  27
ENDBRANCH  24  26
ENDBRANCH  23  24
ENDBRANCH  22  23
ENDBRANCH  21  22
ENDBRANCH   1  21
TORSDOF 9
ENDMDL
MODEL 9
REMARK VINA RESULT:      -7.3      0.967      1.253
REMARK  Name = 
REMARK  9 active torsions:
REMARK  status: ('A' for Active; 'I' for Inactive)
REMARK    1  A    between atoms: C_2  and  O_3
REMARK    2  A    between atoms: C_2  and  C_4
REMARK    3  A    between atoms: C_4  and  C_5
REMARK    4  A    between atoms: C_5  and  C_6
REMARK    5  A    between atoms: C_6  and  O_7
REMARK    6  A    between atoms: O_7  and  C_8
REMARK    7  A    between atoms: C_11  and  C_12
REMARK    8  A    between atoms: C_14  and  O_15
REMARK    9  A    between atoms: O_15  and  C_16
REMARK                            x       y       z     vdW  Elec       q    Type
REMARK                         _______ _______ _______ _____ _____    ______ ____
ROOT
ATOM      1  C   UNL     1       1.141   9.211  19.841  0.00  0.00    +0.000 A 
ATOM      2  C   UNL     1       1.814   8.800  18.695  0.00  0.00    +0.000 A 
ATOM      3  C   UNL     1       2.393   7.533  18.629  0.00  0.00    +0.000 A 
ATOM      4  C   UNL     1       2.362   6.639  19.713  0.00  0.00    +0.000 A 
ATOM      5  C   UNL     1       1.699   7.084  20.870  0.00  0.00    +0.000 A 
ATOM      6  C   UNL     1       1.074   8.340  20.926  0.00  0.00    +0.000 A 
ENDROOT
BRANCH   4   7
ATOM      7  C   UNL     1       3.050   5.322  19.610  0.00  0.00    +0.000 A 
ATOM      8  C   UNL     1       4.387   5.292  19.135  0.00  0.00    +0.000 A 
ATOM      9  C   UNL     1       5.095   4.102  18.958  0.00  0.00    +0.000 A 
ATOM     10  C   UNL     1       4.540   2.907  19.393  0.00  0.00    +0.000 A 
ATOM     11  C   UNL     1       3.221   2.890  19.842  0.00  0.00    +0.000 A 
ATOM     12  C   UNL     1       2.470   4.073  19.914  0.00  0.00    +0.000 A 
ATOM     13 CL   UNL     1       0.796   3.865  20.311  0.00  0.00    +0.000 Cl
BRANCH   9  14
ATOM     14  O   UNL     1       6.340   4.221  18.382  0.00  0.00    +0.000 OA
BRANCH  14  15
ATOM     15  C   UNL     1       6.443   4.409  17.025  0.00  0.00    +0.000 A 
ATOM     16  C   UNL     1       5.777   3.663  16.051  0.00  0.00    +0.000 A 
ATOM     17  C   UNL     1       6.044   3.903  14.704  0.00  0.00    +0.000 A 
ATOM     18  C   UNL     1       6.918   4.927  14.378  0.00  0.00    +0.000 A 
ATOM     19  N   UNL     1       7.515   5.722  15.292  0.00  0.00    +0.000 NA
ATOM     20  C   UNL     1       7.257   5.447  16.594  0.00  0.00    +0.000 A 
ENDBRANCH  14  15
ENDBRANCH   9  14
ENDBRANCH   4   7
BRANCH   1  21
ATOM     21  O   UNL     1       0.543  10.433  20.002  0.00  0.00    +0.000 OA
BRANCH  21  22
ATOM     22  C   UNL     1      -0.724  10.577  19.350  0.00  0.00    +0.000 C 
BRANCH  22  23
ATOM     23  C   UNL     1      -1.591  11.570  20.116  0.00  0.00    +0.000 C 
BRANCH  23  24
ATOM     24  C   UNL     1      -2.307  12.569  19.215  0.00  0.00    +0.000 C 
BRANCH  24  26
ATOM     25  O   UNL     1      -4.169  11.265  18.422  0.00  0.00    +0.000 OA
ATOM     26  C   UNL     1      -3.760  12.228  19.052  0.00  0.00    +0.000 C 
BRANCH  26  27
ATOM     27  O   UNL     1      -4.597  13.130  19.618  0.00  0.00    +0.000 OA
ATOM     28  H   UNL     1      -4.691  13.958  19.100  0.00  0.00    +0.000 HD
ENDBRANCH  26  27
ENDBRANCH  24  26
ENDBRANCH  23  24
ENDBRANCH  22  23
ENDBRANCH  21  22
ENDBRANCH   1  21
TORSDOF 9
ENDMDL
