MODEL 1
REMARK VINA RESULT:      -7.4      0.000      0.000
REMARK  Name = 
REMARK  7 active torsions:
REMARK  status: ('A' for Active; 'I' for Inactive)
REMARK    1  A    between atoms: C_1  and  O_2
REMARK    2  A    between atoms: O_2  and  C_3
REMARK    3  A    between atoms: C_7  and  C_8
REMARK    4  A    between atoms: C_8  and  N_9
REMARK    5  A    between atoms: C_10  and  C_12
REMARK    6  A    between atoms: C_12  and  C_13
REMARK    7  A    between atoms: N_18  and  C_19
REMARK                            x       y       z     vdW  Elec       q    Type
REMARK                         _______ _______ _______ _____ _____    ______ ____
ROOT
ATOM      1  N   UNL     1       5.407   4.847  16.726  0.00  0.00    +0.000 N 
ATOM      2  C   UNL     1       5.052   4.571  18.036  0.00  0.00    +0.000 C 
ATOM      3  O   UNL     1       5.863   4.179  18.863  0.00  0.00    +0.000 OA
ATOM      4  H   UNL     1       4.712   5.319  16.160  0.00  0.00    +0.000 HD
ENDROOT
BRANCH   2   5
ATOM      5  C   UNL     1       3.509   4.762  18.346  0.00  0.00    +0.000 C 
ATOM      6  C   UNL     1       3.226   6.258  18.069  0.00  0.00    +0.000 C 
ATOM      7  C   UNL     1       2.639   3.894  17.395  0.00  0.00    +0.000 C 
ATOM      8  C   UNL     1       2.754   2.392  17.674  0.00  0.00    +0.000 C 
ATOM      9  C   UNL     1       2.557   2.073  19.149  0.00  0.00    +0.000 C 
ATOM     10  C   UNL     1       3.420   2.976  20.033  0.00  0.00    +0.000 C 
ATOM     11  N   UNL     1       3.231   4.424  19.788  0.00  0.00    +0.000 NA
ATOM     12  C   UNL     1       1.887   4.826  20.233  0.00  0.00    +0.000 C 
ENDBRANCH   2   5
BRANCH   1  13
ATOM     13  C   UNL     1       6.770   4.763  16.226  0.00  0.00    +0.000 C 
BRANCH  13  18
ATOM     14  C   UNL     1       6.057   3.507  12.670  0.00  0.00    +0.000 A 
ATOM     15  C   UNL     1       6.959   4.273  11.933  0.00  0.00    +0.000 A 
ATOM     16  C   UNL     1       7.790   5.193  12.572  0.00  0.00    +0.000 A 
ATOM     17  C   UNL     1       7.728   5.344  13.960  0.00  0.00    +0.000 A 
ATOM     18  C   UNL     1       6.833   4.583  14.724  0.00  0.00    +0.000 A 
ATOM     19  C   UNL     1       5.995   3.665  14.064  0.00  0.00    +0.000 A 
BRANCH  14  21
ATOM     20  C   UNL     1       4.169   3.193  11.264  0.00  0.00    +0.000 C 
ATOM     21  O   UNL     1       5.301   2.645  11.924  0.00  0.00    +0.000 OA
ENDBRANCH  14  21
ENDBRANCH  13  18
ENDBRANCH   1  13
TORSDOF 4
ENDMDL
MODEL 2
REMARK VINA RESULT:      -7.3      2.509      6.763
REMARK  Name = 
REMARK  7 active torsions:
REMARK  status: ('A' for Active; 'I' for Inactive)
REMARK    1  A    between atoms: C_1  and  O_2
REMARK    2  A    between atoms: O_2  and  C_3
REMARK    3  A    between atoms: C_7  and  C_8
REMARK    4  A    between atoms: C_8  and  N_9
REMARK    5  A    between atoms: C_10  and  C_12
REMARK    6  A    between atoms: C_12  and  C_13
REMARK    7  A    between atoms: N_18  and  C_19
REMARK                            x       y       z     vdW  Elec       q    Type
REMARK                         _______ _______ _______ _____ _____    ______ ____
ROOT
ATOM      1  N   UNL     1       5.556   3.564  19.091  0.00  0.00    +0.000 N 
ATOM      2  C   UNL     1       5.468   3.886  17.747  0.00  0.00    +0.000 C 
ATOM      3  O   UNL     1       4.636   3.379  17.007  0.00  0.00    +0.000 OA
ATOM      4  H   UNL     1       6.160   4.149  19.656  0.00  0.00    +0.000 HD
ENDROOT
BRANCH   2   5
ATOM      5  C   UNL     1       6.563   4.921  17.252  0.00  0.00    +0.000 C 
ATOM      6  C   UNL     1       7.866   4.504  17.977  0.00  0.00    +0.000 C 
ATOM      7  C   UNL     1       6.777   4.815  15.717  0.00  0.00    +0.000 C 
ATOM      8  C   UNL     1       5.583   5.325  14.904  0.00  0.00    +0.000 C 
ATOM      9  C   UNL     1       5.129   6.702  15.367  0.00  0.00    +0.000 C 
ATOM     10  C   UNL     1       4.961   6.750  16.887  0.00  0.00    +0.000 C 
ATOM     11  N   UNL     1       6.159   6.319  17.644  0.00  0.00    +0.000 NA
ATOM     12  C   UNL     1       7.234   7.308  17.466  0.00  0.00    +0.000 C 
ENDBRANCH   2   5
BRANCH   1  13
ATOM     13  C   UNL     1       4.641   2.657  19.763  0.00  0.00    +0.000 C 
BRANCH  13  18
ATOM     14  C   UNL     1       1.863   5.201  20.496  0.00  0.00    +0.000 A 
ATOM     15  C   UNL     1       0.734   4.388  20.425  0.00  0.00    +0.000 A 
ATOM     16  C   UNL     1       0.860   3.028  20.139  0.00  0.00    +0.000 A 
ATOM     17  C   UNL     1       2.125   2.474  19.931  0.00  0.00    +0.000 A 
ATOM     18  C   UNL     1       3.277   3.269  20.000  0.00  0.00    +0.000 A 
ATOM     19  C   UNL     1       3.132   4.641  20.281  0.00  0.00    +0.000 A 
BRANCH  14  21
ATOM     20  C   UNL     1       2.082   7.479  19.857  0.00  0.00    +0.000 C 
ATOM     21  O   UNL     1       1.602   6.514  20.782  0.00  0.00    +0.000 OA
ENDBRANCH  14  21
ENDBRANCH  13  18
ENDBRANCH   1  13
TORSDOF 4
ENDMDL
MODEL 3
REMARK VINA RESULT:      -7.3      4.257      7.071
REMARK  Name = 
REMARK  7 active torsions:
REMARK  status: ('A' for Active; 'I' for Inactive)
REMARK    1  A    between atoms: C_1  and  O_2
REMARK    2  A    between atoms: O_2  and  C_3
REMARK    3  A    between atoms: C_7  and  C_8
REMARK    4  A    between atoms: C_8  and  N_9
REMARK    5  A    between atoms: C_10  and  C_12
REMARK    6  A    between atoms: C_12  and  C_13
REMARK    7  A    between atoms: N_18  and  C_19
REMARK                            x       y       z     vdW  Elec       q    Type
REMARK                         _______ _______ _______ _____ _____    ______ ____
ROOT
ATOM      1  N   UNL     1       2.842   5.706  18.068  0.00  0.00    +0.000 N 
ATOM      2  C   UNL     1       3.466   4.803  18.912  0.00  0.00    +0.000 C 
ATOM      3  O   UNL     1       4.433   5.109  19.597  0.00  0.00    +0.000 OA
ATOM      4  H   UNL     1       1.958   5.413  17.670  0.00  0.00    +0.000 HD
ENDROOT
BRANCH   2   5
ATOM      5  C   UNL     1       2.850   3.342  18.872  0.00  0.00    +0.000 C 
ATOM      6  C   UNL     1       3.325   2.743  17.526  0.00  0.00    +0.000 C 
ATOM      7  C   UNL     1       3.399   2.474  20.039  0.00  0.00    +0.000 C 
ATOM      8  C   UNL     1       2.881   2.913  21.413  0.00  0.00    +0.000 C 
ATOM      9  C   UNL     1       1.368   3.071  21.424  0.00  0.00    +0.000 C 
ATOM     10  C   UNL     1       0.888   3.912  20.239  0.00  0.00    +0.000 C 
ATOM     11  N   UNL     1       1.346   3.419  18.920  0.00  0.00    +0.000 NA
ATOM     12  C   UNL     1       0.686   2.138  18.619  0.00  0.00    +0.000 C 
ENDBRANCH   2   5
BRANCH   1  13
ATOM     13  C   UNL     1       3.223   7.105  17.961  0.00  0.00    +0.000 C 
BRANCH  13  18
ATOM     14  C   UNL     1       1.040   8.767  20.644  0.00  0.00    +0.000 A 
ATOM     15  C   UNL     1       0.429   9.775  19.901  0.00  0.00    +0.000 A 
ATOM     16  C   UNL     1       0.718   9.926  18.545  0.00  0.00    +0.000 A 
ATOM     17  C   UNL     1       1.618   9.057  17.922  0.00  0.00    +0.000 A 
ATOM     18  C   UNL     1       2.244   8.033  18.646  0.00  0.00    +0.000 A 
ATOM     19  C   UNL     1       1.947   7.899  20.016  0.00  0.00    +0.000 A 
BRANCH  14  21
ATOM     20  C   UNL     1      -0.086   9.826  22.448  0.00  0.00    +0.000 C 
ATOM     21  O   UNL     1       0.671   8.728  21.962  0.00  0.00    +0.000 OA
ENDBRANCH  14  21
ENDBRANCH  13  18
ENDBRANCH   1  13
TORSDOF 4
ENDMDL
MODEL 4
REMARK VINA RESULT:      -7.2      1.485      2.352
REMARK  Name = 
REMARK  7 active torsions:
REMARK  status: ('A' for Active; 'I' for Inactive)
REMARK    1  A    between atoms: C_1  and  O_2
REMARK    2  A    between atoms: O_2  and  C_3
REMARK    3  A    between atoms: C_7  and  C_8
REMARK    4  A    between atoms: C_8  and  N_9
REMARK    5  A    between atoms: C_10  and  C_12
REMARK    6  A    between atoms: C_12  and  C_13
REMARK    7  A    between atoms: N_18  and  C_19
REMARK                            x       y       z     vdW  Elec       q    Type
REMARK                         _______ _______ _______ _____ _____    ______ ____
ROOT
ATOM      1  N   UNL     1       3.456   6.089  18.123  0.00  0.00    +0.000 N 
ATOM      2  C   UNL     1       3.698   5.369  19.281  0.00  0.00    +0.000 C 
ATOM      3  O   UNL     1       4.810   5.303  19.789  0.00  0.00    +0.000 OA
ATOM      4  H   UNL     1       2.484   6.221  17.870  0.00  0.00    +0.000 HD
ENDROOT
BRANCH   2   5
ATOM      5  C   UNL     1       2.430   4.607  19.851  0.00  0.00    +0.000 C 
ATOM      6  C   UNL     1       1.656   5.672  20.666  0.00  0.00    +0.000 C 
ATOM      7  C   UNL     1       1.526   4.090  18.699  0.00  0.00    +0.000 C 
ATOM      8  C   UNL     1       2.156   2.941  17.906  0.00  0.00    +0.000 C 
ATOM      9  C   UNL     1       2.676   1.840  18.820  0.00  0.00    +0.000 C 
ATOM     10  C   UNL     1       3.537   2.414  19.947  0.00  0.00    +0.000 C 
ATOM     11  N   UNL     1       2.871   3.473  20.740  0.00  0.00    +0.000 NA
ATOM     12  C   UNL     1       1.772   2.883  21.521  0.00  0.00    +0.000 C 
ENDBRANCH   2   5
BRANCH   1  13
ATOM     13  C   UNL     1       4.466   6.882  17.442  0.00  0.00    +0.000 C 
BRANCH  13  18
ATOM     14  C   UNL     1       5.701   4.633  14.587  0.00  0.00    +0.000 A 
ATOM     15  C   UNL     1       7.051   4.514  14.909  0.00  0.00    +0.000 A 
ATOM     16  C   UNL     1       7.567   5.156  16.036  0.00  0.00    +0.000 A 
ATOM     17  C   UNL     1       6.726   5.915  16.853  0.00  0.00    +0.000 A 
ATOM     18  C   UNL     1       5.363   6.048  16.553  0.00  0.00    +0.000 A 
ATOM     19  C   UNL     1       4.860   5.401  15.408  0.00  0.00    +0.000 A 
BRANCH  14  21
ATOM     20  C   UNL     1       6.355   3.591  12.556  0.00  0.00    +0.000 C 
ATOM     21  O   UNL     1       5.322   3.956  13.459  0.00  0.00    +0.000 OA
ENDBRANCH  14  21
ENDBRANCH  13  18
ENDBRANCH   1  13
TORSDOF 4
ENDMDL
MODEL 5
REMARK VINA RESULT:      -7.1      4.229      6.980
REMARK  Name = 
REMARK  7 active torsions:
REMARK  status: ('A' for Active; 'I' for Inactive)
REMARK    1  A    between atoms: C_1  and  O_2
REMARK    2  A    between atoms: O_2  and  C_3
REMARK    3  A    between atoms: C_7  and  C_8
REMARK    4  A    between atoms: C_8  and  N_9
REMARK    5  A    between atoms: C_10  and  C_12
REMARK    6  A    between atoms: C_12  and  C_13
REMARK    7  A    between atoms: N_18  and  C_19
REMARK                            x       y       z     vdW  Elec       q    Type
REMARK                         _______ _______ _______ _____ _____    ______ ____
ROOT
ATOM      1  N   UNL     1       2.723   5.812  18.109  0.00  0.00    +0.000 N 
ATOM      2  C   UNL     1       3.397   4.899  18.903  0.00  0.00    +0.000 C 
ATOM      3  O   UNL     1       4.370   5.211  19.575  0.00  0.00    +0.000 OA
ATOM      4  H   UNL     1       1.839   5.504  17.721  0.00  0.00    +0.000 HD
ENDROOT
BRANCH   2   5
ATOM      5  C   UNL     1       2.829   3.421  18.821  0.00  0.00    +0.000 C 
ATOM      6  C   UNL     1       3.269   2.898  17.432  0.00  0.00    +0.000 C 
ATOM      7  C   UNL     1       3.452   2.523  19.926  0.00  0.00    +0.000 C 
ATOM      8  C   UNL     1       2.976   2.883  21.337  0.00  0.00    +0.000 C 
ATOM      9  C   UNL     1       1.460   2.988  21.414  0.00  0.00    +0.000 C 
ATOM     10  C   UNL     1       0.906   3.863  20.287  0.00  0.00    +0.000 C 
ATOM     11  N   UNL     1       1.326   3.443  18.930  0.00  0.00    +0.000 NA
ATOM     12  C   UNL     1       0.697   2.155  18.598  0.00  0.00    +0.000 C 
ENDBRANCH   2   5
BRANCH   1  13
ATOM     13  C   UNL     1       3.056   7.225  18.047  0.00  0.00    +0.000 C 
BRANCH  13  18
ATOM     14  C   UNL     1       0.542   9.972  18.978  0.00  0.00    +0.000 A 
ATOM     15  C   UNL     1       0.306   9.671  20.318  0.00  0.00    +0.000 A 
ATOM     16  C   UNL     1       0.946   8.589  20.922  0.00  0.00    +0.000 A 
ATOM     17  C   UNL     1       1.837   7.805  20.184  0.00  0.00    +0.000 A 
ATOM     18  C   UNL     1       2.095   8.088  18.836  0.00  0.00    +0.000 A 
ATOM     19  C   UNL     1       1.435   9.180  18.239  0.00  0.00    +0.000 A 
BRANCH  14  21
ATOM     20  C   UNL     1      -1.512  10.852  18.175  0.00  0.00    +0.000 C 
ATOM     21  O   UNL     1      -0.147  11.057  18.508  0.00  0.00    +0.000 OA
ENDBRANCH  14  21
ENDBRANCH  13  18
ENDBRANCH   1  13
TORSDOF 4
ENDMDL
MODEL 6
REMARK VINA RESULT:      -7.0      1.917      2.776
REMARK  Name = 
REMARK  7 active torsions:
REMARK  status: ('A' for Active; 'I' for Inactive)
REMARK    1  A    between atoms: C_1  and  O_2
REMARK    2  A    between atoms: O_2  and  C_3
REMARK    3  A    between atoms: C_7  and  C_8
REMARK    4  A    between atoms: C_8  and  N_9
REMARK    5  A    between atoms: C_10  and  C_12
REMARK    6  A    between atoms: C_12  and  C_13
REMARK    7  A    between atoms: N_18  and  C_19
REMARK                            x       y       z     vdW  Elec       q    Type
REMARK                         _______ _______ _______ _____ _____    ______ ____
ROOT
ATOM      1  N   UNL     1       3.469   5.975  18.099  0.00  0.00    +0.000 N 
ATOM      2  C   UNL     1       3.666   5.346  19.317  0.00  0.00    +0.000 C 
ATOM      3  O   UNL     1       4.771   5.260  19.836  0.00  0.00    +0.000 OA
ATOM      4  H   UNL     1       2.507   6.141  17.829  0.00  0.00    +0.000 HD
ENDROOT
BRANCH   2   5
ATOM      5  C   UNL     1       2.354   4.712  19.942  0.00  0.00    +0.000 C 
ATOM      6  C   UNL     1       1.725   5.845  20.788  0.00  0.00    +0.000 C 
ATOM      7  C   UNL     1       1.355   4.289  18.830  0.00  0.00    +0.000 C 
ATOM      8  C   UNL     1       1.835   3.086  18.013  0.00  0.00    +0.000 C 
ATOM      9  C   UNL     1       2.282   1.937  18.905  0.00  0.00    +0.000 C 
ATOM     10  C   UNL     1       3.243   2.420  19.993  0.00  0.00    +0.000 C 
ATOM     11  N   UNL     1       2.719   3.537  20.813  0.00  0.00    +0.000 NA
ATOM     12  C   UNL     1       1.602   3.055  21.641  0.00  0.00    +0.000 C 
ENDBRANCH   2   5
BRANCH   1  13
ATOM     13  C   UNL     1       4.524   6.646  17.359  0.00  0.00    +0.000 C 
BRANCH  13  18
ATOM     14  C   UNL     1       6.999   5.312  14.746  0.00  0.00    +0.000 A 
ATOM     15  C   UNL     1       6.604   3.979  14.664  0.00  0.00    +0.000 A 
ATOM     16  C   UNL     1       5.551   3.505  15.446  0.00  0.00    +0.000 A 
ATOM     17  C   UNL     1       4.879   4.373  16.311  0.00  0.00    +0.000 A 
ATOM     18  C   UNL     1       5.255   5.720  16.411  0.00  0.00    +0.000 A 
ATOM     19  C   UNL     1       6.325   6.180  15.620  0.00  0.00    +0.000 A 
BRANCH  14  21
ATOM     20  C   UNL     1       7.909   5.326  12.552  0.00  0.00    +0.000 C 
ATOM     21  O   UNL     1       8.044   5.648  13.928  0.00  0.00    +0.000 OA
ENDBRANCH  14  21
ENDBRANCH  13  18
ENDBRANCH   1  13
TORSDOF 4
ENDMDL
MODEL 7
REMARK VINA RESULT:      -6.8      4.270      7.647
REMARK  Name = 
REMARK  7 active torsions:
REMARK  status: ('A' for Active; 'I' for Inactive)
REMARK    1  A    between atoms: C_1  and  O_2
REMARK    2  A    between atoms: O_2  and  C_3
REMARK    3  A    between atoms: C_7  and  C_8
REMARK    4  A    between atoms: C_8  and  N_9
REMARK    5  A    between atoms: C_10  and  C_12
REMARK    6  A    between atoms: C_12  and  C_13
REMARK    7  A    between atoms: N_18  and  C_19
REMARK                            x       y       z     vdW  Elec       q    Type
REMARK                         _______ _______ _______ _____ _____    ______ ____
ROOT
ATOM      1  N   UNL     1       2.842   6.561  18.825  0.00  0.00    +0.000 N 
ATOM      2  C   UNL     1       3.502   5.539  18.164  0.00  0.00    +0.000 C 
ATOM      3  O   UNL     1       3.885   5.650  17.007  0.00  0.00    +0.000 OA
ATOM      4  H   UNL     1       2.710   6.441  19.822  0.00  0.00    +0.000 HD
ENDROOT
BRANCH   2   5
ATOM      5  C   UNL     1       3.669   4.213  19.016  0.00  0.00    +0.000 C 
ATOM      6  C   UNL     1       5.187   4.106  19.299  0.00  0.00    +0.000 C 
ATOM      7  C   UNL     1       2.905   4.318  20.365  0.00  0.00    +0.000 C 
ATOM      8  C   UNL     1       1.382   4.303  20.198  0.00  0.00    +0.000 C 
ATOM      9  C   UNL     1       0.919   3.151  19.318  0.00  0.00    +0.000 C 
ATOM     10  C   UNL     1       1.725   3.086  18.019  0.00  0.00    +0.000 C 
ATOM     11  N   UNL     1       3.192   3.028  18.217  0.00  0.00    +0.000 NA
ATOM     12  C   UNL     1       3.554   1.734  18.819  0.00  0.00    +0.000 C 
ENDBRANCH   2   5
BRANCH   1  13
ATOM     13  C   UNL     1       2.600   7.872  18.245  0.00  0.00    +0.000 C 
BRANCH  13  18
ATOM     14  C   UNL     1       0.479   9.226  21.142  0.00  0.00    +0.000 A 
ATOM     15  C   UNL     1      -0.247  10.224  20.495  0.00  0.00    +0.000 A 
ATOM     16  C   UNL     1      -0.056  10.466  19.134  0.00  0.00    +0.000 A 
ATOM     17  C   UNL     1       0.862   9.699  18.411  0.00  0.00    +0.000 A 
ATOM     18  C   UNL     1       1.602   8.688  19.038  0.00  0.00    +0.000 A 
ATOM     19  C   UNL     1       1.403   8.462  20.413  0.00  0.00    +0.000 A 
BRANCH  14  21
ATOM     20  C   UNL     1      -0.659  10.067  23.050  0.00  0.00    +0.000 C 
ATOM     21  O   UNL     1       0.198   9.091  22.475  0.00  0.00    +0.000 OA
ENDBRANCH  14  21
ENDBRANCH  13  18
ENDBRANCH   1  13
TORSDOF 4
ENDMDL
MODEL 8
REMARK VINA RESULT:      -6.7      1.939      3.156
REMARK  Name = 
REMARK  7 active torsions:
REMARK  status: ('A' for Active; 'I' for Inactive)
REMARK    1  A    between atoms: C_1  and  O_2
REMARK    2  A    between atoms: O_2  and  C_3
REMARK    3  A    between atoms: C_7  and  C_8
REMARK    4  A    between atoms: C_8  and  N_9
REMARK    5  A    between atoms: C_10  and  C_12
REMARK    6  A    between atoms: C_12  and  C_13
REMARK    7  A    between atoms: N_18  and  C_19
REMARK                            x       y       z     vdW  Elec       q    Type
REMARK                         _______ _______ _______ _____ _____    ______ ____
ROOT
ATOM      1  N   UNL     1       3.245   5.606  18.876  0.00  0.00    +0.000 N 
ATOM      2  C   UNL     1       2.170   4.809  18.519  0.00  0.00    +0.000 C 
ATOM      3  O   UNL     1       1.550   4.976  17.478  0.00  0.00    +0.000 OA
ATOM      4  H   UNL     1       3.795   5.293  19.667  0.00  0.00    +0.000 HD
ENDROOT
BRANCH   2   5
ATOM      5  C   UNL     1       1.792   3.707  19.595  0.00  0.00    +0.000 C 
ATOM      6  C   UNL     1       0.705   4.366  20.478  0.00  0.00    +0.000 C 
ATOM      7  C   UNL     1       1.198   2.443  18.913  0.00  0.00    +0.000 C 
ATOM      8  C   UNL     1       2.234   1.647  18.112  0.00  0.00    +0.000 C 
ATOM      9  C   UNL     1       3.491   1.374  18.924  0.00  0.00    +0.000 C 
ATOM     10  C   UNL     1       4.011   2.650  19.590  0.00  0.00    +0.000 C 
ATOM     11  N   UNL     1       3.005   3.356  20.417  0.00  0.00    +0.000 NA
ATOM     12  C   UNL     1       2.691   2.547  21.605  0.00  0.00    +0.000 C 
ENDBRANCH   2   5
BRANCH   1  13
ATOM     13  C   UNL     1       3.780   6.662  18.032  0.00  0.00    +0.000 C 
BRANCH  13  18
ATOM     14  C   UNL     1       6.119   4.709  15.697  0.00  0.00    +0.000 A 
ATOM     15  C   UNL     1       7.294   5.447  15.822  0.00  0.00    +0.000 A 
ATOM     16  C   UNL     1       7.337   6.570  16.649  0.00  0.00    +0.000 A 
ATOM     17  C   UNL     1       6.200   6.955  17.364  0.00  0.00    +0.000 A 
ATOM     18  C   UNL     1       5.007   6.228  17.258  0.00  0.00    +0.000 A 
ATOM     19  C   UNL     1       4.977   5.102  16.414  0.00  0.00    +0.000 A 
BRANCH  14  21
ATOM     20  C   UNL     1       6.240   3.910  13.464  0.00  0.00    +0.000 C 
ATOM     21  O   UNL     1       6.209   3.633  14.857  0.00  0.00    +0.000 OA
ENDBRANCH  14  21
ENDBRANCH  13  18
ENDBRANCH   1  13
TORSDOF 4
ENDMDL
MODEL 9
REMARK VINA RESULT:      -6.7      4.236      7.440
REMARK  Name = 
REMARK  7 active torsions:
REMARK  status: ('A' for Active; 'I' for Inactive)
REMARK    1  A    between atoms: C_1  and  O_2
REMARK    2  A    between atoms: O_2  and  C_3
REMARK    3  A    between atoms: C_7  and  C_8
REMARK    4  A    between atoms: C_8  and  N_9
REMARK    5  A    between atoms: C_10  and  C_12
REMARK    6  A    between atoms: C_12  and  C_13
REMARK    7  A    between atoms: N_18  and  C_19
REMARK                            x       y       z     vdW  Elec       q    Type
REMARK                         _______ _______ _______ _____ _____    ______ ____
ROOT
ATOM      1  N   UNL     1       1.891   5.828  19.852  0.00  0.00    +0.000 N 
ATOM      2  C   UNL     1       2.113   4.536  20.296  0.00  0.00    +0.000 C 
ATOM      3  O   UNL     1       2.227   4.264  21.484  0.00  0.00    +0.000 OA
ATOM      4  H   UNL     1       1.648   5.933  18.874  0.00  0.00    +0.000 HD
ENDROOT
BRANCH   2   5
ATOM      5  C   UNL     1       2.254   3.464  19.137  0.00  0.00    +0.000 C 
ATOM      6  C   UNL     1       0.992   2.575  19.256  0.00  0.00    +0.000 C 
ATOM      7  C   UNL     1       2.266   4.149  17.742  0.00  0.00    +0.000 C 
ATOM      8  C   UNL     1       3.541   4.956  17.477  0.00  0.00    +0.000 C 
ATOM      9  C   UNL     1       4.795   4.147  17.773  0.00  0.00    +0.000 C 
ATOM     10  C   UNL     1       4.713   3.477  19.147  0.00  0.00    +0.000 C 
ATOM     11  N   UNL     1       3.503   2.646  19.345  0.00  0.00    +0.000 NA
ATOM     12  C   UNL     1       3.575   1.460  18.476  0.00  0.00    +0.000 C 
ENDBRANCH   2   5
BRANCH   1  13
ATOM     13  C   UNL     1       1.706   6.965  20.739  0.00  0.00    +0.000 C 
BRANCH  13  18
ATOM     14  C   UNL     1       0.777  10.593  19.899  0.00  0.00    +0.000 A 
ATOM     15  C   UNL     1       1.242  10.688  18.589  0.00  0.00    +0.000 A 
ATOM     16  C   UNL     1       1.856   9.595  17.976  0.00  0.00    +0.000 A 
ATOM     17  C   UNL     1       1.999   8.393  18.674  0.00  0.00    +0.000 A 
ATOM     18  C   UNL     1       1.537   8.270  19.992  0.00  0.00    +0.000 A 
ATOM     19  C   UNL     1       0.927   9.384  20.598  0.00  0.00    +0.000 A 
BRANCH  14  21
ATOM     20  C   UNL     1      -1.223  11.781  20.378  0.00  0.00    +0.000 C 
ATOM     21  O   UNL     1       0.197  11.734  20.382  0.00  0.00    +0.000 OA
ENDBRANCH  14  21
ENDBRANCH  13  18
ENDBRANCH   1  13
TORSDOF 4
ENDMDL
