MODEL 1
REMARK VINA RESULT:      -8.0      0.000      0.000
REMARK  Name = 
REMARK  7 active torsions:
REMARK  status: ('A' for Active; 'I' for Inactive)
REMARK    1  A    between atoms: C_1  and  C_2
REMARK    2  A    between atoms: C_7  and  N_8
REMARK    3  A    between atoms: C_10  and  C_11
REMARK    4  A    between atoms: C_17  and  C_18
REMARK    5  A    between atoms: C_20  and  C_21
REMARK    6  A    between atoms: C_24  and  O_25
REMARK    7  A    between atoms: O_25  and  C_26
REMARK                            x       y       z     vdW  Elec       q    Type
REMARK                         _______ _______ _______ _____ _____    ______ ____
ROOT
ATOM      1  N   UNL     1       4.113   3.524  18.969  0.00  0.00    +0.000 N 
ATOM      2  N   UNL     1       4.188   3.113  17.673  0.00  0.00    +0.000 NA
ATOM      3  C   UNL     1       4.317   4.282  17.011  0.00  0.00    +0.000 A 
ATOM      4  C   UNL     1       4.778   4.241  15.595  0.00  0.00    +0.000 C 
ATOM      5  C   UNL     1       4.305   5.389  17.927  0.00  0.00    +0.000 A 
ATOM      6  C   UNL     1       4.892   4.733  18.981  0.00  0.00    +0.000 A 
ATOM      7  N   UNL     1       6.245   5.046  19.300  0.00  0.00    +0.000 N 
ATOM      8  C   UNL     1       7.210   6.092  18.758  0.00  0.00    +0.000 C 
ATOM      9  O   UNL     1       8.290   6.005  19.343  0.00  0.00    +0.000 OA
ATOM     10  C   UNL     1       7.019   7.331  17.752  0.00  0.00    +0.000 C 
ATOM     11  C   UNL     1       8.241   7.714  16.903  0.00  0.00    +0.000 C 
ATOM     12  S   UNL     1       5.597   7.345  16.616  0.00  0.00    +0.000 S 
ATOM     13  C   UNL     1       4.481   6.833  17.833  0.00  0.00    +0.000 C 
ATOM     14  H   UNL     1       6.723   4.396  19.919  0.00  0.00    +0.000 HD
ENDROOT
BRANCH   1  21
ATOM     15  C   UNL     1       1.070   3.839  18.229  0.00  0.00    +0.000 C 
ATOM     16  C   UNL     1       1.632   3.282  19.518  0.00  0.00    +0.000 A 
ATOM     17  C   UNL     1       0.640   2.917  20.470  0.00  0.00    +0.000 A 
ATOM     18  C   UNL     1       0.971   2.368  21.696  0.00  0.00    +0.000 A 
ATOM     19  C   UNL     1       2.321   2.180  21.996  0.00  0.00    +0.000 A 
ATOM     20  C   UNL     1       3.326   2.550  21.091  0.00  0.00    +0.000 A 
ATOM     21  C   UNL     1       3.015   3.102  19.836  0.00  0.00    +0.000 A 
ENDBRANCH   1  21
BRANCH  13  22
ATOM     22  C   UNL     1       3.298   7.590  18.329  0.00  0.00    +0.000 A 
ATOM     23  C   UNL     1       2.550   7.208  19.428  0.00  0.00    +0.000 A 
ATOM     24  C   UNL     1       1.459   7.998  19.805  0.00  0.00    +0.000 A 
ATOM     25  C   UNL     1       1.115   9.149  19.086  0.00  0.00    +0.000 A 
ATOM     26  C   UNL     1       1.813   9.490  17.935  0.00  0.00    +0.000 A 
ATOM     27  C   UNL     1       2.916   8.745  17.586  0.00  0.00    +0.000 A 
BRANCH  25  28
ATOM     28  O   UNL     1       0.040   9.861  19.559  0.00  0.00    +0.000 OA
BRANCH  28  29
ATOM     29  C   UNL     1      -0.954  10.232  18.689  0.00  0.00    +0.000 A 
ATOM     30  C   UNL     1      -1.702  11.344  19.063  0.00  0.00    +0.000 A 
ATOM     31  C   UNL     1      -2.718  11.812  18.232  0.00  0.00    +0.000 A 
ATOM     32  C   UNL     1      -2.994  11.159  17.028  0.00  0.00    +0.000 A 
ATOM     33  C   UNL     1      -2.242  10.048  16.646  0.00  0.00    +0.000 A 
ATOM     34  C   UNL     1      -1.206   9.597  17.461  0.00  0.00    +0.000 A 
ENDBRANCH  28  29
ENDBRANCH  25  28
ENDBRANCH  13  22
TORSDOF 4
ENDMDL
MODEL 2
REMARK VINA RESULT:      -8.0      1.444      2.200
REMARK  Name = 
REMARK  7 active torsions:
REMARK  status: ('A' for Active; 'I' for Inactive)
REMARK    1  A    between atoms: C_1  and  C_2
REMARK    2  A    between atoms: C_7  and  N_8
REMARK    3  A    between atoms: C_10  and  C_11
REMARK    4  A    between atoms: C_17  and  C_18
REMARK    5  A    between atoms: C_20  and  C_21
REMARK    6  A    between atoms: C_24  and  O_25
REMARK    7  A    between atoms: O_25  and  C_26
REMARK                            x       y       z     vdW  Elec       q    Type
REMARK                         _______ _______ _______ _____ _____    ______ ____
ROOT
ATOM      1  N   UNL     1       4.198   3.570  18.951  0.00  0.00    +0.000 N 
ATOM      2  N   UNL     1       4.353   3.099  17.683  0.00  0.00    +0.000 NA
ATOM      3  C   UNL     1       4.507   4.238  16.975  0.00  0.00    +0.000 A 
ATOM      4  C   UNL     1       5.050   4.138  15.591  0.00  0.00    +0.000 C 
ATOM      5  C   UNL     1       4.429   5.386  17.835  0.00  0.00    +0.000 A 
ATOM      6  C   UNL     1       4.961   4.789  18.952  0.00  0.00    +0.000 A 
ATOM      7  N   UNL     1       6.289   5.135  19.332  0.00  0.00    +0.000 N 
ATOM      8  C   UNL     1       7.272   6.169  18.798  0.00  0.00    +0.000 C 
ATOM      9  O   UNL     1       8.318   6.125  19.448  0.00  0.00    +0.000 OA
ATOM     10  C   UNL     1       7.126   7.357  17.725  0.00  0.00    +0.000 C 
ATOM     11  C   UNL     1       8.390   7.717  16.931  0.00  0.00    +0.000 C 
ATOM     12  S   UNL     1       5.772   7.297  16.510  0.00  0.00    +0.000 S 
ATOM     13  C   UNL     1       4.593   6.827  17.684  0.00  0.00    +0.000 C 
ATOM     14  H   UNL     1       6.737   4.522  20.008  0.00  0.00    +0.000 HD
ENDROOT
BRANCH   1  21
ATOM     15  C   UNL     1       1.196   3.899  18.063  0.00  0.00    +0.000 C 
ATOM     16  C   UNL     1       1.692   3.360  19.387  0.00  0.00    +0.000 A 
ATOM     17  C   UNL     1       0.652   3.020  20.297  0.00  0.00    +0.000 A 
ATOM     18  C   UNL     1       0.920   2.490  21.547  0.00  0.00    +0.000 A 
ATOM     19  C   UNL     1       2.252   2.295  21.913  0.00  0.00    +0.000 A 
ATOM     20  C   UNL     1       3.303   2.640  21.051  0.00  0.00    +0.000 A 
ATOM     21  C   UNL     1       3.057   3.173  19.773  0.00  0.00    +0.000 A 
ENDBRANCH   1  21
BRANCH  13  22
ATOM     22  C   UNL     1       3.375   7.590  18.074  0.00  0.00    +0.000 A 
ATOM     23  C   UNL     1       2.910   8.696  17.386  0.00  0.00    +0.000 A 
ATOM     24  C   UNL     1       1.753   9.334  17.843  0.00  0.00    +0.000 A 
ATOM     25  C   UNL     1       1.075   8.877  18.980  0.00  0.00    +0.000 A 
ATOM     26  C   UNL     1       1.582   7.818  19.720  0.00  0.00    +0.000 A 
ATOM     27  C   UNL     1       2.693   7.156  19.249  0.00  0.00    +0.000 A 
BRANCH  25  28
ATOM     28  O   UNL     1      -0.064   9.565  19.324  0.00  0.00    +0.000 OA
BRANCH  28  29
ATOM     29  C   UNL     1      -0.289   9.870  20.643  0.00  0.00    +0.000 A 
ATOM     30  C   UNL     1      -0.602  11.199  20.911  0.00  0.00    +0.000 A 
ATOM     31  C   UNL     1      -0.871  11.601  22.219  0.00  0.00    +0.000 A 
ATOM     32  C   UNL     1      -0.816  10.673  23.261  0.00  0.00    +0.000 A 
ATOM     33  C   UNL     1      -0.510   9.339  22.996  0.00  0.00    +0.000 A 
ATOM     34  C   UNL     1      -0.270   8.929  21.686  0.00  0.00    +0.000 A 
ENDBRANCH  28  29
ENDBRANCH  25  28
ENDBRANCH  13  22
TORSDOF 4
ENDMDL
MODEL 3
REMARK VINA RESULT:      -7.9      5.302      9.900
REMARK  Name = 
REMARK  7 active torsions:
REMARK  status: ('A' for Active; 'I' for Inactive)
REMARK    1  A    between atoms: C_1  and  C_2
REMARK    2  A    between atoms: C_7  and  N_8
REMARK    3  A    between atoms: C_10  and  C_11
REMARK    4  A    between atoms: C_17  and  C_18
REMARK    5  A    between atoms: C_20  and  C_21
REMARK    6  A    between atoms: C_24  and  O_25
REMARK    7  A    between atoms: O_25  and  C_26
REMARK                            x       y       z     vdW  Elec       q    Type
REMARK                         _______ _______ _______ _____ _____    ______ ____
ROOT
ATOM      1  N   UNL     1      -3.565  12.721  19.331  0.00  0.00    +0.000 N 
ATOM      2  N   UNL     1      -4.698  12.716  20.086  0.00  0.00    +0.000 NA
ATOM      3  C   UNL     1      -4.203  12.631  21.339  0.00  0.00    +0.000 A 
ATOM      4  C   UNL     1      -5.111  12.949  22.476  0.00  0.00    +0.000 C 
ATOM      5  C   UNL     1      -2.767  12.573  21.316  0.00  0.00    +0.000 A 
ATOM      6  C   UNL     1      -2.593  13.341  20.189  0.00  0.00    +0.000 A 
ATOM      7  N   UNL     1      -2.104  14.669  20.349  0.00  0.00    +0.000 N 
ATOM      8  C   UNL     1      -1.600  15.437  21.564  0.00  0.00    +0.000 C 
ATOM      9  O   UNL     1      -1.262  16.573  21.229  0.00  0.00    +0.000 OA
ATOM     10  C   UNL     1      -1.278  14.994  23.075  0.00  0.00    +0.000 C 
ATOM     11  C   UNL     1      -1.475  16.067  24.157  0.00  0.00    +0.000 C 
ATOM     12  S   UNL     1      -2.031  13.473  23.736  0.00  0.00    +0.000 S 
ATOM     13  C   UNL     1      -1.699  12.558  22.308  0.00  0.00    +0.000 C 
ATOM     14  H   UNL     1      -2.201  15.284  19.545  0.00  0.00    +0.000 HD
ENDROOT
BRANCH   1  21
ATOM     15  C   UNL     1      -5.652  12.303  17.013  0.00  0.00    +0.000 C 
ATOM     16  C   UNL     1      -4.349  11.557  17.198  0.00  0.00    +0.000 A 
ATOM     17  C   UNL     1      -4.116  10.551  16.220  0.00  0.00    +0.000 A 
ATOM     18  C   UNL     1      -2.963   9.786  16.221  0.00  0.00    +0.000 A 
ATOM     19  C   UNL     1      -2.015  10.015  17.219  0.00  0.00    +0.000 A 
ATOM     20  C   UNL     1      -2.223  10.982  18.212  0.00  0.00    +0.000 A 
ATOM     21  C   UNL     1      -3.383  11.777  18.230  0.00  0.00    +0.000 A 
ENDBRANCH   1  21
BRANCH  13  22
ATOM     22  C   UNL     1      -0.839  11.347  22.209  0.00  0.00    +0.000 A 
ATOM     23  C   UNL     1      -0.855  10.319  23.135  0.00  0.00    +0.000 A 
ATOM     24  C   UNL     1      -0.003   9.226  22.941  0.00  0.00    +0.000 A 
ATOM     25  C   UNL     1       0.859   9.168  21.839  0.00  0.00    +0.000 A 
ATOM     26  C   UNL     1       0.936  10.233  20.952  0.00  0.00    +0.000 A 
ATOM     27  C   UNL     1       0.068  11.289  21.111  0.00  0.00    +0.000 A 
BRANCH  25  28
ATOM     28  O   UNL     1       1.633   8.037  21.734  0.00  0.00    +0.000 OA
BRANCH  28  29
ATOM     29  C   UNL     1       1.892   7.516  20.492  0.00  0.00    +0.000 A 
ATOM     30  C   UNL     1       1.997   6.130  20.427  0.00  0.00    +0.000 A 
ATOM     31  C   UNL     1       2.234   5.506  19.203  0.00  0.00    +0.000 A 
ATOM     32  C   UNL     1       2.379   6.271  18.044  0.00  0.00    +0.000 A 
ATOM     33  C   UNL     1       2.268   7.660  18.103  0.00  0.00    +0.000 A 
ATOM     34  C   UNL     1       2.001   8.284  19.320  0.00  0.00    +0.000 A 
ENDBRANCH  28  29
ENDBRANCH  25  28
ENDBRANCH  13  22
TORSDOF 4
ENDMDL
MODEL 4
REMARK VINA RESULT:      -7.8      4.474      8.920
REMARK  Name = 
REMARK  7 active torsions:
REMARK  status: ('A' for Active; 'I' for Inactive)
REMARK    1  A    between atoms: C_1  and  C_2
REMARK    2  A    between atoms: C_7  and  N_8
REMARK    3  A    between atoms: C_10  and  C_11
REMARK    4  A    between atoms: C_17  and  C_18
REMARK    5  A    between atoms: C_20  and  C_21
REMARK    6  A    between atoms: C_24  and  O_25
REMARK    7  A    between atoms: O_25  and  C_26
REMARK                            x       y       z     vdW  Elec       q    Type
REMARK                         _______ _______ _______ _____ _____    ______ ____
ROOT
ATOM      1  N   UNL     1      -2.410  12.258  18.258  0.00  0.00    +0.000 N 
ATOM      2  N   UNL     1      -3.075  12.312  19.445  0.00  0.00    +0.000 NA
ATOM      3  C   UNL     1      -2.085  12.093  20.335  0.00  0.00    +0.000 A 
ATOM      4  C   UNL     1      -2.341  12.418  21.766  0.00  0.00    +0.000 C 
ATOM      5  C   UNL     1      -0.831  11.896  19.662  0.00  0.00    +0.000 A 
ATOM      6  C   UNL     1      -1.090  12.718  18.593  0.00  0.00    +0.000 A 
ATOM      7  N   UNL     1      -0.427  13.978  18.536  0.00  0.00    +0.000 N 
ATOM      8  C   UNL     1       0.656  14.606  19.403  0.00  0.00    +0.000 C 
ATOM      9  O   UNL     1       0.940  15.724  18.971  0.00  0.00    +0.000 OA
ATOM     10  C   UNL     1       1.566  14.030  20.596  0.00  0.00    +0.000 C 
ATOM     11  C   UNL     1       2.006  15.039  21.668  0.00  0.00    +0.000 C 
ATOM     12  S   UNL     1       1.015  12.549  21.501  0.00  0.00    +0.000 S 
ATOM     13  C   UNL     1       0.559  11.706  20.062  0.00  0.00    +0.000 C 
ATOM     14  H   UNL     1      -0.801  14.653  17.875  0.00  0.00    +0.000 HD
ENDROOT
BRANCH   1  21
ATOM     15  C   UNL     1      -5.306  12.319  17.027  0.00  0.00    +0.000 C 
ATOM     16  C   UNL     1      -4.183  11.378  16.646  0.00  0.00    +0.000 A 
ATOM     17  C   UNL     1      -4.542  10.422  15.656  0.00  0.00    +0.000 A 
ATOM     18  C   UNL     1      -3.633   9.499  15.170  0.00  0.00    +0.000 A 
ATOM     19  C   UNL     1      -2.335   9.513  15.680  0.00  0.00    +0.000 A 
ATOM     20  C   UNL     1      -1.954  10.426  16.674  0.00  0.00    +0.000 A 
ATOM     21  C   UNL     1      -2.856  11.380  17.178  0.00  0.00    +0.000 A 
ENDBRANCH   1  21
BRANCH  13  22
ATOM     22  C   UNL     1       1.132  10.426  19.563  0.00  0.00    +0.000 A 
ATOM     23  C   UNL     1       1.594  10.245  18.271  0.00  0.00    +0.000 A 
ATOM     24  C   UNL     1       2.113   8.997  17.912  0.00  0.00    +0.000 A 
ATOM     25  C   UNL     1       2.161   7.941  18.830  0.00  0.00    +0.000 A 
ATOM     26  C   UNL     1       1.624   8.093  20.101  0.00  0.00    +0.000 A 
ATOM     27  C   UNL     1       1.156   9.332  20.476  0.00  0.00    +0.000 A 
BRANCH  25  28
ATOM     28  O   UNL     1       2.714   6.768  18.377  0.00  0.00    +0.000 OA
BRANCH  28  29
ATOM     29  C   UNL     1       2.253   5.575  18.873  0.00  0.00    +0.000 A 
ATOM     30  C   UNL     1       1.738   4.687  17.934  0.00  0.00    +0.000 A 
ATOM     31  C   UNL     1       1.268   3.439  18.339  0.00  0.00    +0.000 A 
ATOM     32  C   UNL     1       1.304   3.083  19.690  0.00  0.00    +0.000 A 
ATOM     33  C   UNL     1       1.826   3.966  20.633  0.00  0.00    +0.000 A 
ATOM     34  C   UNL     1       2.324   5.203  20.227  0.00  0.00    +0.000 A 
ENDBRANCH  28  29
ENDBRANCH  25  28
ENDBRANCH  13  22
TORSDOF 4
ENDMDL
MODEL 5
REMARK VINA RESULT:      -7.8      1.127      1.652
REMARK  Name = 
REMARK  7 active torsions:
REMARK  status: ('A' for Active; 'I' for Inactive)
REMARK    1  A    between atoms: C_1  and  C_2
REMARK    2  A    between atoms: C_7  and  N_8
REMARK    3  A    between atoms: C_10  and  C_11
REMARK    4  A    between atoms: C_17  and  C_18
REMARK    5  A    between atoms: C_20  and  C_21
REMARK    6  A    between atoms: C_24  and  O_25
REMARK    7  A    between atoms: O_25  and  C_26
REMARK                            x       y       z     vdW  Elec       q    Type
REMARK                         _______ _______ _______ _____ _____    ______ ____
ROOT
ATOM      1  N   UNL     1       4.131   3.480  18.996  0.00  0.00    +0.000 N 
ATOM      2  N   UNL     1       4.216   3.058  17.704  0.00  0.00    +0.000 NA
ATOM      3  C   UNL     1       4.347   4.222  17.034  0.00  0.00    +0.000 A 
ATOM      4  C   UNL     1       4.818   4.171  15.621  0.00  0.00    +0.000 C 
ATOM      5  C   UNL     1       4.325   5.337  17.941  0.00  0.00    +0.000 A 
ATOM      6  C   UNL     1       4.906   4.691  19.005  0.00  0.00    +0.000 A 
ATOM      7  N   UNL     1       6.256   5.010  19.331  0.00  0.00    +0.000 N 
ATOM      8  C   UNL     1       7.222   6.054  18.787  0.00  0.00    +0.000 C 
ATOM      9  O   UNL     1       8.299   5.975  19.381  0.00  0.00    +0.000 OA
ATOM     10  C   UNL     1       7.036   7.285  17.770  0.00  0.00    +0.000 C 
ATOM     11  C   UNL     1       8.263   7.664  16.927  0.00  0.00    +0.000 C 
ATOM     12  S   UNL     1       5.622   7.285  16.624  0.00  0.00    +0.000 S 
ATOM     13  C   UNL     1       4.498   6.781  17.837  0.00  0.00    +0.000 C 
ATOM     14  H   UNL     1       6.731   4.367  19.959  0.00  0.00    +0.000 HD
ENDROOT
BRANCH   1  21
ATOM     15  C   UNL     1       1.092   3.830  18.255  0.00  0.00    +0.000 C 
ATOM     16  C   UNL     1       1.647   3.258  19.541  0.00  0.00    +0.000 A 
ATOM     17  C   UNL     1       0.650   2.895  20.489  0.00  0.00    +0.000 A 
ATOM     18  C   UNL     1       0.975   2.334  21.711  0.00  0.00    +0.000 A 
ATOM     19  C   UNL     1       2.322   2.130  22.011  0.00  0.00    +0.000 A 
ATOM     20  C   UNL     1       3.332   2.497  21.110  0.00  0.00    +0.000 A 
ATOM     21  C   UNL     1       3.028   3.063  19.859  0.00  0.00    +0.000 A 
ENDBRANCH   1  21
BRANCH  13  22
ATOM     22  C   UNL     1       3.311   7.539  18.318  0.00  0.00    +0.000 A 
ATOM     23  C   UNL     1       2.609   7.215  19.466  0.00  0.00    +0.000 A 
ATOM     24  C   UNL     1       1.507   7.999  19.823  0.00  0.00    +0.000 A 
ATOM     25  C   UNL     1       1.107   9.087  19.037  0.00  0.00    +0.000 A 
ATOM     26  C   UNL     1       1.758   9.366  17.843  0.00  0.00    +0.000 A 
ATOM     27  C   UNL     1       2.871   8.628  17.510  0.00  0.00    +0.000 A 
BRANCH  25  28
ATOM     28  O   UNL     1       0.027   9.802  19.496  0.00  0.00    +0.000 OA
BRANCH  28  29
ATOM     29  C   UNL     1       0.118  11.168  19.587  0.00  0.00    +0.000 A 
ATOM     30  C   UNL     1      -0.661  11.888  18.686  0.00  0.00    +0.000 A 
ATOM     31  C   UNL     1      -0.654  13.281  18.719  0.00  0.00    +0.000 A 
ATOM     32  C   UNL     1       0.143  13.956  19.646  0.00  0.00    +0.000 A 
ATOM     33  C   UNL     1       0.920  13.239  20.555  0.00  0.00    +0.000 A 
ATOM     34  C   UNL     1       0.892  11.846  20.545  0.00  0.00    +0.000 A 
ENDBRANCH  28  29
ENDBRANCH  25  28
ENDBRANCH  13  22
TORSDOF 4
ENDMDL
MODEL 6
REMARK VINA RESULT:      -7.7      1.067      1.759
REMARK  Name = 
REMARK  7 active torsions:
REMARK  status: ('A' for Active; 'I' for Inactive)
REMARK    1  A    between atoms: C_1  and  C_2
REMARK    2  A    between atoms: C_7  and  N_8
REMARK    3  A    between atoms: C_10  and  C_11
REMARK    4  A    between atoms: C_17  and  C_18
REMARK    5  A    between atoms: C_20  and  C_21
REMARK    6  A    between atoms: C_24  and  O_25
REMARK    7  A    between atoms: O_25  and  C_26
REMARK                            x       y       z     vdW  Elec       q    Type
REMARK                         _______ _______ _______ _____ _____    ______ ____
ROOT
ATOM      1  N   UNL     1       4.152   3.535  18.978  0.00  0.00    +0.000 N 
ATOM      2  N   UNL     1       4.266   3.089  17.697  0.00  0.00    +0.000 NA
ATOM      3  C   UNL     1       4.402   4.240  17.006  0.00  0.00    +0.000 A 
ATOM      4  C   UNL     1       4.902   4.165  15.605  0.00  0.00    +0.000 C 
ATOM      5  C   UNL     1       4.354   5.372  17.890  0.00  0.00    +0.000 A 
ATOM      6  C   UNL     1       4.918   4.751  18.978  0.00  0.00    +0.000 A 
ATOM      7  N   UNL     1       6.259   5.087  19.324  0.00  0.00    +0.000 N 
ATOM      8  C   UNL     1       7.229   6.127  18.780  0.00  0.00    +0.000 C 
ATOM      9  O   UNL     1       8.294   6.068  19.396  0.00  0.00    +0.000 OA
ATOM     10  C   UNL     1       7.054   7.336  17.735  0.00  0.00    +0.000 C 
ATOM     11  C   UNL     1       8.295   7.708  16.909  0.00  0.00    +0.000 C 
ATOM     12  S   UNL     1       5.663   7.304  16.561  0.00  0.00    +0.000 S 
ATOM     13  C   UNL     1       4.519   6.815  17.761  0.00  0.00    +0.000 C 
ATOM     14  H   UNL     1       6.726   4.459  19.975  0.00  0.00    +0.000 HD
ENDROOT
BRANCH   1  21
ATOM     15  C   UNL     1       1.125   3.887  18.188  0.00  0.00    +0.000 C 
ATOM     16  C   UNL     1       1.659   3.323  19.487  0.00  0.00    +0.000 A 
ATOM     17  C   UNL     1       0.647   2.970  20.421  0.00  0.00    +0.000 A 
ATOM     18  C   UNL     1       0.951   2.417  21.653  0.00  0.00    +0.000 A 
ATOM     19  C   UNL     1       2.293   2.211  21.975  0.00  0.00    +0.000 A 
ATOM     20  C   UNL     1       3.318   2.569  21.087  0.00  0.00    +0.000 A 
ATOM     21  C   UNL     1       3.034   3.126  19.827  0.00  0.00    +0.000 A 
ENDBRANCH   1  21
BRANCH  13  22
ATOM     22  C   UNL     1       3.317   7.573  18.203  0.00  0.00    +0.000 A 
ATOM     23  C   UNL     1       2.754   8.608  17.478  0.00  0.00    +0.000 A 
ATOM     24  C   UNL     1       1.622   9.250  17.990  0.00  0.00    +0.000 A 
ATOM     25  C   UNL     1       1.066   8.868  19.218  0.00  0.00    +0.000 A 
ATOM     26  C   UNL     1       1.675   7.886  19.987  0.00  0.00    +0.000 A 
ATOM     27  C   UNL     1       2.760   7.218  19.467  0.00  0.00    +0.000 A 
BRANCH  25  28
ATOM     28  O   UNL     1      -0.059   9.550  19.612  0.00  0.00    +0.000 OA
BRANCH  28  29
ATOM     29  C   UNL     1      -0.037  10.922  19.635  0.00  0.00    +0.000 A 
ATOM     30  C   UNL     1       0.793  11.499  20.592  0.00  0.00    +0.000 A 
ATOM     31  C   UNL     1       0.900  12.886  20.676  0.00  0.00    +0.000 A 
ATOM     32  C   UNL     1       0.167  13.698  19.808  0.00  0.00    +0.000 A 
ATOM     33  C   UNL     1      -0.660  13.125  18.843  0.00  0.00    +0.000 A 
ATOM     34  C   UNL     1      -0.746  11.738  18.737  0.00  0.00    +0.000 A 
ENDBRANCH  28  29
ENDBRANCH  25  28
ENDBRANCH  13  22
TORSDOF 4
ENDMDL
MODEL 7
REMARK VINA RESULT:      -7.7      4.422      8.995
REMARK  Name = 
REMARK  7 active torsions:
REMARK  status: ('A' for Active; 'I' for Inactive)
REMARK    1  A    between atoms: C_1  and  C_2
REMARK    2  A    between atoms: C_7  and  N_8
REMARK    3  A    between atoms: C_10  and  C_11
REMARK    4  A    between atoms: C_17  and  C_18
REMARK    5  A    between atoms: C_20  and  C_21
REMARK    6  A    between atoms: C_24  and  O_25
REMARK    7  A    between atoms: O_25  and  C_26
REMARK                            x       y       z     vdW  Elec       q    Type
REMARK                         _______ _______ _______ _____ _____    ______ ____
ROOT
ATOM      1  N   UNL     1      -2.271  12.240  18.374  0.00  0.00    +0.000 N 
ATOM      2  N   UNL     1      -2.866  12.282  19.598  0.00  0.00    +0.000 NA
ATOM      3  C   UNL     1      -1.837  11.998  20.424  0.00  0.00    +0.000 A 
ATOM      4  C   UNL     1      -1.999  12.289  21.876  0.00  0.00    +0.000 C 
ATOM      5  C   UNL     1      -0.631  11.774  19.675  0.00  0.00    +0.000 A 
ATOM      6  C   UNL     1      -0.917  12.638  18.646  0.00  0.00    +0.000 A 
ATOM      7  N   UNL     1      -0.208  13.873  18.587  0.00  0.00    +0.000 N 
ATOM      8  C   UNL     1       0.945  14.433  19.409  0.00  0.00    +0.000 C 
ATOM      9  O   UNL     1       1.249  15.552  18.993  0.00  0.00    +0.000 OA
ATOM     10  C   UNL     1       1.898  13.785  20.530  0.00  0.00    +0.000 C 
ATOM     11  C   UNL     1       2.436  14.744  21.603  0.00  0.00    +0.000 C 
ATOM     12  S   UNL     1       1.339  12.299  21.422  0.00  0.00    +0.000 S 
ATOM     13  C   UNL     1       0.770  11.520  19.988  0.00  0.00    +0.000 C 
ATOM     14  H   UNL     1      -0.592  14.582  17.968  0.00  0.00    +0.000 HD
ENDROOT
BRANCH   1  21
ATOM     15  C   UNL     1      -5.269  12.337  17.419  0.00  0.00    +0.000 C 
ATOM     16  C   UNL     1      -4.182  11.426  16.890  0.00  0.00    +0.000 A 
ATOM     17  C   UNL     1      -4.627  10.518  15.890  0.00  0.00    +0.000 A 
ATOM     18  C   UNL     1      -3.764   9.627  15.277  0.00  0.00    +0.000 A 
ATOM     19  C   UNL     1      -2.424   9.628  15.665  0.00  0.00    +0.000 A 
ATOM     20  C   UNL     1      -1.956  10.493  16.664  0.00  0.00    +0.000 A 
ATOM     21  C   UNL     1      -2.811  11.412  17.297  0.00  0.00    +0.000 A 
ENDBRANCH   1  21
BRANCH  13  22
ATOM     22  C   UNL     1       1.262  10.234  19.421  0.00  0.00    +0.000 A 
ATOM     23  C   UNL     1       1.601  10.064  18.090  0.00  0.00    +0.000 A 
ATOM     24  C   UNL     1       2.054   8.810  17.667  0.00  0.00    +0.000 A 
ATOM     25  C   UNL     1       2.158   7.738  18.562  0.00  0.00    +0.000 A 
ATOM     26  C   UNL     1       1.742   7.882  19.879  0.00  0.00    +0.000 A 
ATOM     27  C   UNL     1       1.341   9.125  20.313  0.00  0.00    +0.000 A 
BRANCH  25  28
ATOM     28  O   UNL     1       2.637   6.560  18.043  0.00  0.00    +0.000 OA
BRANCH  28  29
ATOM     29  C   UNL     1       3.987   6.314  18.076  0.00  0.00    +0.000 A 
ATOM     30  C   UNL     1       4.430   5.505  19.118  0.00  0.00    +0.000 A 
ATOM     31  C   UNL     1       5.781   5.180  19.220  0.00  0.00    +0.000 A 
ATOM     32  C   UNL     1       6.693   5.674  18.284  0.00  0.00    +0.000 A 
ATOM     33  C   UNL     1       6.252   6.479  17.234  0.00  0.00    +0.000 A 
ATOM     34  C   UNL     1       4.898   6.781  17.113  0.00  0.00    +0.000 A 
ENDBRANCH  28  29
ENDBRANCH  25  28
ENDBRANCH  13  22
TORSDOF 4
ENDMDL
MODEL 8
REMARK VINA RESULT:      -7.6      4.654      9.162
REMARK  Name = 
REMARK  7 active torsions:
REMARK  status: ('A' for Active; 'I' for Inactive)
REMARK    1  A    between atoms: C_1  and  C_2
REMARK    2  A    between atoms: C_7  and  N_8
REMARK    3  A    between atoms: C_10  and  C_11
REMARK    4  A    between atoms: C_17  and  C_18
REMARK    5  A    between atoms: C_20  and  C_21
REMARK    6  A    between atoms: C_24  and  O_25
REMARK    7  A    between atoms: O_25  and  C_26
REMARK                            x       y       z     vdW  Elec       q    Type
REMARK                         _______ _______ _______ _____ _____    ______ ____
ROOT
ATOM      1  N   UNL     1      -2.366  12.900  19.608  0.00  0.00    +0.000 N 
ATOM      2  N   UNL     1      -2.442  13.105  20.952  0.00  0.00    +0.000 NA
ATOM      3  C   UNL     1      -1.164  12.915  21.341  0.00  0.00    +0.000 A 
ATOM      4  C   UNL     1      -0.762  13.390  22.695  0.00  0.00    +0.000 C 
ATOM      5  C   UNL     1      -0.334  12.583  20.215  0.00  0.00    +0.000 A 
ATOM      6  C   UNL     1      -1.029  13.313  19.282  0.00  0.00    +0.000 A 
ATOM      7  N   UNL     1      -0.445  14.522  18.803  0.00  0.00    +0.000 N 
ATOM      8  C   UNL     1       0.914  15.167  19.037  0.00  0.00    +0.000 C 
ATOM      9  O   UNL     1       0.991  16.220  18.403  0.00  0.00    +0.000 OA
ATOM     10  C   UNL     1       2.250  14.655  19.770  0.00  0.00    +0.000 C 
ATOM     11  C   UNL     1       3.125  15.735  20.424  0.00  0.00    +0.000 C 
ATOM     12  S   UNL     1       2.137  13.301  20.982  0.00  0.00    +0.000 S 
ATOM     13  C   UNL     1       1.088  12.353  19.988  0.00  0.00    +0.000 C 
ATOM     14  H   UNL     1      -1.065  15.152  18.300  0.00  0.00    +0.000 HD
ENDROOT
BRANCH   1  21
ATOM     15  C   UNL     1      -5.507  13.099  19.634  0.00  0.00    +0.000 C 
ATOM     16  C   UNL     1      -4.677  12.016  18.980  0.00  0.00    +0.000 A 
ATOM     17  C   UNL     1      -5.448  10.991  18.365  0.00  0.00    +0.000 A 
ATOM     18  C   UNL     1      -4.855   9.933  17.698  0.00  0.00    +0.000 A 
ATOM     19  C   UNL     1      -3.462   9.880  17.642  0.00  0.00    +0.000 A 
ATOM     20  C   UNL     1      -2.672  10.861  18.258  0.00  0.00    +0.000 A 
ATOM     21  C   UNL     1      -3.249  11.950  18.935  0.00  0.00    +0.000 A 
ENDBRANCH   1  21
BRANCH  13  22
ATOM     22  C   UNL     1       1.370  11.000  19.435  0.00  0.00    +0.000 A 
ATOM     23  C   UNL     1       1.804  10.777  18.140  0.00  0.00    +0.000 A 
ATOM     24  C   UNL     1       2.040   9.462  17.728  0.00  0.00    +0.000 A 
ATOM     25  C   UNL     1       1.835   8.383  18.596  0.00  0.00    +0.000 A 
ATOM     26  C   UNL     1       1.322   8.595  19.869  0.00  0.00    +0.000 A 
ATOM     27  C   UNL     1       1.134   9.889  20.297  0.00  0.00    +0.000 A 
BRANCH  25  28
ATOM     28  O   UNL     1       2.122   7.137  18.093  0.00  0.00    +0.000 OA
BRANCH  28  29
ATOM     29  C   UNL     1       3.405   6.659  18.179  0.00  0.00    +0.000 A 
ATOM     30  C   UNL     1       3.657   5.786  19.232  0.00  0.00    +0.000 A 
ATOM     31  C   UNL     1       4.925   5.229  19.387  0.00  0.00    +0.000 A 
ATOM     32  C   UNL     1       5.947   5.556  18.493  0.00  0.00    +0.000 A 
ATOM     33  C   UNL     1       5.698   6.425  17.432  0.00  0.00    +0.000 A 
ATOM     34  C   UNL     1       4.423   6.959  17.257  0.00  0.00    +0.000 A 
ENDBRANCH  28  29
ENDBRANCH  25  28
ENDBRANCH  13  22
TORSDOF 4
ENDMDL
MODEL 9
REMARK VINA RESULT:      -7.6      4.859      9.343
REMARK  Name = 
REMARK  7 active torsions:
REMARK  status: ('A' for Active; 'I' for Inactive)
REMARK    1  A    between atoms: C_1  and  C_2
REMARK    2  A    between atoms: C_7  and  N_8
REMARK    3  A    between atoms: C_10  and  C_11
REMARK    4  A    between atoms: C_17  and  C_18
REMARK    5  A    between atoms: C_20  and  C_21
REMARK    6  A    between atoms: C_24  and  O_25
REMARK    7  A    between atoms: O_25  and  C_26
REMARK                            x       y       z     vdW  Elec       q    Type
REMARK                         _______ _______ _______ _____ _____    ______ ____
ROOT
ATOM      1  N   UNL     1      -2.642  13.342  20.085  0.00  0.00    +0.000 N 
ATOM      2  N   UNL     1      -2.614  13.539  21.432  0.00  0.00    +0.000 NA
ATOM      3  C   UNL     1      -1.313  13.329  21.723  0.00  0.00    +0.000 A 
ATOM      4  C   UNL     1      -0.804  13.789  23.045  0.00  0.00    +0.000 C 
ATOM      5  C   UNL     1      -0.574  12.994  20.536  0.00  0.00    +0.000 A 
ATOM      6  C   UNL     1      -1.327  13.740  19.662  0.00  0.00    +0.000 A 
ATOM      7  N   UNL     1      -0.764  14.944  19.148  0.00  0.00    +0.000 N 
ATOM      8  C   UNL     1       0.617  15.569  19.283  0.00  0.00    +0.000 C 
ATOM      9  O   UNL     1       0.661  16.626  18.651  0.00  0.00    +0.000 OA
ATOM     10  C   UNL     1       1.997  15.035  19.910  0.00  0.00    +0.000 C 
ATOM     11  C   UNL     1       2.934  16.099  20.503  0.00  0.00    +0.000 C 
ATOM     12  S   UNL     1       1.957  13.674  21.119  0.00  0.00    +0.000 S 
ATOM     13  C   UNL     1       0.823  12.747  20.201  0.00  0.00    +0.000 C 
ATOM     14  H   UNL     1      -1.412  15.586  18.696  0.00  0.00    +0.000 HD
ENDROOT
BRANCH   1  21
ATOM     15  C   UNL     1      -1.923  11.438  17.684  0.00  0.00    +0.000 C 
ATOM     16  C   UNL     1      -3.271  11.572  18.357  0.00  0.00    +0.000 A 
ATOM     17  C   UNL     1      -4.287  10.761  17.779  0.00  0.00    +0.000 A 
ATOM     18  C   UNL     1      -5.577  10.739  18.281  0.00  0.00    +0.000 A 
ATOM     19  C   UNL     1      -5.875  11.543  19.381  0.00  0.00    +0.000 A 
ATOM     20  C   UNL     1      -4.904  12.373  19.961  0.00  0.00    +0.000 A 
ATOM     21  C   UNL     1      -3.585  12.409  19.474  0.00  0.00    +0.000 A 
ENDBRANCH   1  21
BRANCH  13  22
ATOM     22  C   UNL     1       1.045  11.394  19.620  0.00  0.00    +0.000 A 
ATOM     23  C   UNL     1       0.608  10.224  20.215  0.00  0.00    +0.000 A 
ATOM     24  C   UNL     1       0.872   9.008  19.577  0.00  0.00    +0.000 A 
ATOM     25  C   UNL     1       1.573   8.962  18.365  0.00  0.00    +0.000 A 
ATOM     26  C   UNL     1       2.083  10.126  17.807  0.00  0.00    +0.000 A 
ATOM     27  C   UNL     1       1.786  11.330  18.404  0.00  0.00    +0.000 A 
BRANCH  25  28
ATOM     28  O   UNL     1       1.754   7.716  17.816  0.00  0.00    +0.000 OA
BRANCH  28  29
ATOM     29  C   UNL     1       2.843   6.970  18.192  0.00  0.00    +0.000 A 
ATOM     30  C   UNL     1       3.967   7.087  17.380  0.00  0.00    +0.000 A 
ATOM     31  C   UNL     1       5.130   6.387  17.695  0.00  0.00    +0.000 A 
ATOM     32  C   UNL     1       5.164   5.558  18.819  0.00  0.00    +0.000 A 
ATOM     33  C   UNL     1       4.043   5.442  19.639  0.00  0.00    +0.000 A 
ATOM     34  C   UNL     1       2.889   6.165  19.344  0.00  0.00    +0.000 A 
ENDBRANCH  28  29
ENDBRANCH  25  28
ENDBRANCH  13  22
TORSDOF 4
ENDMDL
