MODEL 1
REMARK VINA RESULT:      -5.5      0.000      0.000
REMARK  Name = 
REMARK  1 active torsions:
REMARK  status: ('A' for Active; 'I' for Inactive)
REMARK    1  A    between atoms: C_3  and  C_4
REMARK                            x       y       z     vdW  Elec       q    Type
REMARK                         _______ _______ _______ _____ _____    ______ ____
ROOT
ATOM      1  C   UNL     1       2.401   2.360  17.857  0.00  0.00    +0.000 A 
ATOM      2  C   UNL     1       3.754   2.602  17.698  0.00  0.00    +0.000 A 
ATOM      3  C   UNL     1       4.186   3.926  17.585  0.00  0.00    +0.000 A 
ATOM      4  C   UNL     1       3.235   4.948  17.642  0.00  0.00    +0.000 A 
ATOM      5  C   UNL     1       1.904   4.604  17.801  0.00  0.00    +0.000 A 
ATOM      6  N   UNL     1       1.467   3.333  17.911  0.00  0.00    +0.000 NA
ENDROOT
BRANCH   3   7
ATOM      7  C   UNL     1       5.600   4.226  17.405  0.00  0.00    +0.000 A 
ATOM      8  N   UNL     1       6.437   4.496  18.469  0.00  0.00    +0.000 NA
ATOM      9  C   UNL     1       7.587   4.687  17.875  0.00  0.00    +0.000 A 
ATOM     10  O   UNL     1       7.538   4.562  16.527  0.00  0.00    +0.000 OA
ATOM     11  N   UNL     1       6.216   4.256  16.209  0.00  0.00    +0.000 NA
ENDBRANCH   3   7
TORSDOF 1
ENDMDL
MODEL 2
REMARK VINA RESULT:      -5.4      2.689      3.800
REMARK  Name = 
REMARK  1 active torsions:
REMARK  status: ('A' for Active; 'I' for Inactive)
REMARK    1  A    between atoms: C_3  and  C_4
REMARK                            x       y       z     vdW  Elec       q    Type
REMARK                         _______ _______ _______ _____ _____    ______ ____
ROOT
ATOM      1  C   UNL     1       5.145   4.656  18.911  0.00  0.00    +0.000 A 
ATOM      2  C   UNL     1       5.309   4.513  17.544  0.00  0.00    +0.000 A 
ATOM      3  C   UNL     1       6.524   4.901  16.973  0.00  0.00    +0.000 A 
ATOM      4  C   UNL     1       7.522   5.414  17.806  0.00  0.00    +0.000 A 
ATOM      5  C   UNL     1       7.261   5.521  19.162  0.00  0.00    +0.000 A 
ATOM      6  N   UNL     1       6.095   5.152  19.731  0.00  0.00    +0.000 NA
ENDROOT
BRANCH   3   7
ATOM      7  C   UNL     1       6.735   4.777  15.538  0.00  0.00    +0.000 A 
ATOM      8  N   UNL     1       6.078   3.833  14.775  0.00  0.00    +0.000 NA
ATOM      9  C   UNL     1       6.537   4.078  13.575  0.00  0.00    +0.000 A 
ATOM     10  O   UNL     1       7.430   5.095  13.523  0.00  0.00    +0.000 OA
ATOM     11  N   UNL     1       7.566   5.563  14.829  0.00  0.00    +0.000 NA
ENDBRANCH   3   7
TORSDOF 1
ENDMDL
MODEL 3
REMARK VINA RESULT:      -5.3      2.293      4.517
REMARK  Name = 
REMARK  1 active torsions:
REMARK  status: ('A' for Active; 'I' for Inactive)
REMARK    1  A    between atoms: C_3  and  C_4
REMARK                            x       y       z     vdW  Elec       q    Type
REMARK                         _______ _______ _______ _____ _____    ______ ____
ROOT
ATOM      1  C   UNL     1       6.803   4.402  15.453  0.00  0.00    +0.000 A 
ATOM      2  C   UNL     1       5.456   4.222  15.711  0.00  0.00    +0.000 A 
ATOM      3  C   UNL     1       5.020   4.253  17.039  0.00  0.00    +0.000 A 
ATOM      4  C   UNL     1       5.963   4.468  18.048  0.00  0.00    +0.000 A 
ATOM      5  C   UNL     1       7.289   4.635  17.689  0.00  0.00    +0.000 A 
ATOM      6  N   UNL     1       7.729   4.608  16.414  0.00  0.00    +0.000 NA
ENDROOT
BRANCH   3   7
ATOM      7  C   UNL     1       3.613   4.058  17.357  0.00  0.00    +0.000 A 
ATOM      8  N   UNL     1       2.796   5.098  17.757  0.00  0.00    +0.000 NA
ATOM      9  C   UNL     1       1.644   4.499  17.916  0.00  0.00    +0.000 A 
ATOM     10  O   UNL     1       1.672   3.170  17.654  0.00  0.00    +0.000 OA
ATOM     11  N   UNL     1       2.982   2.872  17.282  0.00  0.00    +0.000 NA
ENDBRANCH   3   7
TORSDOF 1
ENDMDL
MODEL 4
REMARK VINA RESULT:      -5.3      2.691      3.842
REMARK  Name = 
REMARK  1 active torsions:
REMARK  status: ('A' for Active; 'I' for Inactive)
REMARK    1  A    between atoms: C_3  and  C_4
REMARK                            x       y       z     vdW  Elec       q    Type
REMARK                         _______ _______ _______ _____ _____    ______ ____
ROOT
ATOM      1  C   UNL     1       7.389   5.258  19.211  0.00  0.00    +0.000 A 
ATOM      2  C   UNL     1       7.609   5.207  17.846  0.00  0.00    +0.000 A 
ATOM      3  C   UNL     1       6.564   4.791  17.017  0.00  0.00    +0.000 A 
ATOM      4  C   UNL     1       5.341   4.448  17.601  0.00  0.00    +0.000 A 
ATOM      5  C   UNL     1       5.220   4.531  18.978  0.00  0.00    +0.000 A 
ATOM      6  N   UNL     1       6.217   4.929  19.795  0.00  0.00    +0.000 NA
ENDROOT
BRANCH   3   7
ATOM      7  C   UNL     1       6.755   4.711  15.576  0.00  0.00    +0.000 A 
ATOM      8  N   UNL     1       6.131   3.753  14.801  0.00  0.00    +0.000 NA
ATOM      9  C   UNL     1       6.555   4.050  13.600  0.00  0.00    +0.000 A 
ATOM     10  O   UNL     1       7.395   5.111  13.558  0.00  0.00    +0.000 OA
ATOM     11  N   UNL     1       7.533   5.554  14.872  0.00  0.00    +0.000 NA
ENDBRANCH   3   7
TORSDOF 1
ENDMDL
MODEL 5
REMARK VINA RESULT:      -5.3      2.006      2.901
REMARK  Name = 
REMARK  1 active torsions:
REMARK  status: ('A' for Active; 'I' for Inactive)
REMARK    1  A    between atoms: C_3  and  C_4
REMARK                            x       y       z     vdW  Elec       q    Type
REMARK                         _______ _______ _______ _____ _____    ______ ____
ROOT
ATOM      1  C   UNL     1       5.175   4.895  19.296  0.00  0.00    +0.000 A 
ATOM      2  C   UNL     1       5.940   5.125  18.166  0.00  0.00    +0.000 A 
ATOM      3  C   UNL     1       5.540   4.545  16.959  0.00  0.00    +0.000 A 
ATOM      4  C   UNL     1       4.383   3.761  16.945  0.00  0.00    +0.000 A 
ATOM      5  C   UNL     1       3.686   3.588  18.128  0.00  0.00    +0.000 A 
ATOM      6  N   UNL     1       4.057   4.139  19.302  0.00  0.00    +0.000 NA
ENDROOT
BRANCH   3   7
ATOM      7  C   UNL     1       6.321   4.753  15.748  0.00  0.00    +0.000 A 
ATOM      8  N   UNL     1       6.024   4.111  14.562  0.00  0.00    +0.000 NA
ATOM      9  C   UNL     1       6.938   4.586  13.755  0.00  0.00    +0.000 A 
ATOM     10  O   UNL     1       7.784   5.469  14.338  0.00  0.00    +0.000 OA
ATOM     11  N   UNL     1       7.377   5.581  15.667  0.00  0.00    +0.000 NA
ENDBRANCH   3   7
TORSDOF 1
ENDMDL
MODEL 6
REMARK VINA RESULT:      -5.3      2.023      2.796
REMARK  Name = 
REMARK  1 active torsions:
REMARK  status: ('A' for Active; 'I' for Inactive)
REMARK    1  A    between atoms: C_3  and  C_4
REMARK                            x       y       z     vdW  Elec       q    Type
REMARK                         _______ _______ _______ _____ _____    ______ ____
ROOT
ATOM      1  C   UNL     1       3.435   3.945  17.924  0.00  0.00    +0.000 A 
ATOM      2  C   UNL     1       4.169   4.120  16.764  0.00  0.00    +0.000 A 
ATOM      3  C   UNL     1       5.503   4.522  16.871  0.00  0.00    +0.000 A 
ATOM      4  C   UNL     1       6.040   4.726  18.146  0.00  0.00    +0.000 A 
ATOM      5  C   UNL     1       5.224   4.526  19.246  0.00  0.00    +0.000 A 
ATOM      6  N   UNL     1       3.935   4.140  19.163  0.00  0.00    +0.000 NA
ENDROOT
BRANCH   3   7
ATOM      7  C   UNL     1       6.308   4.729  15.676  0.00  0.00    +0.000 A 
ATOM      8  N   UNL     1       6.080   4.034  14.504  0.00  0.00    +0.000 NA
ATOM      9  C   UNL     1       6.993   4.528  13.708  0.00  0.00    +0.000 A 
ATOM     10  O   UNL     1       7.776   5.471  14.285  0.00  0.00    +0.000 OA
ATOM     11  N   UNL     1       7.324   5.607  15.596  0.00  0.00    +0.000 NA
ENDBRANCH   3   7
TORSDOF 1
ENDMDL
MODEL 7
REMARK VINA RESULT:      -5.2      0.920      1.338
REMARK  Name = 
REMARK  1 active torsions:
REMARK  status: ('A' for Active; 'I' for Inactive)
REMARK    1  A    between atoms: C_3  and  C_4
REMARK                            x       y       z     vdW  Elec       q    Type
REMARK                         _______ _______ _______ _____ _____    ______ ____
ROOT
ATOM      1  C   UNL     1       2.312   2.368  18.978  0.00  0.00    +0.000 A 
ATOM      2  C   UNL     1       3.658   2.666  18.869  0.00  0.00    +0.000 A 
ATOM      3  C   UNL     1       4.032   3.824  18.181  0.00  0.00    +0.000 A 
ATOM      4  C   UNL     1       3.030   4.632  17.636  0.00  0.00    +0.000 A 
ATOM      5  C   UNL     1       1.710   4.248  17.797  0.00  0.00    +0.000 A 
ATOM      6  N   UNL     1       1.330   3.135  18.457  0.00  0.00    +0.000 NA
ENDROOT
BRANCH   3   7
ATOM      7  C   UNL     1       5.439   4.170  18.032  0.00  0.00    +0.000 A 
ATOM      8  N   UNL     1       6.024   4.359  16.796  0.00  0.00    +0.000 NA
ATOM      9  C   UNL     1       7.255   4.663  17.117  0.00  0.00    +0.000 A 
ATOM     10  O   UNL     1       7.490   4.677  18.451  0.00  0.00    +0.000 OA
ATOM     11  N   UNL     1       6.283   4.348  19.065  0.00  0.00    +0.000 NA
ENDBRANCH   3   7
TORSDOF 1
ENDMDL
MODEL 8
REMARK VINA RESULT:      -5.1      2.406      2.782
REMARK  Name = 
REMARK  1 active torsions:
REMARK  status: ('A' for Active; 'I' for Inactive)
REMARK    1  A    between atoms: C_3  and  C_4
REMARK                            x       y       z     vdW  Elec       q    Type
REMARK                         _______ _______ _______ _____ _____    ______ ____
ROOT
ATOM      1  C   UNL     1       4.735   4.537  19.337  0.00  0.00    +0.000 A 
ATOM      2  C   UNL     1       5.535   4.403  18.216  0.00  0.00    +0.000 A 
ATOM      3  C   UNL     1       5.338   5.281  17.147  0.00  0.00    +0.000 A 
ATOM      4  C   UNL     1       4.345   6.259  17.257  0.00  0.00    +0.000 A 
ATOM      5  C   UNL     1       3.595   6.311  18.420  0.00  0.00    +0.000 A 
ATOM      6  N   UNL     1       3.770   5.472  19.462  0.00  0.00    +0.000 NA
ENDROOT
BRANCH   3   7
ATOM      7  C   UNL     1       6.149   5.169  15.943  0.00  0.00    +0.000 A 
ATOM      8  N   UNL     1       5.756   4.413  14.857  0.00  0.00    +0.000 NA
ATOM      9  C   UNL     1       6.741   4.601  14.017  0.00  0.00    +0.000 A 
ATOM     10  O   UNL     1       7.720   5.410  14.488  0.00  0.00    +0.000 OA
ATOM     11  N   UNL     1       7.331   5.790  15.772  0.00  0.00    +0.000 NA
ENDBRANCH   3   7
TORSDOF 1
ENDMDL
MODEL 9
REMARK VINA RESULT:      -5.1      2.345      3.016
REMARK  Name = 
REMARK  1 active torsions:
REMARK  status: ('A' for Active; 'I' for Inactive)
REMARK    1  A    between atoms: C_3  and  C_4
REMARK                            x       y       z     vdW  Elec       q    Type
REMARK                         _______ _______ _______ _____ _____    ______ ____
ROOT
ATOM      1  C   UNL     1       3.529   6.345  18.401  0.00  0.00    +0.000 A 
ATOM      2  C   UNL     1       4.312   6.279  17.262  0.00  0.00    +0.000 A 
ATOM      3  C   UNL     1       5.246   5.246  17.153  0.00  0.00    +0.000 A 
ATOM      4  C   UNL     1       5.347   4.322  18.197  0.00  0.00    +0.000 A 
ATOM      5  C   UNL     1       4.521   4.474  19.297  0.00  0.00    +0.000 A 
ATOM      6  N   UNL     1       3.614   5.465  19.421  0.00  0.00    +0.000 NA
ENDROOT
BRANCH   3   7
ATOM      7  C   UNL     1       6.098   5.144  15.976  0.00  0.00    +0.000 A 
ATOM      8  N   UNL     1       5.746   4.388  14.876  0.00  0.00    +0.000 NA
ATOM      9  C   UNL     1       6.757   4.587  14.069  0.00  0.00    +0.000 A 
ATOM     10  O   UNL     1       7.714   5.402  14.575  0.00  0.00    +0.000 OA
ATOM     11  N   UNL     1       7.279   5.775  15.846  0.00  0.00    +0.000 NA
ENDBRANCH   3   7
TORSDOF 1
ENDMDL
