MODEL 1
REMARK VINA RESULT:      -8.0      0.000      0.000
REMARK  Name = 
REMARK  5 active torsions:
REMARK  status: ('A' for Active; 'I' for Inactive)
REMARK    1  A    between atoms: C_1  and  C_2
REMARK    2  A    between atoms: C_2  and  C_3
REMARK    3  A    between atoms: C_3  and  N_4
REMARK    4  A    between atoms: C_11  and  C_12
REMARK    5  A    between atoms: C_12  and  C_13
REMARK                            x       y       z     vdW  Elec       q    Type
REMARK                         _______ _______ _______ _____ _____    ______ ____
ROOT
ATOM      1  N   UNL     1       4.488   3.843  19.046  0.00  0.00    +0.000 N 
ATOM      2  C   UNL     1       4.100   5.211  18.925  0.00  0.00    +0.000 C 
ATOM      3  N   UNL     1       4.835   6.015  18.243  0.00  0.00    +0.000 NA
ATOM      4  N   UNL     1       2.953   5.707  19.622  0.00  0.00    +0.000 N 
ATOM      5  C   UNL     1       2.412   7.006  19.411  0.00  0.00    +0.000 A 
ATOM      6  C   UNL     1       1.654   7.621  20.415  0.00  0.00    +0.000 A 
ATOM      7  C   UNL     1       1.128   8.896  20.197  0.00  0.00    +0.000 A 
ATOM      8  C   UNL     1       1.329   9.538  18.967  0.00  0.00    +0.000 A 
ATOM      9  C   UNL     1       2.083   8.882  17.983  0.00  0.00    +0.000 A 
ATOM     10  N   UNL     1       2.608   7.654  18.229  0.00  0.00    +0.000 NA
ATOM     11  H   UNL     1       5.456   3.574  18.812  0.00  0.00    +0.000 HD
ATOM     12  H   UNL     1       5.681   5.688  17.753  0.00  0.00    +0.000 HD
ATOM     13  H   UNL     1       2.565   5.142  20.390  0.00  0.00    +0.000 HD
ENDROOT
BRANCH   1  14
ATOM     14  C   UNL     1       3.539   2.778  19.293  0.00  0.00    +0.000 C 
BRANCH  14  16
ATOM     15  C   UNL     1       2.076   2.700  21.361  0.00  0.00    +0.000 C 
ATOM     16  C   UNL     1       3.484   2.472  20.799  0.00  0.00    +0.000 C 
ENDBRANCH  14  16
ENDBRANCH   1  14
BRANCH   8  17
ATOM     17  C   UNL     1       0.763  10.908  18.704  0.00  0.00    +0.000 C 
BRANCH  17  18
ATOM     18  C   UNL     1      -0.712  10.856  18.399  0.00  0.00    +0.000 A 
ATOM     19  C   UNL     1      -1.228   9.922  17.487  0.00  0.00    +0.000 A 
ATOM     20  C   UNL     1      -2.594   9.913  17.187  0.00  0.00    +0.000 A 
ATOM     21  C   UNL     1      -3.442  10.844  17.804  0.00  0.00    +0.000 A 
ATOM     22  N   UNL     1      -4.831  10.881  17.473  0.00  0.00    +0.000 N 
ATOM     23  C   UNL     1      -5.737  11.843  18.010  0.00  0.00    +0.000 C 
ATOM     24  N   UNL     1      -5.417  12.703  18.898  0.00  0.00    +0.000 NA
ATOM     25  C   UNL     1      -6.546  13.542  19.219  0.00  0.00    +0.000 C 
ATOM     26  C   UNL     1      -7.633  13.126  18.210  0.00  0.00    +0.000 C 
ATOM     27  N   UNL     1      -7.062  11.974  17.571  0.00  0.00    +0.000 N 
ATOM     28  N   UNL     1      -2.918  11.733  18.692  0.00  0.00    +0.000 NA
ATOM     29  C   UNL     1      -1.598  11.759  19.003  0.00  0.00    +0.000 A 
ATOM     30  H   UNL     1      -5.193  10.219  16.772  0.00  0.00    +0.000 HD
ATOM     31  H   UNL     1      -7.505  11.419  16.825  0.00  0.00    +0.000 HD
ENDBRANCH  17  18
ENDBRANCH   8  17
TORSDOF 4
ENDMDL
MODEL 2
REMARK VINA RESULT:      -7.7      3.574     10.482
REMARK  Name = 
REMARK  5 active torsions:
REMARK  status: ('A' for Active; 'I' for Inactive)
REMARK    1  A    between atoms: C_1  and  C_2
REMARK    2  A    between atoms: C_2  and  C_3
REMARK    3  A    between atoms: C_3  and  N_4
REMARK    4  A    between atoms: C_11  and  C_12
REMARK    5  A    between atoms: C_12  and  C_13
REMARK                            x       y       z     vdW  Elec       q    Type
REMARK                         _______ _______ _______ _____ _____    ______ ____
ROOT
ATOM      1  N   UNL     1      -0.711  12.409  20.517  0.00  0.00    +0.000 N 
ATOM      2  C   UNL     1       0.187  11.300  20.530  0.00  0.00    +0.000 C 
ATOM      3  N   UNL     1       0.882  11.067  21.586  0.00  0.00    +0.000 NA
ATOM      4  N   UNL     1       0.378  10.503  19.358  0.00  0.00    +0.000 N 
ATOM      5  C   UNL     1       1.118   9.287  19.351  0.00  0.00    +0.000 A 
ATOM      6  C   UNL     1       1.693   8.824  18.161  0.00  0.00    +0.000 A 
ATOM      7  C   UNL     1       2.418   7.631  18.167  0.00  0.00    +0.000 A 
ATOM      8  C   UNL     1       2.536   6.886  19.349  0.00  0.00    +0.000 A 
ATOM      9  C   UNL     1       1.934   7.378  20.515  0.00  0.00    +0.000 A 
ATOM     10  N   UNL     1       1.259   8.556  20.491  0.00  0.00    +0.000 NA
ATOM     11  H   UNL     1      -0.610  13.145  21.233  0.00  0.00    +0.000 HD
ATOM     12  H   UNL     1       0.783  11.643  22.435  0.00  0.00    +0.000 HD
ATOM     13  H   UNL     1       0.058  10.878  18.454  0.00  0.00    +0.000 HD
ENDROOT
BRANCH   1  14
ATOM     14  C   UNL     1      -1.883  12.459  19.668  0.00  0.00    +0.000 C 
BRANCH  14  16
ATOM     15  C   UNL     1      -4.413  12.542  19.795  0.00  0.00    +0.000 C 
ATOM     16  C   UNL     1      -3.099  12.919  20.489  0.00  0.00    +0.000 C 
ENDBRANCH  14  16
ENDBRANCH   1  14
BRANCH   8  17
ATOM     17  C   UNL     1       3.304   5.591  19.378  0.00  0.00    +0.000 C 
BRANCH  17  18
ATOM     18  C   UNL     1       4.348   5.535  18.291  0.00  0.00    +0.000 A 
ATOM     19  C   UNL     1       5.529   6.287  18.386  0.00  0.00    +0.000 A 
ATOM     20  C   UNL     1       6.468   6.254  17.350  0.00  0.00    +0.000 A 
ATOM     21  C   UNL     1       6.220   5.464  16.219  0.00  0.00    +0.000 A 
ATOM     22  N   UNL     1       7.145   5.455  15.131  0.00  0.00    +0.000 N 
ATOM     23  C   UNL     1       6.925   4.730  13.923  0.00  0.00    +0.000 C 
ATOM     24  N   UNL     1       5.929   3.953  13.732  0.00  0.00    +0.000 NA
ATOM     25  C   UNL     1       5.981   3.382  12.408  0.00  0.00    +0.000 C 
ATOM     26  C   UNL     1       7.162   4.099  11.726  0.00  0.00    +0.000 C 
ATOM     27  N   UNL     1       7.758   4.842  12.800  0.00  0.00    +0.000 N 
ATOM     28  N   UNL     1       5.071   4.737  16.156  0.00  0.00    +0.000 NA
ATOM     29  C   UNL     1       4.147   4.749  17.148  0.00  0.00    +0.000 A 
ATOM     30  H   UNL     1       7.990   6.043  15.192  0.00  0.00    +0.000 HD
ATOM     31  H   UNL     1       8.582   5.455  12.723  0.00  0.00    +0.000 HD
ENDBRANCH  17  18
ENDBRANCH   8  17
TORSDOF 4
ENDMDL
MODEL 3
REMARK VINA RESULT:      -7.6      1.302      2.185
REMARK  Name = 
REMARK  5 active torsions:
REMARK  status: ('A' for Active; 'I' for Inactive)
REMARK    1  A    between atoms: C_1  and  C_2
REMARK    2  A    between atoms: C_2  and  C_3
REMARK    3  A    between atoms: C_3  and  N_4
REMARK    4  A    between atoms: C_11  and  C_12
REMARK    5  A    between atoms: C_12  and  C_13
REMARK                            x       y       z     vdW  Elec       q    Type
REMARK                         _______ _______ _______ _____ _____    ______ ____
ROOT
ATOM      1  N   UNL     1       3.884   3.864  18.530  0.00  0.00    +0.000 N 
ATOM      2  C   UNL     1       3.017   4.968  18.789  0.00  0.00    +0.000 C 
ATOM      3  N   UNL     1       1.967   4.787  19.508  0.00  0.00    +0.000 NA
ATOM      4  N   UNL     1       3.263   6.243  18.190  0.00  0.00    +0.000 N 
ATOM      5  C   UNL     1       2.547   7.422  18.539  0.00  0.00    +0.000 A 
ATOM      6  C   UNL     1       2.453   8.481  17.628  0.00  0.00    +0.000 A 
ATOM      7  C   UNL     1       1.747   9.632  17.982  0.00  0.00    +0.000 A 
ATOM      8  C   UNL     1       1.168   9.739  19.255  0.00  0.00    +0.000 A 
ATOM      9  C   UNL     1       1.296   8.661  20.142  0.00  0.00    +0.000 A 
ATOM     10  N   UNL     1       1.964   7.540  19.765  0.00  0.00    +0.000 NA
ATOM     11  H   UNL     1       3.540   2.906  18.697  0.00  0.00    +0.000 HD
ATOM     12  H   UNL     1       1.753   3.871  19.929  0.00  0.00    +0.000 HD
ATOM     13  H   UNL     1       3.912   6.292  17.392  0.00  0.00    +0.000 HD
ENDROOT
BRANCH   1  14
ATOM     14  C   UNL     1       5.291   4.026  18.230  0.00  0.00    +0.000 C 
BRANCH  14  16
ATOM     15  C   UNL     1       6.560   5.029  16.278  0.00  0.00    +0.000 C 
ATOM     16  C   UNL     1       5.502   4.005  16.707  0.00  0.00    +0.000 C 
ENDBRANCH  14  16
ENDBRANCH   1  14
BRANCH   8  17
ATOM     17  C   UNL     1       0.411  10.974  19.663  0.00  0.00    +0.000 C 
BRANCH  17  18
ATOM     18  C   UNL     1      -0.978  10.998  19.078  0.00  0.00    +0.000 A 
ATOM     19  C   UNL     1      -1.311  10.196  17.976  0.00  0.00    +0.000 A 
ATOM     20  C   UNL     1      -2.593  10.260  17.422  0.00  0.00    +0.000 A 
ATOM     21  C   UNL     1      -3.542  11.132  17.975  0.00  0.00    +0.000 A 
ATOM     22  N   UNL     1      -4.841  11.246  17.392  0.00  0.00    +0.000 N 
ATOM     23  C   UNL     1      -5.831  12.160  17.860  0.00  0.00    +0.000 C 
ATOM     24  N   UNL     1      -5.685  12.897  18.893  0.00  0.00    +0.000 NA
ATOM     25  C   UNL     1      -6.853  13.721  19.094  0.00  0.00    +0.000 C 
ATOM     26  C   UNL     1      -7.726  13.459  17.852  0.00  0.00    +0.000 C 
ATOM     27  N   UNL     1      -7.046  12.377  17.196  0.00  0.00    +0.000 N 
ATOM     28  N   UNL     1      -3.196  11.892  19.050  0.00  0.00    +0.000 NA
ATOM     29  C   UNL     1      -1.961  11.846  19.608  0.00  0.00    +0.000 A 
ATOM     30  H   UNL     1      -5.062  10.683  16.558  0.00  0.00    +0.000 HD
ATOM     31  H   UNL     1      -7.338  11.929  16.316  0.00  0.00    +0.000 HD
ENDBRANCH  17  18
ENDBRANCH   8  17
TORSDOF 4
ENDMDL
MODEL 4
REMARK VINA RESULT:      -7.6      3.649      5.687
REMARK  Name = 
REMARK  5 active torsions:
REMARK  status: ('A' for Active; 'I' for Inactive)
REMARK    1  A    between atoms: C_1  and  C_2
REMARK    2  A    between atoms: C_2  and  C_3
REMARK    3  A    between atoms: C_3  and  N_4
REMARK    4  A    between atoms: C_11  and  C_12
REMARK    5  A    between atoms: C_12  and  C_13
REMARK                            x       y       z     vdW  Elec       q    Type
REMARK                         _______ _______ _______ _____ _____    ______ ____
ROOT
ATOM      1  N   UNL     1       6.746   3.673  12.921  0.00  0.00    +0.000 N 
ATOM      2  C   UNL     1       6.403   4.279  14.167  0.00  0.00    +0.000 C 
ATOM      3  N   UNL     1       7.084   5.287  14.584  0.00  0.00    +0.000 NA
ATOM      4  N   UNL     1       5.372   3.725  14.988  0.00  0.00    +0.000 N 
ATOM      5  C   UNL     1       4.863   4.371  16.149  0.00  0.00    +0.000 A 
ATOM      6  C   UNL     1       4.258   3.618  17.162  0.00  0.00    +0.000 A 
ATOM      7  C   UNL     1       3.764   4.264  18.297  0.00  0.00    +0.000 A 
ATOM      8  C   UNL     1       3.842   5.660  18.401  0.00  0.00    +0.000 A 
ATOM      9  C   UNL     1       4.443   6.378  17.359  0.00  0.00    +0.000 A 
ATOM     10  N   UNL     1       4.943   5.725  16.277  0.00  0.00    +0.000 NA
ATOM     11  H   UNL     1       7.667   3.875  12.501  0.00  0.00    +0.000 HD
ATOM     12  H   UNL     1       7.851   5.689  14.024  0.00  0.00    +0.000 HD
ATOM     13  H   UNL     1       5.056   2.764  14.793  0.00  0.00    +0.000 HD
ENDROOT
BRANCH   1  14
ATOM     14  C   UNL     1       5.790   2.942  12.116  0.00  0.00    +0.000 C 
BRANCH  14  16
ATOM     15  C   UNL     1       3.796   3.407  10.622  0.00  0.00    +0.000 C 
ATOM     16  C   UNL     1       4.524   3.792  11.916  0.00  0.00    +0.000 C 
ENDBRANCH  14  16
ENDBRANCH   1  14
BRANCH   8  17
ATOM     17  C   UNL     1       3.307   6.380  19.611  0.00  0.00    +0.000 C 
BRANCH  17  18
ATOM     18  C   UNL     1       2.394   7.517  19.227  0.00  0.00    +0.000 A 
ATOM     19  C   UNL     1       2.294   7.944  17.894  0.00  0.00    +0.000 A 
ATOM     20  C   UNL     1       1.473   9.026  17.562  0.00  0.00    +0.000 A 
ATOM     21  C   UNL     1       0.750   9.679  18.570  0.00  0.00    +0.000 A 
ATOM     22  N   UNL     1      -0.057  10.815  18.257  0.00  0.00    +0.000 N 
ATOM     23  C   UNL     1      -0.763  11.568  19.241  0.00  0.00    +0.000 C 
ATOM     24  N   UNL     1      -0.815  11.250  20.477  0.00  0.00    +0.000 NA
ATOM     25  C   UNL     1      -1.590  12.217  21.215  0.00  0.00    +0.000 C 
ATOM     26  C   UNL     1      -1.896  13.327  20.190  0.00  0.00    +0.000 C 
ATOM     27  N   UNL     1      -1.429  12.767  18.953  0.00  0.00    +0.000 N 
ATOM     28  N   UNL     1       0.857   9.239  19.854  0.00  0.00    +0.000 NA
ATOM     29  C   UNL     1       1.644   8.190  20.201  0.00  0.00    +0.000 A 
ATOM     30  H   UNL     1      -0.090  11.147  17.282  0.00  0.00    +0.000 HD
ATOM     31  H   UNL     1      -1.463  13.230  18.033  0.00  0.00    +0.000 HD
ENDBRANCH  17  18
ENDBRANCH   8  17
TORSDOF 4
ENDMDL
MODEL 5
REMARK VINA RESULT:      -7.5      3.772      5.880
REMARK  Name = 
REMARK  5 active torsions:
REMARK  status: ('A' for Active; 'I' for Inactive)
REMARK    1  A    between atoms: C_1  and  C_2
REMARK    2  A    between atoms: C_2  and  C_3
REMARK    3  A    between atoms: C_3  and  N_4
REMARK    4  A    between atoms: C_11  and  C_12
REMARK    5  A    between atoms: C_12  and  C_13
REMARK                            x       y       z     vdW  Elec       q    Type
REMARK                         _______ _______ _______ _____ _____    ______ ____
ROOT
ATOM      1  N   UNL     1       7.135   4.035  13.361  0.00  0.00    +0.000 N 
ATOM      2  C   UNL     1       6.648   4.408  14.650  0.00  0.00    +0.000 C 
ATOM      3  N   UNL     1       7.447   4.976  15.482  0.00  0.00    +0.000 NA
ATOM      4  N   UNL     1       5.314   4.082  15.047  0.00  0.00    +0.000 N 
ATOM      5  C   UNL     1       4.711   4.572  16.240  0.00  0.00    +0.000 A 
ATOM      6  C   UNL     1       3.657   3.867  16.833  0.00  0.00    +0.000 A 
ATOM      7  C   UNL     1       3.074   4.357  18.003  0.00  0.00    +0.000 A 
ATOM      8  C   UNL     1       3.521   5.566  18.558  0.00  0.00    +0.000 A 
ATOM      9  C   UNL     1       4.570   6.246  17.926  0.00  0.00    +0.000 A 
ATOM     10  N   UNL     1       5.140   5.735  16.804  0.00  0.00    +0.000 NA
ATOM     11  H   UNL     1       8.153   3.987  13.203  0.00  0.00    +0.000 HD
ATOM     12  H   UNL     1       8.421   5.197  15.229  0.00  0.00    +0.000 HD
ATOM     13  H   UNL     1       4.801   3.373  14.504  0.00  0.00    +0.000 HD
ENDROOT
BRANCH   1  14
ATOM     14  C   UNL     1       6.272   3.908  12.204  0.00  0.00    +0.000 C 
BRANCH  14  16
ATOM     15  C   UNL     1       7.148   1.806  11.091  0.00  0.00    +0.000 C 
ATOM     16  C   UNL     1       6.010   2.421  11.914  0.00  0.00    +0.000 C 
ENDBRANCH  14  16
ENDBRANCH   1  14
BRANCH   8  17
ATOM     17  C   UNL     1       2.901   6.120  19.813  0.00  0.00    +0.000 C 
BRANCH  17  18
ATOM     18  C   UNL     1       2.180   7.419  19.555  0.00  0.00    +0.000 A 
ATOM     19  C   UNL     1       2.157   7.990  18.274  0.00  0.00    +0.000 A 
ATOM     20  C   UNL     1       1.517   9.214  18.061  0.00  0.00    +0.000 A 
ATOM     21  C   UNL     1       0.899   9.866  19.137  0.00  0.00    +0.000 A 
ATOM     22  N   UNL     1       0.282  11.140  18.948  0.00  0.00    +0.000 N 
ATOM     23  C   UNL     1      -0.305  11.890  20.011  0.00  0.00    +0.000 C 
ATOM     24  N   UNL     1      -0.414  11.460  21.208  0.00  0.00    +0.000 NA
ATOM     25  C   UNL     1      -1.033  12.457  22.048  0.00  0.00    +0.000 C 
ATOM     26  C   UNL     1      -1.155  13.699  21.144  0.00  0.00    +0.000 C 
ATOM     27  N   UNL     1      -0.773  13.202  19.852  0.00  0.00    +0.000 N 
ATOM     28  N   UNL     1       0.927   9.286  20.368  0.00  0.00    +0.000 NA
ATOM     29  C   UNL     1       1.538   8.098  20.600  0.00  0.00    +0.000 A 
ATOM     30  H   UNL     1       0.307  11.571  18.012  0.00  0.00    +0.000 HD
ATOM     31  H   UNL     1      -0.729  13.755  18.985  0.00  0.00    +0.000 HD
ENDBRANCH  17  18
ENDBRANCH   8  17
TORSDOF 4
ENDMDL
MODEL 6
REMARK VINA RESULT:      -7.5      3.572     10.389
REMARK  Name = 
REMARK  5 active torsions:
REMARK  status: ('A' for Active; 'I' for Inactive)
REMARK    1  A    between atoms: C_1  and  C_2
REMARK    2  A    between atoms: C_2  and  C_3
REMARK    3  A    between atoms: C_3  and  N_4
REMARK    4  A    between atoms: C_11  and  C_12
REMARK    5  A    between atoms: C_12  and  C_13
REMARK                            x       y       z     vdW  Elec       q    Type
REMARK                         _______ _______ _______ _____ _____    ______ ____
ROOT
ATOM      1  N   UNL     1      -0.715  11.707  21.600  0.00  0.00    +0.000 N 
ATOM      2  C   UNL     1       0.147  10.577  21.473  0.00  0.00    +0.000 C 
ATOM      3  N   UNL     1       0.714  10.098  22.522  0.00  0.00    +0.000 NA
ATOM      4  N   UNL     1       0.448  10.031  20.185  0.00  0.00    +0.000 N 
ATOM      5  C   UNL     1       1.154   8.810  19.999  0.00  0.00    +0.000 A 
ATOM      6  C   UNL     1       1.846   8.576  18.805  0.00  0.00    +0.000 A 
ATOM      7  C   UNL     1       2.536   7.374  18.634  0.00  0.00    +0.000 A 
ATOM      8  C   UNL     1       2.502   6.396  19.638  0.00  0.00    +0.000 A 
ATOM      9  C   UNL     1       1.787   6.664  20.813  0.00  0.00    +0.000 A 
ATOM     10  N   UNL     1       1.148   7.853  20.968  0.00  0.00    +0.000 NA
ATOM     11  H   UNL     1      -0.676  12.273  22.461  0.00  0.00    +0.000 HD
ATOM     12  H   UNL     1       0.535  10.490  23.458  0.00  0.00    +0.000 HD
ATOM     13  H   UNL     1       0.241  10.601  19.352  0.00  0.00    +0.000 HD
ENDROOT
BRANCH   1  14
ATOM     14  C   UNL     1      -1.784  11.987  20.664  0.00  0.00    +0.000 C 
BRANCH  14  16
ATOM     15  C   UNL     1      -1.382  12.367  18.190  0.00  0.00    +0.000 C 
ATOM     16  C   UNL     1      -1.289  12.975  19.594  0.00  0.00    +0.000 C 
ENDBRANCH  14  16
ENDBRANCH   1  14
BRANCH   8  17
ATOM     17  C   UNL     1       3.230   5.087  19.473  0.00  0.00    +0.000 C 
BRANCH  17  18
ATOM     18  C   UNL     1       4.300   5.172  18.414  0.00  0.00    +0.000 A 
ATOM     19  C   UNL     1       5.438   5.971  18.601  0.00  0.00    +0.000 A 
ATOM     20  C   UNL     1       6.402   6.068  17.592  0.00  0.00    +0.000 A 
ATOM     21  C   UNL     1       6.221   5.363  16.394  0.00  0.00    +0.000 A 
ATOM     22  N   UNL     1       7.170   5.488  15.335  0.00  0.00    +0.000 N 
ATOM     23  C   UNL     1       7.015   4.855  14.066  0.00  0.00    +0.000 C 
ATOM     24  N   UNL     1       6.064   4.049  13.786  0.00  0.00    +0.000 NA
ATOM     25  C   UNL     1       6.176   3.592  12.422  0.00  0.00    +0.000 C 
ATOM     26  C   UNL     1       7.334   4.419  11.833  0.00  0.00    +0.000 C 
ATOM     27  N   UNL     1       7.867   5.099  12.980  0.00  0.00    +0.000 N 
ATOM     28  N   UNL     1       5.112   4.588  16.242  0.00  0.00    +0.000 NA
ATOM     29  C   UNL     1       4.165   4.474  17.206  0.00  0.00    +0.000 A 
ATOM     30  H   UNL     1       7.982   6.110  15.466  0.00  0.00    +0.000 HD
ATOM     31  H   UNL     1       8.660   5.756  12.975  0.00  0.00    +0.000 HD
ENDBRANCH  17  18
ENDBRANCH   8  17
TORSDOF 4
ENDMDL
MODEL 7
REMARK VINA RESULT:      -7.4      3.614     10.287
REMARK  Name = 
REMARK  5 active torsions:
REMARK  status: ('A' for Active; 'I' for Inactive)
REMARK    1  A    between atoms: C_1  and  C_2
REMARK    2  A    between atoms: C_2  and  C_3
REMARK    3  A    between atoms: C_3  and  N_4
REMARK    4  A    between atoms: C_11  and  C_12
REMARK    5  A    between atoms: C_12  and  C_13
REMARK                            x       y       z     vdW  Elec       q    Type
REMARK                         _______ _______ _______ _____ _____    ______ ____
ROOT
ATOM      1  N   UNL     1      -0.273  12.359  19.529  0.00  0.00    +0.000 N 
ATOM      2  C   UNL     1       0.145  11.020  19.265  0.00  0.00    +0.000 C 
ATOM      3  N   UNL     1       0.050  10.557  18.069  0.00  0.00    +0.000 NA
ATOM      4  N   UNL     1       0.584  10.170  20.328  0.00  0.00    +0.000 N 
ATOM      5  C   UNL     1       1.174   8.893  20.115  0.00  0.00    +0.000 A 
ATOM      6  C   UNL     1       1.122   7.921  21.122  0.00  0.00    +0.000 A 
ATOM      7  C   UNL     1       1.704   6.671  20.901  0.00  0.00    +0.000 A 
ATOM      8  C   UNL     1       2.366   6.407  19.693  0.00  0.00    +0.000 A 
ATOM      9  C   UNL     1       2.406   7.412  18.717  0.00  0.00    +0.000 A 
ATOM     10  N   UNL     1       1.808   8.610  18.944  0.00  0.00    +0.000 NA
ATOM     11  H   UNL     1      -0.868  12.845  18.841  0.00  0.00    +0.000 HD
ATOM     12  H   UNL     1      -0.289  11.141  17.290  0.00  0.00    +0.000 HD
ATOM     13  H   UNL     1       0.365  10.446  21.296  0.00  0.00    +0.000 HD
ENDROOT
BRANCH   1  14
ATOM     14  C   UNL     1       0.258  13.143  20.626  0.00  0.00    +0.000 C 
BRANCH  14  16
ATOM     15  C   UNL     1      -0.976  12.368  22.699  0.00  0.00    +0.000 C 
ATOM     16  C   UNL     1      -0.865  13.459  21.628  0.00  0.00    +0.000 C 
ENDBRANCH  14  16
ENDBRANCH   1  14
BRANCH   8  17
ATOM     17  C   UNL     1       3.010   5.071  19.436  0.00  0.00    +0.000 C 
BRANCH  17  18
ATOM     18  C   UNL     1       4.114   5.169  18.413  0.00  0.00    +0.000 A 
ATOM     19  C   UNL     1       5.236   5.981  18.638  0.00  0.00    +0.000 A 
ATOM     20  C   UNL     1       6.231   6.091  17.663  0.00  0.00    +0.000 A 
ATOM     21  C   UNL     1       6.099   5.384  16.459  0.00  0.00    +0.000 A 
ATOM     22  N   UNL     1       7.082   5.522  15.432  0.00  0.00    +0.000 N 
ATOM     23  C   UNL     1       6.977   4.887  14.159  0.00  0.00    +0.000 C 
ATOM     24  N   UNL     1       6.046   4.069  13.847  0.00  0.00    +0.000 NA
ATOM     25  C   UNL     1       6.208   3.615  12.488  0.00  0.00    +0.000 C 
ATOM     26  C   UNL     1       7.376   4.456  11.938  0.00  0.00    +0.000 C 
ATOM     27  N   UNL     1       7.861   5.142  13.102  0.00  0.00    +0.000 N 
ATOM     28  N   UNL     1       5.005   4.596  16.270  0.00  0.00    +0.000 NA
ATOM     29  C   UNL     1       4.029   4.469  17.202  0.00  0.00    +0.000 A 
ATOM     30  H   UNL     1       7.881   6.153  15.590  0.00  0.00    +0.000 HD
ATOM     31  H   UNL     1       8.646   5.809  13.123  0.00  0.00    +0.000 HD
ENDBRANCH  17  18
ENDBRANCH   8  17
TORSDOF 4
ENDMDL
MODEL 8
REMARK VINA RESULT:      -7.4      3.504     10.396
REMARK  Name = 
REMARK  5 active torsions:
REMARK  status: ('A' for Active; 'I' for Inactive)
REMARK    1  A    between atoms: C_1  and  C_2
REMARK    2  A    between atoms: C_2  and  C_3
REMARK    3  A    between atoms: C_3  and  N_4
REMARK    4  A    between atoms: C_11  and  C_12
REMARK    5  A    between atoms: C_12  and  C_13
REMARK                            x       y       z     vdW  Elec       q    Type
REMARK                         _______ _______ _______ _____ _____    ______ ____
ROOT
ATOM      1  N   UNL     1      -0.532  11.986  18.861  0.00  0.00    +0.000 N 
ATOM      2  C   UNL     1       0.009  10.670  18.751  0.00  0.00    +0.000 C 
ATOM      3  N   UNL     1      -0.012  10.076  17.611  0.00  0.00    +0.000 NA
ATOM      4  N   UNL     1       0.494   9.983  19.908  0.00  0.00    +0.000 N 
ATOM      5  C   UNL     1       1.201   8.749  19.845  0.00  0.00    +0.000 A 
ATOM      6  C   UNL     1       1.208   7.889  20.950  0.00  0.00    +0.000 A 
ATOM      7  C   UNL     1       1.905   6.682  20.877  0.00  0.00    +0.000 A 
ATOM      8  C   UNL     1       2.619   6.352  19.716  0.00  0.00    +0.000 A 
ATOM      9  C   UNL     1       2.596   7.246  18.637  0.00  0.00    +0.000 A 
ATOM     10  N   UNL     1       1.888   8.402  18.722  0.00  0.00    +0.000 NA
ATOM     11  H   UNL     1      -1.149  12.339  18.114  0.00  0.00    +0.000 HD
ATOM     12  H   UNL     1      -0.380  10.540  16.768  0.00  0.00    +0.000 HD
ATOM     13  H   UNL     1       0.226  10.339  20.836  0.00  0.00    +0.000 HD
ENDROOT
BRANCH   1  14
ATOM     14  C   UNL     1      -0.103  12.928  19.874  0.00  0.00    +0.000 C 
BRANCH  14  16
ATOM     15  C   UNL     1       1.824  13.907  18.550  0.00  0.00    +0.000 C 
ATOM     16  C   UNL     1       0.465  14.189  19.202  0.00  0.00    +0.000 C 
ENDBRANCH  14  16
ENDBRANCH   1  14
BRANCH   8  17
ATOM     17  C   UNL     1       3.386   5.060  19.617  0.00  0.00    +0.000 C 
BRANCH  17  18
ATOM     18  C   UNL     1       4.423   5.107  18.523  0.00  0.00    +0.000 A 
ATOM     19  C   UNL     1       5.606   5.845  18.680  0.00  0.00    +0.000 A 
ATOM     20  C   UNL     1       6.538   5.909  17.640  0.00  0.00    +0.000 A 
ATOM     21  C   UNL     1       6.281   5.232  16.440  0.00  0.00    +0.000 A 
ATOM     22  N   UNL     1       7.199   5.325  15.350  0.00  0.00    +0.000 N 
ATOM     23  C   UNL     1       6.969   4.719  14.080  0.00  0.00    +0.000 C 
ATOM     24  N   UNL     1       5.970   3.965  13.822  0.00  0.00    +0.000 NA
ATOM     25  C   UNL     1       6.012   3.523  12.450  0.00  0.00    +0.000 C 
ATOM     26  C   UNL     1       7.190   4.300  11.831  0.00  0.00    +0.000 C 
ATOM     27  N   UNL     1       7.794   4.936  12.968  0.00  0.00    +0.000 N 
ATOM     28  N   UNL     1       5.130   4.515  16.317  0.00  0.00    +0.000 NA
ATOM     29  C   UNL     1       4.212   4.433  17.312  0.00  0.00    +0.000 A 
ATOM     30  H   UNL     1       8.044   5.904  15.461  0.00  0.00    +0.000 HD
ATOM     31  H   UNL     1       8.619   5.553  12.944  0.00  0.00    +0.000 HD
ENDBRANCH  17  18
ENDBRANCH   8  17
TORSDOF 4
ENDMDL
MODEL 9
REMARK VINA RESULT:      -7.3      3.873     10.383
REMARK  Name = 
REMARK  5 active torsions:
REMARK  status: ('A' for Active; 'I' for Inactive)
REMARK    1  A    between atoms: C_1  and  C_2
REMARK    2  A    between atoms: C_2  and  C_3
REMARK    3  A    between atoms: C_3  and  N_4
REMARK    4  A    between atoms: C_11  and  C_12
REMARK    5  A    between atoms: C_12  and  C_13
REMARK                            x       y       z     vdW  Elec       q    Type
REMARK                         _______ _______ _______ _____ _____    ______ ____
ROOT
ATOM      1  N   UNL     1      -0.584  11.622  22.334  0.00  0.00    +0.000 N 
ATOM      2  C   UNL     1       0.147  10.421  22.089  0.00  0.00    +0.000 C 
ATOM      3  N   UNL     1       0.532   9.706  23.086  0.00  0.00    +0.000 NA
ATOM      4  N   UNL     1       0.524  10.056  20.759  0.00  0.00    +0.000 N 
ATOM      5  C   UNL     1       1.096   8.796  20.426  0.00  0.00    +0.000 A 
ATOM      6  C   UNL     1       1.886   8.667  19.277  0.00  0.00    +0.000 A 
ATOM      7  C   UNL     1       2.443   7.426  18.962  0.00  0.00    +0.000 A 
ATOM      8  C   UNL     1       2.181   6.312  19.772  0.00  0.00    +0.000 A 
ATOM      9  C   UNL     1       1.375   6.481  20.906  0.00  0.00    +0.000 A 
ATOM     10  N   UNL     1       0.868   7.704  21.208  0.00  0.00    +0.000 NA
ATOM     11  H   UNL     1      -0.575  12.031  23.281  0.00  0.00    +0.000 HD
ATOM     12  H   UNL     1       0.297   9.962  24.056  0.00  0.00    +0.000 HD
ATOM     13  H   UNL     1       0.481  10.775  20.023  0.00  0.00    +0.000 HD
ENDROOT
BRANCH   1  14
ATOM     14  C   UNL     1      -1.499  12.193  21.368  0.00  0.00    +0.000 C 
BRANCH  14  16
ATOM     15  C   UNL     1      -2.727  12.612  23.546  0.00  0.00    +0.000 C 
ATOM     16  C   UNL     1      -2.867  12.433  22.029  0.00  0.00    +0.000 C 
ENDBRANCH  14  16
ENDBRANCH   1  14
BRANCH   8  17
ATOM     17  C   UNL     1       2.762   4.961  19.446  0.00  0.00    +0.000 C 
BRANCH  17  18
ATOM     18  C   UNL     1       3.936   5.068  18.506  0.00  0.00    +0.000 A 
ATOM     19  C   UNL     1       5.085   5.788  18.866  0.00  0.00    +0.000 A 
ATOM     20  C   UNL     1       6.148   5.911  17.966  0.00  0.00    +0.000 A 
ATOM     21  C   UNL     1       6.056   5.309  16.703  0.00  0.00    +0.000 A 
ATOM     22  N   UNL     1       7.112   5.463  15.754  0.00  0.00    +0.000 N 
ATOM     23  C   UNL     1       7.056   4.937  14.429  0.00  0.00    +0.000 C 
ATOM     24  N   UNL     1       6.103   4.206  13.995  0.00  0.00    +0.000 NA
ATOM     25  C   UNL     1       6.330   3.849  12.615  0.00  0.00    +0.000 C 
ATOM     26  C   UNL     1       7.578   4.655  12.210  0.00  0.00    +0.000 C 
ATOM     27  N   UNL     1       8.023   5.217  13.453  0.00  0.00    +0.000 N 
ATOM     28  N   UNL     1       4.934   4.608  16.383  0.00  0.00    +0.000 NA
ATOM     29  C   UNL     1       3.891   4.472  17.239  0.00  0.00    +0.000 A 
ATOM     30  H   UNL     1       7.934   6.029  16.012  0.00  0.00    +0.000 HD
ATOM     31  H   UNL     1       8.842   5.829  13.578  0.00  0.00    +0.000 HD
ENDBRANCH  17  18
ENDBRANCH   8  17
TORSDOF 4
ENDMDL
