MODEL 1
REMARK VINA RESULT:      -8.5      0.000      0.000
REMARK  Name = 
REMARK  2 active torsions:
REMARK  status: ('A' for Active; 'I' for Inactive)
REMARK    1  A    between atoms: N_3  and  C_4
REMARK    2  A    between atoms: C_7  and  C_8
REMARK                            x       y       z     vdW  Elec       q    Type
REMARK                         _______ _______ _______ _____ _____    ______ ____
ROOT
ATOM      1  C   UNL     1       6.976   7.629  17.345  0.00  0.00    +0.000 A 
ATOM      2  C   UNL     1       5.614   7.614  17.042  0.00  0.00    +0.000 A 
ATOM      3  C   UNL     1       4.946   6.412  16.827  0.00  0.00    +0.000 A 
ATOM      4  C   UNL     1       5.619   5.201  16.995  0.00  0.00    +0.000 A 
ATOM      5  C   UNL     1       6.993   5.199  17.262  0.00  0.00    +0.000 A 
ATOM      6  C   UNL     1       7.671   6.413  17.425  0.00  0.00    +0.000 A 
ENDROOT
BRANCH   1   9
ATOM      7  O   UNL     1       8.963   8.259  19.384  0.00  0.00    +0.000 OA
ATOM      8  C   UNL     1       8.576   9.086  18.563  0.00  0.00    +0.000 C 
ATOM      9  N   UNL     1       7.697   8.823  17.534  0.00  0.00    +0.000 N 
ATOM     10  N   UNL     1       9.034  10.376  18.618  0.00  0.00    +0.000 N 
ATOM     11  C   UNL     1       8.767  11.476  17.697  0.00  0.00    +0.000 C 
ATOM     12  C   UNL     1       9.814  12.475  18.053  0.00  0.00    +0.000 A 
ATOM     13  C   UNL     1      10.274  13.555  17.327  0.00  0.00    +0.000 A 
ATOM     14  C   UNL     1      11.267  14.352  17.899  0.00  0.00    +0.000 A 
ATOM     15  C   UNL     1      11.729  14.101  19.203  0.00  0.00    +0.000 A 
ATOM     16  C   UNL     1      11.283  12.986  19.914  0.00  0.00    +0.000 A 
ATOM     17  C   UNL     1      10.378  12.147  19.291  0.00  0.00    +0.000 A 
ATOM     18  C   UNL     1       9.981  10.756  19.668  0.00  0.00    +0.000 C 
ATOM     19  H   UNL     1       7.652   9.492  16.785  0.00  0.00    +0.000 HD
ENDBRANCH   1   9
BRANCH   4  20
ATOM     20  C   UNL     1       4.890   3.919  16.847  0.00  0.00    +0.000 C 
ATOM     21  O   UNL     1       5.129   3.230  15.854  0.00  0.00    +0.000 OA
ATOM     22  N   UNL     1       3.965   3.530  17.838  0.00  0.00    +0.000 N 
ATOM     23  C   UNL     1       3.363   2.207  17.629  0.00  0.00    +0.000 C 
ATOM     24  C   UNL     1       2.128   1.910  18.479  0.00  0.00    +0.000 C 
ATOM     25  N   UNL     1       2.172   2.559  19.764  0.00  0.00    +0.000 N 
ATOM     26  C   UNL     1       1.294   2.412  20.792  0.00  0.00    +0.000 A 
ATOM     27  N   UNL     1       1.576   3.237  21.777  0.00  0.00    +0.000 NA
ATOM     28  C   UNL     1       2.668   3.950  21.354  0.00  0.00    +0.000 A 
ATOM     29  C   UNL     1       3.070   3.529  20.104  0.00  0.00    +0.000 A 
ATOM     30  C   UNL     1       4.180   3.947  19.231  0.00  0.00    +0.000 C 
ENDBRANCH   4  20
TORSDOF 2
ENDMDL
MODEL 2
REMARK VINA RESULT:      -8.4      8.557     11.379
REMARK  Name = 
REMARK  2 active torsions:
REMARK  status: ('A' for Active; 'I' for Inactive)
REMARK    1  A    between atoms: N_3  and  C_4
REMARK    2  A    between atoms: C_7  and  C_8
REMARK                            x       y       z     vdW  Elec       q    Type
REMARK                         _______ _______ _______ _____ _____    ______ ____
ROOT
ATOM      1  C   UNL     1       0.449   9.675  21.501  0.00  0.00    +0.000 A 
ATOM      2  C   UNL     1       0.595  10.943  20.936  0.00  0.00    +0.000 A 
ATOM      3  C   UNL     1      -0.090  12.037  21.457  0.00  0.00    +0.000 A 
ATOM      4  C   UNL     1      -0.867  11.889  22.606  0.00  0.00    +0.000 A 
ATOM      5  C   UNL     1      -1.055  10.619  23.162  0.00  0.00    +0.000 A 
ATOM      6  C   UNL     1      -0.405   9.513  22.602  0.00  0.00    +0.000 A 
ENDROOT
BRANCH   1   9
ATOM      7  O   UNL     1       1.776   9.341  18.926  0.00  0.00    +0.000 OA
ATOM      8  C   UNL     1       1.645   8.417  19.725  0.00  0.00    +0.000 C 
ATOM      9  N   UNL     1       1.094   8.536  20.983  0.00  0.00    +0.000 N 
ATOM     10  N   UNL     1       2.077   7.159  19.398  0.00  0.00    +0.000 N 
ATOM     11  C   UNL     1       2.091   5.958  20.228  0.00  0.00    +0.000 C 
ATOM     12  C   UNL     1       3.001   5.044  19.480  0.00  0.00    +0.000 A 
ATOM     13  C   UNL     1       3.656   3.911  19.921  0.00  0.00    +0.000 A 
ATOM     14  C   UNL     1       4.450   3.219  19.006  0.00  0.00    +0.000 A 
ATOM     15  C   UNL     1       4.518   3.623  17.661  0.00  0.00    +0.000 A 
ATOM     16  C   UNL     1       3.881   4.789  17.235  0.00  0.00    +0.000 A 
ATOM     17  C   UNL     1       3.185   5.522  18.178  0.00  0.00    +0.000 A 
ATOM     18  C   UNL     1       2.688   6.928  18.088  0.00  0.00    +0.000 C 
ATOM     19  H   UNL     1       1.270   7.791  21.634  0.00  0.00    +0.000 HD
ENDBRANCH   1   9
BRANCH   4  20
ATOM     20  C   UNL     1      -1.531  13.069  23.210  0.00  0.00    +0.000 C 
ATOM     21  O   UNL     1      -0.833  13.862  23.844  0.00  0.00    +0.000 OA
ATOM     22  N   UNL     1      -2.919  13.249  23.035  0.00  0.00    +0.000 N 
ATOM     23  C   UNL     1      -3.453  14.491  23.606  0.00  0.00    +0.000 C 
ATOM     24  C   UNL     1      -4.975  14.550  23.733  0.00  0.00    +0.000 C 
ATOM     25  N   UNL     1      -5.645  13.810  22.695  0.00  0.00    +0.000 N 
ATOM     26  C   UNL     1      -6.983  13.754  22.455  0.00  0.00    +0.000 A 
ATOM     27  N   UNL     1      -7.256  12.897  21.496  0.00  0.00    +0.000 NA
ATOM     28  C   UNL     1      -6.046  12.374  21.118  0.00  0.00    +0.000 A 
ATOM     29  C   UNL     1      -5.022  12.945  21.843  0.00  0.00    +0.000 A 
ATOM     30  C   UNL     1      -3.562  12.753  21.810  0.00  0.00    +0.000 C 
ENDBRANCH   4  20
TORSDOF 2
ENDMDL
MODEL 3
REMARK VINA RESULT:      -8.4      1.370      1.859
REMARK  Name = 
REMARK  2 active torsions:
REMARK  status: ('A' for Active; 'I' for Inactive)
REMARK    1  A    between atoms: N_3  and  C_4
REMARK    2  A    between atoms: C_7  and  C_8
REMARK                            x       y       z     vdW  Elec       q    Type
REMARK                         _______ _______ _______ _____ _____    ______ ____
ROOT
ATOM      1  C   UNL     1       7.966   8.673  17.934  0.00  0.00    +0.000 A 
ATOM      2  C   UNL     1       8.448   7.579  18.653  0.00  0.00    +0.000 A 
ATOM      3  C   UNL     1       7.820   6.340  18.568  0.00  0.00    +0.000 A 
ATOM      4  C   UNL     1       6.748   6.160  17.693  0.00  0.00    +0.000 A 
ATOM      5  C   UNL     1       6.229   7.255  16.993  0.00  0.00    +0.000 A 
ATOM      6  C   UNL     1       6.832   8.512  17.124  0.00  0.00    +0.000 A 
ENDROOT
BRANCH   1   9
ATOM      7  O   UNL     1       9.250   9.945  20.223  0.00  0.00    +0.000 OA
ATOM      8  C   UNL     1       9.081  10.527  19.154  0.00  0.00    +0.000 C 
ATOM      9  N   UNL     1       8.549   9.952  18.020  0.00  0.00    +0.000 N 
ATOM     10  N   UNL     1       9.447  11.841  19.021  0.00  0.00    +0.000 N 
ATOM     11  C   UNL     1       9.410  12.678  17.827  0.00  0.00    +0.000 C 
ATOM     12  C   UNL     1      10.265  13.839  18.203  0.00  0.00    +0.000 A 
ATOM     13  C   UNL     1      10.867  14.780  17.392  0.00  0.00    +0.000 A 
ATOM     14  C   UNL     1      11.618  15.786  18.004  0.00  0.00    +0.000 A 
ATOM     15  C   UNL     1      11.692  15.877  19.405  0.00  0.00    +0.000 A 
ATOM     16  C   UNL     1      11.110  14.900  20.213  0.00  0.00    +0.000 A 
ATOM     17  C   UNL     1      10.460  13.852  19.589  0.00  0.00    +0.000 A 
ATOM     18  C   UNL     1      10.032  12.541  20.165  0.00  0.00    +0.000 C 
ATOM     19  H   UNL     1       8.694  10.433  17.149  0.00  0.00    +0.000 HD
ENDBRANCH   1   9
BRANCH   4  20
ATOM     20  C   UNL     1       6.130   4.822  17.540  0.00  0.00    +0.000 C 
ATOM     21  O   UNL     1       6.762   3.962  16.923  0.00  0.00    +0.000 OA
ATOM     22  N   UNL     1       4.862   4.575  18.104  0.00  0.00    +0.000 N 
ATOM     23  C   UNL     1       4.385   3.194  17.960  0.00  0.00    +0.000 C 
ATOM     24  C   UNL     1       2.899   2.983  18.249  0.00  0.00    +0.000 C 
ATOM     25  N   UNL     1       2.397   3.887  19.251  0.00  0.00    +0.000 N 
ATOM     26  C   UNL     1       1.159   3.888  19.815  0.00  0.00    +0.000 A 
ATOM     27  N   UNL     1       1.003   4.921  20.614  0.00  0.00    +0.000 NA
ATOM     28  C   UNL     1       2.184   5.615  20.547  0.00  0.00    +0.000 A 
ATOM     29  C   UNL     1       3.077   4.976  19.714  0.00  0.00    +0.000 A 
ATOM     30  C   UNL     1       4.463   5.289  19.325  0.00  0.00    +0.000 C 
ENDBRANCH   4  20
TORSDOF 2
ENDMDL
MODEL 4
REMARK VINA RESULT:      -8.2      7.651      9.207
REMARK  Name = 
REMARK  2 active torsions:
REMARK  status: ('A' for Active; 'I' for Inactive)
REMARK    1  A    between atoms: N_3  and  C_4
REMARK    2  A    between atoms: C_7  and  C_8
REMARK                            x       y       z     vdW  Elec       q    Type
REMARK                         _______ _______ _______ _____ _____    ______ ____
ROOT
ATOM      1  C   UNL     1       0.283  10.006  20.202  0.00  0.00    +0.000 A 
ATOM      2  C   UNL     1       0.492  10.158  18.830  0.00  0.00    +0.000 A 
ATOM      3  C   UNL     1       1.382   9.332  18.151  0.00  0.00    +0.000 A 
ATOM      4  C   UNL     1       2.014   8.285  18.824  0.00  0.00    +0.000 A 
ATOM      5  C   UNL     1       1.846   8.143  20.205  0.00  0.00    +0.000 A 
ATOM      6  C   UNL     1       0.989   9.011  20.894  0.00  0.00    +0.000 A 
ENDROOT
BRANCH   1   9
ATOM      7  O   UNL     1       0.884  12.527  21.539  0.00  0.00    +0.000 OA
ATOM      8  C   UNL     1      -0.220  11.993  21.604  0.00  0.00    +0.000 C 
ATOM      9  N   UNL     1      -0.580  10.844  20.934  0.00  0.00    +0.000 N 
ATOM     10  N   UNL     1      -1.209  12.548  22.373  0.00  0.00    +0.000 N 
ATOM     11  C   UNL     1      -2.597  12.122  22.517  0.00  0.00    +0.000 C 
ATOM     12  C   UNL     1      -3.247  13.303  23.153  0.00  0.00    +0.000 A 
ATOM     13  C   UNL     1      -4.587  13.626  23.232  0.00  0.00    +0.000 A 
ATOM     14  C   UNL     1      -4.938  14.799  23.901  0.00  0.00    +0.000 A 
ATOM     15  C   UNL     1      -3.961  15.585  24.538  0.00  0.00    +0.000 A 
ATOM     16  C   UNL     1      -2.607  15.269  24.421  0.00  0.00    +0.000 A 
ATOM     17  C   UNL     1      -2.268  14.162  23.665  0.00  0.00    +0.000 A 
ATOM     18  C   UNL     1      -0.931  13.777  23.119  0.00  0.00    +0.000 C 
ATOM     19  H   UNL     1      -1.562  10.645  20.856  0.00  0.00    +0.000 HD
ENDBRANCH   1   9
BRANCH   4  20
ATOM     20  C   UNL     1       2.899   7.354  18.084  0.00  0.00    +0.000 C 
ATOM     21  O   UNL     1       3.806   7.837  17.403  0.00  0.00    +0.000 OA
ATOM     22  N   UNL     1       2.684   5.964  18.188  0.00  0.00    +0.000 N 
ATOM     23  C   UNL     1       3.669   5.137  17.480  0.00  0.00    +0.000 C 
ATOM     24  C   UNL     1       3.274   3.672  17.291  0.00  0.00    +0.000 C 
ATOM     25  N   UNL     1       2.460   3.175  18.369  0.00  0.00    +0.000 N 
ATOM     26  C   UNL     1       2.040   1.895  18.562  0.00  0.00    +0.000 A 
ATOM     27  N   UNL     1       1.221   1.816  19.588  0.00  0.00    +0.000 NA
ATOM     28  C   UNL     1       1.103   3.097  20.060  0.00  0.00    +0.000 A 
ATOM     29  C   UNL     1       1.884   3.961  19.324  0.00  0.00    +0.000 A 
ATOM     30  C   UNL     1       2.126   5.411  19.430  0.00  0.00    +0.000 C 
ENDBRANCH   4  20
TORSDOF 2
ENDMDL
MODEL 5
REMARK VINA RESULT:      -8.2      1.780      2.682
REMARK  Name = 
REMARK  2 active torsions:
REMARK  status: ('A' for Active; 'I' for Inactive)
REMARK    1  A    between atoms: N_3  and  C_4
REMARK    2  A    between atoms: C_7  and  C_8
REMARK                            x       y       z     vdW  Elec       q    Type
REMARK                         _______ _______ _______ _____ _____    ______ ____
ROOT
ATOM      1  C   UNL     1       8.415   9.075  18.633  0.00  0.00    +0.000 A 
ATOM      2  C   UNL     1       7.612   9.045  17.493  0.00  0.00    +0.000 A 
ATOM      3  C   UNL     1       7.136   7.837  16.990  0.00  0.00    +0.000 A 
ATOM      4  C   UNL     1       7.393   6.648  17.674  0.00  0.00    +0.000 A 
ATOM      5  C   UNL     1       8.228   6.656  18.797  0.00  0.00    +0.000 A 
ATOM      6  C   UNL     1       8.747   7.868  19.268  0.00  0.00    +0.000 A 
ENDROOT
BRANCH   1   9
ATOM      7  O   UNL     1      10.282  10.938  17.389  0.00  0.00    +0.000 OA
ATOM      8  C   UNL     1       9.883  11.076  18.542  0.00  0.00    +0.000 C 
ATOM      9  N   UNL     1       8.947  10.271  19.154  0.00  0.00    +0.000 N 
ATOM     10  N   UNL     1      10.359  12.102  19.317  0.00  0.00    +0.000 N 
ATOM     11  C   UNL     1       9.956  12.486  20.665  0.00  0.00    +0.000 C 
ATOM     12  C   UNL     1      10.528  13.855  20.810  0.00  0.00    +0.000 A 
ATOM     13  C   UNL     1      10.207  14.844  21.718  0.00  0.00    +0.000 A 
ATOM     14  C   UNL     1      10.908  16.048  21.647  0.00  0.00    +0.000 A 
ATOM     15  C   UNL     1      11.958  16.217  20.726  0.00  0.00    +0.000 A 
ATOM     16  C   UNL     1      12.249  15.224  19.790  0.00  0.00    +0.000 A 
ATOM     17  C   UNL     1      11.475  14.079  19.805  0.00  0.00    +0.000 A 
ATOM     18  C   UNL     1      11.351  13.021  18.757  0.00  0.00    +0.000 C 
ATOM     19  H   UNL     1       8.513  10.622  19.989  0.00  0.00    +0.000 HD
ENDBRANCH   1   9
BRANCH   4  20
ATOM     20  C   UNL     1       6.819   5.372  17.186  0.00  0.00    +0.000 C 
ATOM     21  O   UNL     1       7.504   4.683  16.427  0.00  0.00    +0.000 OA
ATOM     22  N   UNL     1       5.529   4.987  17.606  0.00  0.00    +0.000 N 
ATOM     23  C   UNL     1       5.096   3.668  17.125  0.00  0.00    +0.000 C 
ATOM     24  C   UNL     1       3.603   3.378  17.273  0.00  0.00    +0.000 C 
ATOM     25  N   UNL     1       3.025   4.024  18.423  0.00  0.00    +0.000 N 
ATOM     26  C   UNL     1       1.759   3.880  18.900  0.00  0.00    +0.000 A 
ATOM     27  N   UNL     1       1.535   4.701  19.903  0.00  0.00    +0.000 NA
ATOM     28  C   UNL     1       2.700   5.407  20.063  0.00  0.00    +0.000 A 
ATOM     29  C   UNL     1       3.652   4.987  19.160  0.00  0.00    +0.000 A 
ATOM     30  C   UNL     1       5.048   5.398  18.932  0.00  0.00    +0.000 C 
ENDBRANCH   4  20
TORSDOF 2
ENDMDL
MODEL 6
REMARK VINA RESULT:      -8.1      1.072      1.728
REMARK  Name = 
REMARK  2 active torsions:
REMARK  status: ('A' for Active; 'I' for Inactive)
REMARK    1  A    between atoms: N_3  and  C_4
REMARK    2  A    between atoms: C_7  and  C_8
REMARK                            x       y       z     vdW  Elec       q    Type
REMARK                         _______ _______ _______ _____ _____    ______ ____
ROOT
ATOM      1  C   UNL     1       7.826   7.667  18.038  0.00  0.00    +0.000 A 
ATOM      2  C   UNL     1       8.074   6.466  18.703  0.00  0.00    +0.000 A 
ATOM      3  C   UNL     1       7.302   5.337  18.444  0.00  0.00    +0.000 A 
ATOM      4  C   UNL     1       6.321   5.376  17.451  0.00  0.00    +0.000 A 
ATOM      5  C   UNL     1       6.035   6.582  16.802  0.00  0.00    +0.000 A 
ATOM      6  C   UNL     1       6.781   7.728  17.105  0.00  0.00    +0.000 A 
ENDROOT
BRANCH   1   9
ATOM      7  O   UNL     1       7.160  10.423  17.357  0.00  0.00    +0.000 OA
ATOM      8  C   UNL     1       8.224  10.114  17.886  0.00  0.00    +0.000 C 
ATOM      9  N   UNL     1       8.560   8.841  18.296  0.00  0.00    +0.000 N 
ATOM     10  N   UNL     1       9.177  11.069  18.126  0.00  0.00    +0.000 N 
ATOM     11  C   UNL     1      10.456  10.926  18.812  0.00  0.00    +0.000 C 
ATOM     12  C   UNL     1      10.848  12.336  19.091  0.00  0.00    +0.000 A 
ATOM     13  C   UNL     1      11.776  12.824  19.989  0.00  0.00    +0.000 A 
ATOM     14  C   UNL     1      11.965  14.205  20.048  0.00  0.00    +0.000 A 
ATOM     15  C   UNL     1      11.284  15.063  19.167  0.00  0.00    +0.000 A 
ATOM     16  C   UNL     1      10.322  14.563  18.288  0.00  0.00    +0.000 A 
ATOM     17  C   UNL     1      10.070  13.204  18.316  0.00  0.00    +0.000 A 
ATOM     18  C   UNL     1       8.914  12.456  17.737  0.00  0.00    +0.000 C 
ATOM     19  H   UNL     1       9.329   8.752  18.937  0.00  0.00    +0.000 HD
ENDBRANCH   1   9
BRANCH   4  20
ATOM     20  C   UNL     1       5.554   4.153  17.117  0.00  0.00    +0.000 C 
ATOM     21  O   UNL     1       5.964   3.449  16.191  0.00  0.00    +0.000 OA
ATOM     22  N   UNL     1       4.402   3.833  17.863  0.00  0.00    +0.000 N 
ATOM     23  C   UNL     1       3.769   2.559  17.498  0.00  0.00    +0.000 C 
ATOM     24  C   UNL     1       2.355   2.354  18.039  0.00  0.00    +0.000 C 
ATOM     25  N   UNL     1       2.151   2.996  19.312  0.00  0.00    +0.000 N 
ATOM     26  C   UNL     1       1.053   2.913  20.111  0.00  0.00    +0.000 A 
ATOM     27  N   UNL     1       1.161   3.714  21.149  0.00  0.00    +0.000 NA
ATOM     28  C   UNL     1       2.370   4.343  20.999  0.00  0.00    +0.000 A 
ATOM     29  C   UNL     1       3.015   3.895  19.866  0.00  0.00    +0.000 A 
ATOM     30  C   UNL     1       4.323   4.230  19.276  0.00  0.00    +0.000 C 
ENDBRANCH   4  20
TORSDOF 2
ENDMDL
MODEL 7
REMARK VINA RESULT:      -8.0      6.569      7.700
REMARK  Name = 
REMARK  2 active torsions:
REMARK  status: ('A' for Active; 'I' for Inactive)
REMARK    1  A    between atoms: N_3  and  C_4
REMARK    2  A    between atoms: C_7  and  C_8
REMARK                            x       y       z     vdW  Elec       q    Type
REMARK                         _______ _______ _______ _____ _____    ______ ____
ROOT
ATOM      1  C   UNL     1       1.258  10.483  19.362  0.00  0.00    +0.000 A 
ATOM      2  C   UNL     1       1.175   9.832  20.593  0.00  0.00    +0.000 A 
ATOM      3  C   UNL     1       1.447   8.471  20.697  0.00  0.00    +0.000 A 
ATOM      4  C   UNL     1       1.888   7.761  19.580  0.00  0.00    +0.000 A 
ATOM      5  C   UNL     1       1.941   8.389  18.331  0.00  0.00    +0.000 A 
ATOM      6  C   UNL     1       1.615   9.747  18.222  0.00  0.00    +0.000 A 
ENDROOT
BRANCH   1   9
ATOM      7  O   UNL     1       2.928  12.609  18.268  0.00  0.00    +0.000 OA
ATOM      8  C   UNL     1       1.816  12.823  18.744  0.00  0.00    +0.000 C 
ATOM      9  N   UNL     1       0.956  11.850  19.205  0.00  0.00    +0.000 N 
ATOM     10  N   UNL     1       1.339  14.105  18.830  0.00  0.00    +0.000 N 
ATOM     11  C   UNL     1       0.028  14.559  19.279  0.00  0.00    +0.000 C 
ATOM     12  C   UNL     1      -0.025  15.967  18.793  0.00  0.00    +0.000 A 
ATOM     13  C   UNL     1      -1.119  16.793  18.624  0.00  0.00    +0.000 A 
ATOM     14  C   UNL     1      -0.893  18.089  18.159  0.00  0.00    +0.000 A 
ATOM     15  C   UNL     1       0.415  18.558  17.941  0.00  0.00    +0.000 A 
ATOM     16  C   UNL     1       1.509  17.704  18.080  0.00  0.00    +0.000 A 
ATOM     17  C   UNL     1       1.260  16.393  18.439  0.00  0.00    +0.000 A 
ATOM     18  C   UNL     1       2.172  15.212  18.357  0.00  0.00    +0.000 C 
ATOM     19  H   UNL     1      -0.008  12.108  19.330  0.00  0.00    +0.000 HD
ENDBRANCH   1   9
BRANCH   4  20
ATOM     20  C   UNL     1       2.257   6.331  19.707  0.00  0.00    +0.000 C 
ATOM     21  O   UNL     1       1.458   5.576  20.263  0.00  0.00    +0.000 OA
ATOM     22  N   UNL     1       3.490   5.885  19.188  0.00  0.00    +0.000 N 
ATOM     23  C   UNL     1       3.714   4.438  19.297  0.00  0.00    +0.000 C 
ATOM     24  C   UNL     1       5.153   3.980  19.063  0.00  0.00    +0.000 C 
ATOM     25  N   UNL     1       5.851   4.814  18.119  0.00  0.00    +0.000 N 
ATOM     26  C   UNL     1       7.096   4.616  17.608  0.00  0.00    +0.000 A 
ATOM     27  N   UNL     1       7.466   5.631  16.856  0.00  0.00    +0.000 NA
ATOM     28  C   UNL     1       6.421   6.517  16.901  0.00  0.00    +0.000 A 
ATOM     29  C   UNL     1       5.392   6.018  17.670  0.00  0.00    +0.000 A 
ATOM     30  C   UNL     1       4.064   6.556  18.013  0.00  0.00    +0.000 C 
ENDBRANCH   4  20
TORSDOF 2
ENDMDL
MODEL 8
REMARK VINA RESULT:      -7.9      1.062      1.098
REMARK  Name = 
REMARK  2 active torsions:
REMARK  status: ('A' for Active; 'I' for Inactive)
REMARK    1  A    between atoms: N_3  and  C_4
REMARK    2  A    between atoms: C_7  and  C_8
REMARK                            x       y       z     vdW  Elec       q    Type
REMARK                         _______ _______ _______ _____ _____    ______ ____
ROOT
ATOM      1  C   UNL     1       7.506   8.305  17.611  0.00  0.00    +0.000 A 
ATOM      2  C   UNL     1       6.347   8.134  16.853  0.00  0.00    +0.000 A 
ATOM      3  C   UNL     1       5.794   6.869  16.675  0.00  0.00    +0.000 A 
ATOM      4  C   UNL     1       6.351   5.767  17.326  0.00  0.00    +0.000 A 
ATOM      5  C   UNL     1       7.534   5.915  18.058  0.00  0.00    +0.000 A 
ATOM      6  C   UNL     1       8.115   7.182  18.190  0.00  0.00    +0.000 A 
ENDROOT
BRANCH   1   9
ATOM      7  O   UNL     1       9.234   9.207  19.780  0.00  0.00    +0.000 OA
ATOM      8  C   UNL     1       8.871   9.952  18.873  0.00  0.00    +0.000 C 
ATOM      9  N   UNL     1       8.118   9.561  17.786  0.00  0.00    +0.000 N 
ATOM     10  N   UNL     1       9.228  11.274  18.883  0.00  0.00    +0.000 N 
ATOM     11  C   UNL     1       8.975  12.293  17.870  0.00  0.00    +0.000 C 
ATOM     12  C   UNL     1       9.909  13.389  18.255  0.00  0.00    +0.000 A 
ATOM     13  C   UNL     1      10.359  14.457  17.504  0.00  0.00    +0.000 A 
ATOM     14  C   UNL     1      11.233  15.360  18.111  0.00  0.00    +0.000 A 
ATOM     15  C   UNL     1      11.581  15.225  19.467  0.00  0.00    +0.000 A 
ATOM     16  C   UNL     1      11.148  14.123  20.206  0.00  0.00    +0.000 A 
ATOM     17  C   UNL     1      10.370  13.180  19.559  0.00  0.00    +0.000 A 
ATOM     18  C   UNL     1      10.038  11.789  19.989  0.00  0.00    +0.000 C 
ATOM     19  H   UNL     1       8.100  10.178  16.993  0.00  0.00    +0.000 HD
ENDBRANCH   1   9
BRANCH   4  20
ATOM     20  C   UNL     1       5.715   4.433  17.203  0.00  0.00    +0.000 C 
ATOM     21  O   UNL     1       6.285   3.583  16.517  0.00  0.00    +0.000 OA
ATOM     22  N   UNL     1       4.501   4.180  17.874  0.00  0.00    +0.000 N 
ATOM     23  C   UNL     1       4.006   2.804  17.748  0.00  0.00    +0.000 C 
ATOM     24  C   UNL     1       2.551   2.593  18.166  0.00  0.00    +0.000 C 
ATOM     25  N   UNL     1       2.145   3.480  19.224  0.00  0.00    +0.000 N 
ATOM     26  C   UNL     1       0.962   3.474  19.897  0.00  0.00    +0.000 A 
ATOM     27  N   UNL     1       0.884   4.492  20.726  0.00  0.00    +0.000 NA
ATOM     28  C   UNL     1       2.057   5.183  20.566  0.00  0.00    +0.000 A 
ATOM     29  C   UNL     1       2.869   4.557  19.645  0.00  0.00    +0.000 A 
ATOM     30  C   UNL     1       4.217   4.873  19.139  0.00  0.00    +0.000 C 
ENDBRANCH   4  20
TORSDOF 2
ENDMDL
MODEL 9
REMARK VINA RESULT:      -7.8      7.643     10.517
REMARK  Name = 
REMARK  2 active torsions:
REMARK  status: ('A' for Active; 'I' for Inactive)
REMARK    1  A    between atoms: N_3  and  C_4
REMARK    2  A    between atoms: C_7  and  C_8
REMARK                            x       y       z     vdW  Elec       q    Type
REMARK                         _______ _______ _______ _____ _____    ______ ____
ROOT
ATOM      1  C   UNL     1       1.168   9.143  20.047  0.00  0.00    +0.000 A 
ATOM      2  C   UNL     1       0.159   9.952  19.522  0.00  0.00    +0.000 A 
ATOM      3  C   UNL     1      -0.686  10.670  20.363  0.00  0.00    +0.000 A 
ATOM      4  C   UNL     1      -0.477  10.651  21.743  0.00  0.00    +0.000 A 
ATOM      5  C   UNL     1       0.504   9.816  22.288  0.00  0.00    +0.000 A 
ATOM      6  C   UNL     1       1.318   9.055  21.439  0.00  0.00    +0.000 A 
ENDROOT
BRANCH   1   9
ATOM      7  O   UNL     1       1.711   6.280  20.168  0.00  0.00    +0.000 OA
ATOM      8  C   UNL     1       2.290   7.029  19.385  0.00  0.00    +0.000 C 
ATOM      9  N   UNL     1       2.021   8.372  19.234  0.00  0.00    +0.000 N 
ATOM     10  N   UNL     1       3.274   6.540  18.566  0.00  0.00    +0.000 N 
ATOM     11  C   UNL     1       4.015   7.236  17.519  0.00  0.00    +0.000 C 
ATOM     12  C   UNL     1       4.640   6.121  16.752  0.00  0.00    +0.000 A 
ATOM     13  C   UNL     1       5.175   6.130  15.479  0.00  0.00    +0.000 A 
ATOM     14  C   UNL     1       5.714   4.939  14.989  0.00  0.00    +0.000 A 
ATOM     15  C   UNL     1       5.776   3.791  15.798  0.00  0.00    +0.000 A 
ATOM     16  C   UNL     1       5.200   3.784  17.069  0.00  0.00    +0.000 A 
ATOM     17  C   UNL     1       4.575   4.940  17.498  0.00  0.00    +0.000 A 
ATOM     18  C   UNL     1       3.629   5.122  18.640  0.00  0.00    +0.000 C 
ATOM     19  H   UNL     1       2.366   8.820  18.403  0.00  0.00    +0.000 HD
ENDBRANCH   1   9
BRANCH   4  20
ATOM     20  C   UNL     1      -1.325  11.479  22.633  0.00  0.00    +0.000 C 
ATOM     21  O   UNL     1      -2.015  10.901  23.475  0.00  0.00    +0.000 OA
ATOM     22  N   UNL     1      -1.308  12.882  22.497  0.00  0.00    +0.000 N 
ATOM     23  C   UNL     1      -2.122  13.604  23.484  0.00  0.00    +0.000 C 
ATOM     24  C   UNL     1      -2.394  15.072  23.156  0.00  0.00    +0.000 C 
ATOM     25  N   UNL     1      -1.314  15.686  22.429  0.00  0.00    +0.000 N 
ATOM     26  C   UNL     1      -1.191  16.997  22.087  0.00  0.00    +0.000 A 
ATOM     27  N   UNL     1      -0.133  17.191  21.331  0.00  0.00    +0.000 NA
ATOM     28  C   UNL     1       0.434  15.953  21.172  0.00  0.00    +0.000 A 
ATOM     29  C   UNL     1      -0.278  14.999  21.866  0.00  0.00    +0.000 A 
ATOM     30  C   UNL     1      -0.082  13.548  22.037  0.00  0.00    +0.000 C 
ENDBRANCH   4  20
TORSDOF 2
ENDMDL
