MODEL 1
REMARK VINA RESULT:      -7.7      0.000      0.000
REMARK  Name = 
REMARK  13 active torsions:
REMARK  status: ('A' for Active; 'I' for Inactive)
REMARK    1  A    between atoms: C_1  and  C_2
REMARK    2  A    between atoms: C_2  and  N_3
REMARK    3  A    between atoms: N_3  and  C_4
REMARK    4  A    between atoms: N_3  and  C_6
REMARK    5  A    between atoms: C_4  and  C_5
REMARK    6  A    between atoms: C_9  and  C_10
REMARK    7  A    between atoms: C_10  and  N_11
REMARK    8  A    between atoms: N_11  and  C_12
REMARK    9  A    between atoms: N_11  and  S_19
REMARK   10  A    between atoms: C_15  and  C_16
REMARK   11  A    between atoms: S_19  and  C_22
REMARK   12  A    between atoms: C_25  and  O_26
REMARK   13  A    between atoms: O_26  and  C_27
REMARK                            x       y       z     vdW  Elec       q    Type
REMARK                         _______ _______ _______ _____ _____    ______ ____
ROOT
ATOM      1  N   UNL     1       4.129   5.851  17.878  0.00  0.00    +0.000 N 
ENDROOT
BRANCH   1   2
ATOM      2  C   UNL     1       3.375   4.983  18.736  0.00  0.00    +0.000 A 
ATOM      3  C   UNL     1       3.642   4.868  20.099  0.00  0.00    +0.000 A 
ATOM      4  C   UNL     1       2.838   4.043  20.902  0.00  0.00    +0.000 A 
ATOM      5  C   UNL     1       1.761   3.331  20.352  0.00  0.00    +0.000 A 
ATOM      6  C   UNL     1       0.840   2.512  21.209  0.00  0.00    +0.000 C 
ATOM      7  C   UNL     1       1.515   3.438  18.982  0.00  0.00    +0.000 A 
ATOM      8  C   UNL     1       2.325   4.245  18.181  0.00  0.00    +0.000 A 
ENDBRANCH   1   2
BRANCH   1   9
ATOM      9  S   UNL     1       5.807   5.671  17.791  0.00  0.00    +0.000 S 
ATOM     10  O   UNL     1       6.436   6.978  17.748  0.00  0.00    +0.000 OA
ATOM     11  O   UNL     1       6.195   4.712  18.804  0.00  0.00    +0.000 OA
BRANCH   9  12
ATOM     12  C   UNL     1       6.143   4.889  16.209  0.00  0.00    +0.000 A 
ATOM     13  C   UNL     1       5.161   4.124  15.577  0.00  0.00    +0.000 A 
ATOM     14  C   UNL     1       5.343   3.727  14.243  0.00  0.00    +0.000 A 
ATOM     15  C   UNL     1       6.480   4.119  13.528  0.00  0.00    +0.000 A 
ATOM     16  C   UNL     1       7.475   4.854  14.172  0.00  0.00    +0.000 A 
ATOM     17  C   UNL     1       7.303   5.246  15.506  0.00  0.00    +0.000 A 
BRANCH  15  18
ATOM     18  O   UNL     1       6.533   3.715  12.221  0.00  0.00    +0.000 OA
ATOM     19  C   UNL     1       5.552   2.753  11.836  0.00  0.00    +0.000 C 
ENDBRANCH  15  18
ENDBRANCH   9  12
ENDBRANCH   1   9
BRANCH   1  20
ATOM     20  C   UNL     1       3.508   7.093  17.365  0.00  0.00    +0.000 C 
BRANCH  20  24
ATOM     21  C   UNL     1       0.781   9.355  19.958  0.00  0.00    +0.000 A 
ATOM     22  C   UNL     1       1.531   8.280  20.457  0.00  0.00    +0.000 A 
ATOM     23  C   UNL     1       2.375   7.514  19.636  0.00  0.00    +0.000 A 
ATOM     24  C   UNL     1       2.533   7.814  18.283  0.00  0.00    +0.000 A 
ATOM     25  C   UNL     1       1.740   8.848  17.760  0.00  0.00    +0.000 A 
ATOM     26  C   UNL     1       0.880   9.598  18.582  0.00  0.00    +0.000 A 
BRANCH  21  27
ATOM     27  N   UNL     1       0.002  10.190  20.782  0.00  0.00    +0.000 N 
BRANCH  27  29
ATOM     28  C   UNL     1       1.166  12.407  20.648  0.00  0.00    +0.000 C 
ATOM     29  C   UNL     1      -0.096  11.604  20.375  0.00  0.00    +0.000 C 
ENDBRANCH  27  29
BRANCH  27  30
ATOM     30  C   UNL     1       0.012   9.864  22.219  0.00  0.00    +0.000 C 
ATOM     31  C   UNL     1      -1.018  10.656  23.014  0.00  0.00    +0.000 C 
ENDBRANCH  27  30
ENDBRANCH  21  27
ENDBRANCH  20  24
ENDBRANCH   1  20
TORSDOF 9
ENDMDL
MODEL 2
REMARK VINA RESULT:      -7.7      0.508      1.461
REMARK  Name = 
REMARK  13 active torsions:
REMARK  status: ('A' for Active; 'I' for Inactive)
REMARK    1  A    between atoms: C_1  and  C_2
REMARK    2  A    between atoms: C_2  and  N_3
REMARK    3  A    between atoms: N_3  and  C_4
REMARK    4  A    between atoms: N_3  and  C_6
REMARK    5  A    between atoms: C_4  and  C_5
REMARK    6  A    between atoms: C_9  and  C_10
REMARK    7  A    between atoms: C_10  and  N_11
REMARK    8  A    between atoms: N_11  and  C_12
REMARK    9  A    between atoms: N_11  and  S_19
REMARK   10  A    between atoms: C_15  and  C_16
REMARK   11  A    between atoms: S_19  and  C_22
REMARK   12  A    between atoms: C_25  and  O_26
REMARK   13  A    between atoms: O_26  and  C_27
REMARK                            x       y       z     vdW  Elec       q    Type
REMARK                         _______ _______ _______ _____ _____    ______ ____
ROOT
ATOM      1  N   UNL     1       4.014   6.158  17.754  0.00  0.00    +0.000 N 
ENDROOT
BRANCH   1   2
ATOM      2  C   UNL     1       3.222   5.285  18.571  0.00  0.00    +0.000 A 
ATOM      3  C   UNL     1       2.219   4.474  18.040  0.00  0.00    +0.000 A 
ATOM      4  C   UNL     1       1.510   3.599  18.878  0.00  0.00    +0.000 A 
ATOM      5  C   UNL     1       1.798   3.524  20.249  0.00  0.00    +0.000 A 
ATOM      6  C   UNL     1       1.110   2.534  21.144  0.00  0.00    +0.000 C 
ATOM      7  C   UNL     1       2.790   4.354  20.775  0.00  0.00    +0.000 A 
ATOM      8  C   UNL     1       3.483   5.237  19.944  0.00  0.00    +0.000 A 
ENDBRANCH   1   2
BRANCH   1   9
ATOM      9  S   UNL     1       5.692   5.956  17.717  0.00  0.00    +0.000 S 
ATOM     10  O   UNL     1       6.337   7.250  17.603  0.00  0.00    +0.000 OA
ATOM     11  O   UNL     1       6.046   5.062  18.800  0.00  0.00    +0.000 OA
BRANCH   9  12
ATOM     12  C   UNL     1       6.053   5.066  16.199  0.00  0.00    +0.000 A 
ATOM     13  C   UNL     1       5.092   4.235  15.622  0.00  0.00    +0.000 A 
ATOM     14  C   UNL     1       5.290   3.744  14.322  0.00  0.00    +0.000 A 
ATOM     15  C   UNL     1       6.421   4.109  13.583  0.00  0.00    +0.000 A 
ATOM     16  C   UNL     1       7.395   4.913  14.173  0.00  0.00    +0.000 A 
ATOM     17  C   UNL     1       7.208   5.398  15.474  0.00  0.00    +0.000 A 
BRANCH  15  18
ATOM     18  O   UNL     1       6.489   3.611  12.309  0.00  0.00    +0.000 OA
ATOM     19  C   UNL     1       5.322   2.926  11.855  0.00  0.00    +0.000 C 
ENDBRANCH  15  18
ENDBRANCH   9  12
ENDBRANCH   1   9
BRANCH   1  20
ATOM     20  C   UNL     1       3.428   7.417  17.246  0.00  0.00    +0.000 C 
BRANCH  20  24
ATOM     21  C   UNL     1       0.851   9.776  19.905  0.00  0.00    +0.000 A 
ATOM     22  C   UNL     1       1.375   8.541  20.312  0.00  0.00    +0.000 A 
ATOM     23  C   UNL     1       2.163   7.748  19.461  0.00  0.00    +0.000 A 
ATOM     24  C   UNL     1       2.494   8.177  18.176  0.00  0.00    +0.000 A 
ATOM     25  C   UNL     1       1.924   9.382  17.737  0.00  0.00    +0.000 A 
ATOM     26  C   UNL     1       1.117  10.161  18.585  0.00  0.00    +0.000 A 
BRANCH  21  27
ATOM     27  N   UNL     1       0.137  10.625  20.772  0.00  0.00    +0.000 N 
BRANCH  27  29
ATOM     28  C   UNL     1      -0.153   9.876  23.148  0.00  0.00    +0.000 C 
ATOM     29  C   UNL     1      -0.748   9.967  21.751  0.00  0.00    +0.000 C 
ENDBRANCH  27  29
BRANCH  27  30
ATOM     30  C   UNL     1      -0.271  11.924  20.208  0.00  0.00    +0.000 C 
ATOM     31  C   UNL     1      -1.754  11.984  19.866  0.00  0.00    +0.000 C 
ENDBRANCH  27  30
ENDBRANCH  21  27
ENDBRANCH  20  24
ENDBRANCH   1  20
TORSDOF 9
ENDMDL
MODEL 3
REMARK VINA RESULT:      -7.7      0.526      1.055
REMARK  Name = 
REMARK  13 active torsions:
REMARK  status: ('A' for Active; 'I' for Inactive)
REMARK    1  A    between atoms: C_1  and  C_2
REMARK    2  A    between atoms: C_2  and  N_3
REMARK    3  A    between atoms: N_3  and  C_4
REMARK    4  A    between atoms: N_3  and  C_6
REMARK    5  A    between atoms: C_4  and  C_5
REMARK    6  A    between atoms: C_9  and  C_10
REMARK    7  A    between atoms: C_10  and  N_11
REMARK    8  A    between atoms: N_11  and  C_12
REMARK    9  A    between atoms: N_11  and  S_19
REMARK   10  A    between atoms: C_15  and  C_16
REMARK   11  A    between atoms: S_19  and  C_22
REMARK   12  A    between atoms: C_25  and  O_26
REMARK   13  A    between atoms: O_26  and  C_27
REMARK                            x       y       z     vdW  Elec       q    Type
REMARK                         _______ _______ _______ _____ _____    ______ ____
ROOT
ATOM      1  N   UNL     1       4.189   5.955  17.645  0.00  0.00    +0.000 N 
ENDROOT
BRANCH   1   2
ATOM      2  C   UNL     1       3.457   5.085  18.519  0.00  0.00    +0.000 A 
ATOM      3  C   UNL     1       3.768   4.953  19.872  0.00  0.00    +0.000 A 
ATOM      4  C   UNL     1       2.983   4.127  20.693  0.00  0.00    +0.000 A 
ATOM      5  C   UNL     1       1.883   3.430  20.171  0.00  0.00    +0.000 A 
ATOM      6  C   UNL     1       0.983   2.611  21.051  0.00  0.00    +0.000 C 
ATOM      7  C   UNL     1       1.592   3.553  18.811  0.00  0.00    +0.000 A 
ATOM      8  C   UNL     1       2.383   4.361  17.992  0.00  0.00    +0.000 A 
ENDBRANCH   1   2
BRANCH   1   9
ATOM      9  S   UNL     1       5.869   5.798  17.542  0.00  0.00    +0.000 S 
ATOM     10  O   UNL     1       6.476   7.110  17.423  0.00  0.00    +0.000 OA
ATOM     11  O   UNL     1       6.287   4.899  18.597  0.00  0.00    +0.000 OA
BRANCH   9  12
ATOM     12  C   UNL     1       6.195   4.940  15.997  0.00  0.00    +0.000 A 
ATOM     13  C   UNL     1       5.257   4.050  15.472  0.00  0.00    +0.000 A 
ATOM     14  C   UNL     1       5.408   3.579  14.159  0.00  0.00    +0.000 A 
ATOM     15  C   UNL     1       6.466   4.019  13.357  0.00  0.00    +0.000 A 
ATOM     16  C   UNL     1       7.420   4.882  13.895  0.00  0.00    +0.000 A 
ATOM     17  C   UNL     1       7.281   5.349  15.209  0.00  0.00    +0.000 A 
BRANCH  15  18
ATOM     18  O   UNL     1       6.489   3.532  12.078  0.00  0.00    +0.000 OA
ATOM     19  C   UNL     1       5.341   2.781  11.686  0.00  0.00    +0.000 C 
ENDBRANCH  15  18
ENDBRANCH   9  12
ENDBRANCH   1   9
BRANCH   1  20
ATOM     20  C   UNL     1       3.546   7.183  17.128  0.00  0.00    +0.000 C 
BRANCH  20  24
ATOM     21  C   UNL     1       0.877   9.250  19.935  0.00  0.00    +0.000 A 
ATOM     22  C   UNL     1       1.051   9.715  18.624  0.00  0.00    +0.000 A 
ATOM     23  C   UNL     1       1.935   9.097  17.723  0.00  0.00    +0.000 A 
ATOM     24  C   UNL     1       2.656   7.960  18.085  0.00  0.00    +0.000 A 
ATOM     25  C   UNL     1       2.537   7.523  19.414  0.00  0.00    +0.000 A 
ATOM     26  C   UNL     1       1.668   8.159  20.318  0.00  0.00    +0.000 A 
BRANCH  21  27
ATOM     27  N   UNL     1      -0.069   9.799  20.821  0.00  0.00    +0.000 N 
BRANCH  27  29
ATOM     28  C   UNL     1      -1.285  11.978  20.569  0.00  0.00    +0.000 C 
ATOM     29  C   UNL     1      -0.019  11.261  21.010  0.00  0.00    +0.000 C 
ENDBRANCH  27  29
BRANCH  27  30
ATOM     30  C   UNL     1      -0.450   8.949  21.963  0.00  0.00    +0.000 C 
ATOM     31  C   UNL     1      -0.048   9.543  23.306  0.00  0.00    +0.000 C 
ENDBRANCH  27  30
ENDBRANCH  21  27
ENDBRANCH  20  24
ENDBRANCH   1  20
TORSDOF 9
ENDMDL
MODEL 4
REMARK VINA RESULT:      -7.6      2.152      3.509
REMARK  Name = 
REMARK  13 active torsions:
REMARK  status: ('A' for Active; 'I' for Inactive)
REMARK    1  A    between atoms: C_1  and  C_2
REMARK    2  A    between atoms: C_2  and  N_3
REMARK    3  A    between atoms: N_3  and  C_4
REMARK    4  A    between atoms: N_3  and  C_6
REMARK    5  A    between atoms: C_4  and  C_5
REMARK    6  A    between atoms: C_9  and  C_10
REMARK    7  A    between atoms: C_10  and  N_11
REMARK    8  A    between atoms: N_11  and  C_12
REMARK    9  A    between atoms: N_11  and  S_19
REMARK   10  A    between atoms: C_15  and  C_16
REMARK   11  A    between atoms: S_19  and  C_22
REMARK   12  A    between atoms: C_25  and  O_26
REMARK   13  A    between atoms: O_26  and  C_27
REMARK                            x       y       z     vdW  Elec       q    Type
REMARK                         _______ _______ _______ _____ _____    ______ ____
ROOT
ATOM      1  N   UNL     1       3.782   5.675  17.416  0.00  0.00    +0.000 N 
ENDROOT
BRANCH   1   2
ATOM      2  C   UNL     1       3.074   4.951  18.433  0.00  0.00    +0.000 A 
ATOM      3  C   UNL     1       1.821   4.383  18.207  0.00  0.00    +0.000 A 
ATOM      4  C   UNL     1       1.198   3.638  19.222  0.00  0.00    +0.000 A 
ATOM      5  C   UNL     1       1.822   3.452  20.464  0.00  0.00    +0.000 A 
ATOM      6  C   UNL     1       1.210   2.588  21.529  0.00  0.00    +0.000 C 
ATOM      7  C   UNL     1       3.068   4.041  20.687  0.00  0.00    +0.000 A 
ATOM      8  C   UNL     1       3.679   4.796  19.683  0.00  0.00    +0.000 A 
ENDBRANCH   1   2
BRANCH   1   9
ATOM      9  S   UNL     1       5.198   5.018  16.768  0.00  0.00    +0.000 S 
ATOM     10  O   UNL     1       5.432   3.706  17.341  0.00  0.00    +0.000 OA
ATOM     11  O   UNL     1       5.135   5.181  15.331  0.00  0.00    +0.000 OA
BRANCH   9  12
ATOM     12  C   UNL     1       6.539   6.071  17.332  0.00  0.00    +0.000 A 
ATOM     13  C   UNL     1       6.700   7.353  16.805  0.00  0.00    +0.000 A 
ATOM     14  C   UNL     1       7.587   8.250  17.421  0.00  0.00    +0.000 A 
ATOM     15  C   UNL     1       8.284   7.886  18.578  0.00  0.00    +0.000 A 
ATOM     16  C   UNL     1       8.148   6.594  19.083  0.00  0.00    +0.000 A 
ATOM     17  C   UNL     1       7.270   5.691  18.468  0.00  0.00    +0.000 A 
BRANCH  15  18
ATOM     18  O   UNL     1       9.086   8.855  19.121  0.00  0.00    +0.000 OA
ATOM     19  C   UNL     1       9.050  10.121  18.465  0.00  0.00    +0.000 C 
ENDBRANCH  15  18
ENDBRANCH   9  12
ENDBRANCH   1   9
BRANCH   1  20
ATOM     20  C   UNL     1       3.486   7.109  17.199  0.00  0.00    +0.000 C 
BRANCH  20  24
ATOM     21  C   UNL     1       0.870   9.241  20.008  0.00  0.00    +0.000 A 
ATOM     22  C   UNL     1       1.634   8.140  20.421  0.00  0.00    +0.000 A 
ATOM     23  C   UNL     1       2.442   7.415  19.530  0.00  0.00    +0.000 A 
ATOM     24  C   UNL     1       2.550   7.784  18.189  0.00  0.00    +0.000 A 
ATOM     25  C   UNL     1       1.742   8.845  17.751  0.00  0.00    +0.000 A 
ATOM     26  C   UNL     1       0.918   9.554  18.644  0.00  0.00    +0.000 A 
BRANCH  21  27
ATOM     27  N   UNL     1       0.128  10.035  20.902  0.00  0.00    +0.000 N 
BRANCH  27  29
ATOM     28  C   UNL     1      -0.390  12.461  21.269  0.00  0.00    +0.000 C 
ATOM     29  C   UNL     1       0.671  11.374  21.196  0.00  0.00    +0.000 C 
ENDBRANCH  27  29
BRANCH  27  30
ATOM     30  C   UNL     1      -0.582   9.307  21.970  0.00  0.00    +0.000 C 
ATOM     31  C   UNL     1       0.045   9.509  23.344  0.00  0.00    +0.000 C 
ENDBRANCH  27  30
ENDBRANCH  21  27
ENDBRANCH  20  24
ENDBRANCH   1  20
TORSDOF 9
ENDMDL
MODEL 5
REMARK VINA RESULT:      -7.6      4.408     10.374
REMARK  Name = 
REMARK  13 active torsions:
REMARK  status: ('A' for Active; 'I' for Inactive)
REMARK    1  A    between atoms: C_1  and  C_2
REMARK    2  A    between atoms: C_2  and  N_3
REMARK    3  A    between atoms: N_3  and  C_4
REMARK    4  A    between atoms: N_3  and  C_6
REMARK    5  A    between atoms: C_4  and  C_5
REMARK    6  A    between atoms: C_9  and  C_10
REMARK    7  A    between atoms: C_10  and  N_11
REMARK    8  A    between atoms: N_11  and  C_12
REMARK    9  A    between atoms: N_11  and  S_19
REMARK   10  A    between atoms: C_15  and  C_16
REMARK   11  A    between atoms: S_19  and  C_22
REMARK   12  A    between atoms: C_25  and  O_26
REMARK   13  A    between atoms: O_26  and  C_27
REMARK                            x       y       z     vdW  Elec       q    Type
REMARK                         _______ _______ _______ _____ _____    ______ ____
ROOT
ATOM      1  N   UNL     1       0.260  11.386  19.515  0.00  0.00    +0.000 N 
ENDROOT
BRANCH   1   2
ATOM      2  C   UNL     1       1.286  12.385  19.607  0.00  0.00    +0.000 A 
ATOM      3  C   UNL     1       1.590  13.033  20.804  0.00  0.00    +0.000 A 
ATOM      4  C   UNL     1       2.640  13.964  20.847  0.00  0.00    +0.000 A 
ATOM      5  C   UNL     1       3.395  14.252  19.701  0.00  0.00    +0.000 A 
ATOM      6  C   UNL     1       4.574  15.180  19.749  0.00  0.00    +0.000 C 
ATOM      7  C   UNL     1       3.069  13.613  18.503  0.00  0.00    +0.000 A 
ATOM      8  C   UNL     1       2.014  12.700  18.456  0.00  0.00    +0.000 A 
ENDBRANCH   1   2
BRANCH   1   9
ATOM      9  S   UNL     1      -1.227  11.792  18.821  0.00  0.00    +0.000 S 
ATOM     10  O   UNL     1      -1.062  12.942  17.952  0.00  0.00    +0.000 OA
ATOM     11  O   UNL     1      -1.814  10.572  18.305  0.00  0.00    +0.000 OA
BRANCH   9  12
ATOM     12  C   UNL     1      -2.282  12.319  20.176  0.00  0.00    +0.000 A 
ATOM     13  C   UNL     1      -3.641  12.556  19.962  0.00  0.00    +0.000 A 
ATOM     14  C   UNL     1      -4.496  12.725  21.062  0.00  0.00    +0.000 A 
ATOM     15  C   UNL     1      -4.010  12.622  22.370  0.00  0.00    +0.000 A 
ATOM     16  C   UNL     1      -2.647  12.419  22.580  0.00  0.00    +0.000 A 
ATOM     17  C   UNL     1      -1.786  12.259  21.487  0.00  0.00    +0.000 A 
BRANCH  15  18
ATOM     18  O   UNL     1      -4.941  12.757  23.365  0.00  0.00    +0.000 OA
ATOM     19  C   UNL     1      -4.510  12.363  24.667  0.00  0.00    +0.000 C 
ENDBRANCH  15  18
ENDBRANCH   9  12
ENDBRANCH   1   9
BRANCH   1  20
ATOM     20  C   UNL     1       0.366  10.151  20.323  0.00  0.00    +0.000 C 
BRANCH  20  24
ATOM     21  C   UNL     1       2.743   6.895  18.583  0.00  0.00    +0.000 A 
ATOM     22  C   UNL     1       2.371   6.879  19.935  0.00  0.00    +0.000 A 
ATOM     23  C   UNL     1       1.650   7.932  20.524  0.00  0.00    +0.000 A 
ATOM     24  C   UNL     1       1.237   9.032  19.773  0.00  0.00    +0.000 A 
ATOM     25  C   UNL     1       1.658   9.088  18.435  0.00  0.00    +0.000 A 
ATOM     26  C   UNL     1       2.398   8.041  17.857  0.00  0.00    +0.000 A 
BRANCH  21  27
ATOM     27  N   UNL     1       3.384   5.811  17.955  0.00  0.00    +0.000 N 
BRANCH  27  29
ATOM     28  C   UNL     1       2.615   3.553  17.180  0.00  0.00    +0.000 C 
ATOM     29  C   UNL     1       2.935   4.464  18.355  0.00  0.00    +0.000 C 
ENDBRANCH  27  29
BRANCH  27  30
ATOM     30  C   UNL     1       4.803   6.013  17.613  0.00  0.00    +0.000 C 
ATOM     31  C   UNL     1       5.039   6.155  16.115  0.00  0.00    +0.000 C 
ENDBRANCH  27  30
ENDBRANCH  21  27
ENDBRANCH  20  24
ENDBRANCH   1  20
TORSDOF 9
ENDMDL
MODEL 6
REMARK VINA RESULT:      -7.6      4.399      7.796
REMARK  Name = 
REMARK  13 active torsions:
REMARK  status: ('A' for Active; 'I' for Inactive)
REMARK    1  A    between atoms: C_1  and  C_2
REMARK    2  A    between atoms: C_2  and  N_3
REMARK    3  A    between atoms: N_3  and  C_4
REMARK    4  A    between atoms: N_3  and  C_6
REMARK    5  A    between atoms: C_4  and  C_5
REMARK    6  A    between atoms: C_9  and  C_10
REMARK    7  A    between atoms: C_10  and  N_11
REMARK    8  A    between atoms: N_11  and  C_12
REMARK    9  A    between atoms: N_11  and  S_19
REMARK   10  A    between atoms: C_15  and  C_16
REMARK   11  A    between atoms: S_19  and  C_22
REMARK   12  A    between atoms: C_25  and  O_26
REMARK   13  A    between atoms: O_26  and  C_27
REMARK                            x       y       z     vdW  Elec       q    Type
REMARK                         _______ _______ _______ _____ _____    ______ ____
ROOT
ATOM      1  N   UNL     1       0.295  10.851  19.360  0.00  0.00    +0.000 N 
ENDROOT
BRANCH   1   2
ATOM      2  C   UNL     1       1.038  12.072  19.239  0.00  0.00    +0.000 A 
ATOM      3  C   UNL     1       2.168  12.179  18.429  0.00  0.00    +0.000 A 
ATOM      4  C   UNL     1       2.826  13.413  18.306  0.00  0.00    +0.000 A 
ATOM      5  C   UNL     1       2.360  14.548  18.986  0.00  0.00    +0.000 A 
ATOM      6  C   UNL     1       3.000  15.893  18.799  0.00  0.00    +0.000 C 
ATOM      7  C   UNL     1       1.240  14.426  19.810  0.00  0.00    +0.000 A 
ATOM      8  C   UNL     1       0.596  13.194  19.946  0.00  0.00    +0.000 A 
ENDBRANCH   1   2
BRANCH   1   9
ATOM      9  S   UNL     1       0.628   9.806  20.647  0.00  0.00    +0.000 S 
ATOM     10  O   UNL     1       1.473  10.480  21.615  0.00  0.00    +0.000 OA
ATOM     11  O   UNL     1      -0.627   9.217  21.065  0.00  0.00    +0.000 OA
BRANCH   9  12
ATOM     12  C   UNL     1       1.605   8.465  19.959  0.00  0.00    +0.000 A 
ATOM     13  C   UNL     1       1.669   7.232  20.610  0.00  0.00    +0.000 A 
ATOM     14  C   UNL     1       2.226   6.126  19.948  0.00  0.00    +0.000 A 
ATOM     15  C   UNL     1       2.682   6.236  18.630  0.00  0.00    +0.000 A 
ATOM     16  C   UNL     1       2.646   7.476  17.993  0.00  0.00    +0.000 A 
ATOM     17  C   UNL     1       2.101   8.586  18.652  0.00  0.00    +0.000 A 
BRANCH  15  18
ATOM     18  O   UNL     1       3.161   5.084  18.066  0.00  0.00    +0.000 OA
ATOM     19  C   UNL     1       2.193   4.059  17.846  0.00  0.00    +0.000 C 
ENDBRANCH  15  18
ENDBRANCH   9  12
ENDBRANCH   1   9
BRANCH   1  20
ATOM     20  C   UNL     1      -0.481  10.349  18.205  0.00  0.00    +0.000 C 
BRANCH  20  24
ATOM     21  C   UNL     1      -4.755  11.357  18.246  0.00  0.00    +0.000 A 
ATOM     22  C   UNL     1      -4.247  10.386  17.371  0.00  0.00    +0.000 A 
ATOM     23  C   UNL     1      -2.877  10.081  17.308  0.00  0.00    +0.000 A 
ATOM     24  C   UNL     1      -1.958  10.708  18.149  0.00  0.00    +0.000 A 
ATOM     25  C   UNL     1      -2.446  11.725  18.984  0.00  0.00    +0.000 A 
ATOM     26  C   UNL     1      -3.816  12.043  19.026  0.00  0.00    +0.000 A 
BRANCH  21  27
ATOM     27  N   UNL     1      -6.132  11.612  18.388  0.00  0.00    +0.000 N 
BRANCH  27  29
ATOM     28  C   UNL     1      -7.428  10.726  20.344  0.00  0.00    +0.000 C 
ATOM     29  C   UNL     1      -6.951  10.505  18.917  0.00  0.00    +0.000 C 
ENDBRANCH  27  29
BRANCH  27  30
ATOM     30  C   UNL     1      -6.724  12.518  17.388  0.00  0.00    +0.000 C 
ATOM     31  C   UNL     1      -6.797  13.963  17.866  0.00  0.00    +0.000 C 
ENDBRANCH  27  30
ENDBRANCH  21  27
ENDBRANCH  20  24
ENDBRANCH   1  20
TORSDOF 9
ENDMDL
MODEL 7
REMARK VINA RESULT:      -7.6      0.589      1.420
REMARK  Name = 
REMARK  13 active torsions:
REMARK  status: ('A' for Active; 'I' for Inactive)
REMARK    1  A    between atoms: C_1  and  C_2
REMARK    2  A    between atoms: C_2  and  N_3
REMARK    3  A    between atoms: N_3  and  C_4
REMARK    4  A    between atoms: N_3  and  C_6
REMARK    5  A    between atoms: C_4  and  C_5
REMARK    6  A    between atoms: C_9  and  C_10
REMARK    7  A    between atoms: C_10  and  N_11
REMARK    8  A    between atoms: N_11  and  C_12
REMARK    9  A    between atoms: N_11  and  S_19
REMARK   10  A    between atoms: C_15  and  C_16
REMARK   11  A    between atoms: S_19  and  C_22
REMARK   12  A    between atoms: C_25  and  O_26
REMARK   13  A    between atoms: O_26  and  C_27
REMARK                            x       y       z     vdW  Elec       q    Type
REMARK                         _______ _______ _______ _____ _____    ______ ____
ROOT
ATOM      1  N   UNL     1       3.872   5.428  18.222  0.00  0.00    +0.000 N 
ENDROOT
BRANCH   1   2
ATOM      2  C   UNL     1       3.065   4.664  19.130  0.00  0.00    +0.000 A 
ATOM      3  C   UNL     1       2.065   3.798  18.689  0.00  0.00    +0.000 A 
ATOM      4  C   UNL     1       1.342   3.034  19.620  0.00  0.00    +0.000 A 
ATOM      5  C   UNL     1       1.613   3.127  20.993  0.00  0.00    +0.000 A 
ATOM      6  C   UNL     1       0.909   2.257  21.994  0.00  0.00    +0.000 C 
ATOM      7  C   UNL     1       2.602   4.012  21.425  0.00  0.00    +0.000 A 
ATOM      8  C   UNL     1       3.310   4.784  20.501  0.00  0.00    +0.000 A 
ENDBRANCH   1   2
BRANCH   1   9
ATOM      9  S   UNL     1       5.553   5.264  18.275  0.00  0.00    +0.000 S 
ATOM     10  O   UNL     1       6.164   6.565  18.472  0.00  0.00    +0.000 OA
ATOM     11  O   UNL     1       5.856   4.176  19.182  0.00  0.00    +0.000 OA
BRANCH   9  12
ATOM     12  C   UNL     1       6.051   4.706  16.642  0.00  0.00    +0.000 A 
ATOM     13  C   UNL     1       5.257   3.805  15.931  0.00  0.00    +0.000 A 
ATOM     14  C   UNL     1       5.523   3.568  14.573  0.00  0.00    +0.000 A 
ATOM     15  C   UNL     1       6.550   4.253  13.914  0.00  0.00    +0.000 A 
ATOM     16  C   UNL     1       7.363   5.127  14.635  0.00  0.00    +0.000 A 
ATOM     17  C   UNL     1       7.109   5.360  15.993  0.00  0.00    +0.000 A 
BRANCH  15  18
ATOM     18  O   UNL     1       6.690   3.980  12.580  0.00  0.00    +0.000 OA
ATOM     19  C   UNL     1       5.720   3.088  12.031  0.00  0.00    +0.000 C 
ENDBRANCH  15  18
ENDBRANCH   9  12
ENDBRANCH   1   9
BRANCH   1  20
ATOM     20  C   UNL     1       3.281   6.584  17.513  0.00  0.00    +0.000 C 
BRANCH  20  24
ATOM     21  C   UNL     1       0.875   9.309  19.976  0.00  0.00    +0.000 A 
ATOM     22  C   UNL     1       1.124   9.583  18.624  0.00  0.00    +0.000 A 
ATOM     23  C   UNL     1       1.929   8.750  17.829  0.00  0.00    +0.000 A 
ATOM     24  C   UNL     1       2.490   7.582  18.345  0.00  0.00    +0.000 A 
ATOM     25  C   UNL     1       2.298   7.330  19.713  0.00  0.00    +0.000 A 
ATOM     26  C   UNL     1       1.510   8.180  20.509  0.00  0.00    +0.000 A 
BRANCH  21  27
ATOM     27  N   UNL     1      -0.002  10.080  20.762  0.00  0.00    +0.000 N 
BRANCH  27  29
ATOM     28  C   UNL     1      -1.580  11.652  19.611  0.00  0.00    +0.000 C 
ATOM     29  C   UNL     1      -0.243  11.463  20.310  0.00  0.00    +0.000 C 
ENDBRANCH  27  29
BRANCH  27  30
ATOM     30  C   UNL     1       0.019   9.801  22.209  0.00  0.00    +0.000 C 
ATOM     31  C   UNL     1      -0.945  10.678  22.997  0.00  0.00    +0.000 C 
ENDBRANCH  27  30
ENDBRANCH  21  27
ENDBRANCH  20  24
ENDBRANCH   1  20
TORSDOF 9
ENDMDL
MODEL 8
REMARK VINA RESULT:      -7.6      4.624      9.211
REMARK  Name = 
REMARK  13 active torsions:
REMARK  status: ('A' for Active; 'I' for Inactive)
REMARK    1  A    between atoms: C_1  and  C_2
REMARK    2  A    between atoms: C_2  and  N_3
REMARK    3  A    between atoms: N_3  and  C_4
REMARK    4  A    between atoms: N_3  and  C_6
REMARK    5  A    between atoms: C_4  and  C_5
REMARK    6  A    between atoms: C_9  and  C_10
REMARK    7  A    between atoms: C_10  and  N_11
REMARK    8  A    between atoms: N_11  and  C_12
REMARK    9  A    between atoms: N_11  and  S_19
REMARK   10  A    between atoms: C_15  and  C_16
REMARK   11  A    between atoms: S_19  and  C_22
REMARK   12  A    between atoms: C_25  and  O_26
REMARK   13  A    between atoms: O_26  and  C_27
REMARK                            x       y       z     vdW  Elec       q    Type
REMARK                         _______ _______ _______ _____ _____    ______ ____
ROOT
ATOM      1  N   UNL     1       0.007  11.725  20.264  0.00  0.00    +0.000 N 
ENDROOT
BRANCH   1   2
ATOM      2  C   UNL     1       1.098  12.561  19.851  0.00  0.00    +0.000 A 
ATOM      3  C   UNL     1       2.027  13.073  20.755  0.00  0.00    +0.000 A 
ATOM      4  C   UNL     1       3.106  13.842  20.290  0.00  0.00    +0.000 A 
ATOM      5  C   UNL     1       3.266  14.102  18.920  0.00  0.00    +0.000 A 
ATOM      6  C   UNL     1       4.458  14.850  18.397  0.00  0.00    +0.000 C 
ATOM      7  C   UNL     1       2.319  13.601  18.025  0.00  0.00    +0.000 A 
ATOM      8  C   UNL     1       1.237  12.851  18.491  0.00  0.00    +0.000 A 
ENDBRANCH   1   2
BRANCH   1   9
ATOM      9  S   UNL     1      -1.565  12.345  20.236  0.00  0.00    +0.000 S 
ATOM     10  O   UNL     1      -2.261  11.964  21.450  0.00  0.00    +0.000 OA
ATOM     11  O   UNL     1      -1.475  13.741  19.859  0.00  0.00    +0.000 OA
BRANCH   9  12
ATOM     12  C   UNL     1      -2.404  11.516  18.881  0.00  0.00    +0.000 A 
ATOM     13  C   UNL     1      -3.706  11.874  18.532  0.00  0.00    +0.000 A 
ATOM     14  C   UNL     1      -4.258  11.401  17.331  0.00  0.00    +0.000 A 
ATOM     15  C   UNL     1      -3.503  10.604  16.462  0.00  0.00    +0.000 A 
ATOM     16  C   UNL     1      -2.214  10.220  16.829  0.00  0.00    +0.000 A 
ATOM     17  C   UNL     1      -1.662  10.682  18.031  0.00  0.00    +0.000 A 
BRANCH  15  18
ATOM     18  O   UNL     1      -4.124  10.239  15.297  0.00  0.00    +0.000 OA
ATOM     19  C   UNL     1      -3.280  10.162  14.149  0.00  0.00    +0.000 C 
ENDBRANCH  15  18
ENDBRANCH   9  12
ENDBRANCH   1   9
BRANCH   1  20
ATOM     20  C   UNL     1       0.282  10.488  21.028  0.00  0.00    +0.000 C 
BRANCH  20  24
ATOM     21  C   UNL     1       2.404   7.329  18.839  0.00  0.00    +0.000 A 
ATOM     22  C   UNL     1       2.037   7.160  20.182  0.00  0.00    +0.000 A 
ATOM     23  C   UNL     1       1.400   8.174  20.915  0.00  0.00    +0.000 A 
ATOM     24  C   UNL     1       1.065   9.392  20.323  0.00  0.00    +0.000 A 
ATOM     25  C   UNL     1       1.482   9.595  18.998  0.00  0.00    +0.000 A 
ATOM     26  C   UNL     1       2.141   8.584  18.276  0.00  0.00    +0.000 A 
BRANCH  21  27
ATOM     27  N   UNL     1       2.959   6.294  18.063  0.00  0.00    +0.000 N 
BRANCH  27  29
ATOM     28  C   UNL     1       3.195   4.002  19.053  0.00  0.00    +0.000 C 
ATOM     29  C   UNL     1       2.354   4.959  18.222  0.00  0.00    +0.000 C 
ENDBRANCH  27  29
BRANCH  27  30
ATOM     30  C   UNL     1       4.408   6.390  17.806  0.00  0.00    +0.000 C 
ATOM     31  C   UNL     1       4.794   5.936  16.405  0.00  0.00    +0.000 C 
ENDBRANCH  27  30
ENDBRANCH  21  27
ENDBRANCH  20  24
ENDBRANCH   1  20
TORSDOF 9
ENDMDL
MODEL 9
REMARK VINA RESULT:      -7.6      4.437     10.509
REMARK  Name = 
REMARK  13 active torsions:
REMARK  status: ('A' for Active; 'I' for Inactive)
REMARK    1  A    between atoms: C_1  and  C_2
REMARK    2  A    between atoms: C_2  and  N_3
REMARK    3  A    between atoms: N_3  and  C_4
REMARK    4  A    between atoms: N_3  and  C_6
REMARK    5  A    between atoms: C_4  and  C_5
REMARK    6  A    between atoms: C_9  and  C_10
REMARK    7  A    between atoms: C_10  and  N_11
REMARK    8  A    between atoms: N_11  and  C_12
REMARK    9  A    between atoms: N_11  and  S_19
REMARK   10  A    between atoms: C_15  and  C_16
REMARK   11  A    between atoms: S_19  and  C_22
REMARK   12  A    between atoms: C_25  and  O_26
REMARK   13  A    between atoms: O_26  and  C_27
REMARK                            x       y       z     vdW  Elec       q    Type
REMARK                         _______ _______ _______ _____ _____    ______ ____
ROOT
ATOM      1  N   UNL     1       0.326  11.490  19.481  0.00  0.00    +0.000 N 
ENDROOT
BRANCH   1   2
ATOM      2  C   UNL     1       1.194  12.622  19.325  0.00  0.00    +0.000 A 
ATOM      3  C   UNL     1       2.234  12.640  18.396  0.00  0.00    +0.000 A 
ATOM      4  C   UNL     1       3.019  13.794  18.248  0.00  0.00    +0.000 A 
ATOM      5  C   UNL     1       2.770  14.938  19.022  0.00  0.00    +0.000 A 
ATOM      6  C   UNL     1       3.544  16.208  18.817  0.00  0.00    +0.000 C 
ATOM      7  C   UNL     1       1.740  14.903  19.963  0.00  0.00    +0.000 A 
ATOM      8  C   UNL     1       0.971  13.748  20.122  0.00  0.00    +0.000 A 
ENDBRANCH   1   2
BRANCH   1   9
ATOM      9  S   UNL     1      -1.270  11.593  18.933  0.00  0.00    +0.000 S 
ATOM     10  O   UNL     1      -1.355  12.568  17.862  0.00  0.00    +0.000 OA
ATOM     11  O   UNL     1      -1.745  10.241  18.722  0.00  0.00    +0.000 OA
BRANCH   9  12
ATOM     12  C   UNL     1      -2.226  12.250  20.304  0.00  0.00    +0.000 A 
ATOM     13  C   UNL     1      -3.548  12.657  20.112  0.00  0.00    +0.000 A 
ATOM     14  C   UNL     1      -4.356  12.934  21.225  0.00  0.00    +0.000 A 
ATOM     15  C   UNL     1      -3.865  12.771  22.525  0.00  0.00    +0.000 A 
ATOM     16  C   UNL     1      -2.536  12.397  22.714  0.00  0.00    +0.000 A 
ATOM     17  C   UNL     1      -1.720  12.128  21.607  0.00  0.00    +0.000 A 
BRANCH  15  18
ATOM     18  O   UNL     1      -4.755  13.023  23.536  0.00  0.00    +0.000 OA
ATOM     19  C   UNL     1      -4.501  12.340  24.762  0.00  0.00    +0.000 C 
ENDBRANCH  15  18
ENDBRANCH   9  12
ENDBRANCH   1   9
BRANCH   1  20
ATOM     20  C   UNL     1       0.701  10.403  20.412  0.00  0.00    +0.000 C 
BRANCH  20  24
ATOM     21  C   UNL     1       2.455   6.839  18.541  0.00  0.00    +0.000 A 
ATOM     22  C   UNL     1       2.175   6.874  19.914  0.00  0.00    +0.000 A 
ATOM     23  C   UNL     1       1.657   8.018  20.542  0.00  0.00    +0.000 A 
ATOM     24  C   UNL     1       1.360   9.170  19.813  0.00  0.00    +0.000 A 
ATOM     25  C   UNL     1       1.695   9.168  18.450  0.00  0.00    +0.000 A 
ATOM     26  C   UNL     1       2.235   8.026  17.831  0.00  0.00    +0.000 A 
BRANCH  21  27
ATOM     27  N   UNL     1       2.888   5.675  17.879  0.00  0.00    +0.000 N 
BRANCH  27  29
ATOM     28  C   UNL     1       2.561   3.258  17.295  0.00  0.00    +0.000 C 
ATOM     29  C   UNL     1       2.035   4.481  18.030  0.00  0.00    +0.000 C 
ENDBRANCH  27  29
BRANCH  27  30
ATOM     30  C   UNL     1       4.347   5.496  17.779  0.00  0.00    +0.000 C 
ATOM     31  C   UNL     1       4.924   6.039  16.478  0.00  0.00    +0.000 C 
ENDBRANCH  27  30
ENDBRANCH  21  27
ENDBRANCH  20  24
ENDBRANCH   1  20
TORSDOF 9
ENDMDL
