MODEL 1
REMARK VINA RESULT:      -7.7      0.000      0.000
REMARK  Name = 
REMARK  6 active torsions:
REMARK  status: ('A' for Active; 'I' for Inactive)
REMARK    1  A    between atoms: C_1  and  S_2
REMARK    2  A    between atoms: S_2  and  C_3
REMARK    3  A    between atoms: C_6  and  C_7
REMARK    4  A    between atoms: C_11  and  C_12
REMARK    5  A    between atoms: C_15  and  S_16
REMARK    6  A    between atoms: S_16  and  C_17
REMARK                            x       y       z     vdW  Elec       q    Type
REMARK                         _______ _______ _______ _____ _____    ______ ____
ROOT
ATOM      1  C   UNL     1       3.417   3.919  19.533  0.00  0.00    +0.000 A 
ATOM      2  C   UNL     1       3.366   2.682  20.154  0.00  0.00    +0.000 A 
ATOM      3  S   UNL     1       2.296   2.636  21.481  0.00  0.00    +0.000 S 
ATOM      4  C   UNL     1       1.876   4.274  21.258  0.00  0.00    +0.000 A 
ATOM      5  C   UNL     1       2.527   4.871  20.188  0.00  0.00    +0.000 A 
ENDROOT
BRANCH   1   9
ATOM      6  C   UNL     1       6.035   4.570  16.187  0.00  0.00    +0.000 A 
ATOM      7  C   UNL     1       4.786   3.977  16.000  0.00  0.00    +0.000 A 
ATOM      8  C   UNL     1       3.930   3.770  17.091  0.00  0.00    +0.000 A 
ATOM      9  C   UNL     1       4.323   4.116  18.390  0.00  0.00    +0.000 A 
ATOM     10  C   UNL     1       5.600   4.662  18.573  0.00  0.00    +0.000 A 
ATOM     11  C   UNL     1       6.439   4.911  17.478  0.00  0.00    +0.000 A 
BRANCH   6  13
ATOM     12  C   UNL     1       6.215   3.861  13.535  0.00  0.00    +0.000 C 
ATOM     13  S   UNL     1       7.112   4.814  14.789  0.00  0.00    +0.000 S 
ENDBRANCH   6  13
ENDBRANCH   1   9
BRANCH   5  14
ATOM     14  C   UNL     1       2.273   6.285  19.863  0.00  0.00    +0.000 A 
ATOM     15  C   UNL     1       2.526   6.795  18.579  0.00  0.00    +0.000 A 
ATOM     16  C   UNL     1       2.191   8.114  18.248  0.00  0.00    +0.000 A 
ATOM     17  C   UNL     1       1.567   8.920  19.198  0.00  0.00    +0.000 A 
ATOM     18  C   UNL     1       1.350   8.454  20.494  0.00  0.00    +0.000 A 
ATOM     19  C   UNL     1       1.731   7.150  20.826  0.00  0.00    +0.000 A 
BRANCH  17  20
ATOM     20  S   UNL     1       1.069  10.570  18.768  0.00  0.00    +0.000 S 
ATOM     21  C   UNL     1       0.914  11.372  20.346  0.00  0.00    +0.000 C 
ATOM     22  O   UNL     1       2.167  11.188  18.055  0.00  0.00    +0.000 OA
ATOM     23  O   UNL     1      -0.256  10.485  18.176  0.00  0.00    +0.000 OA
ENDBRANCH  17  20
ENDBRANCH   5  14
TORSDOF 4
ENDMDL
MODEL 2
REMARK VINA RESULT:      -7.7      0.085      1.007
REMARK  Name = 
REMARK  6 active torsions:
REMARK  status: ('A' for Active; 'I' for Inactive)
REMARK    1  A    between atoms: C_1  and  S_2
REMARK    2  A    between atoms: S_2  and  C_3
REMARK    3  A    between atoms: C_6  and  C_7
REMARK    4  A    between atoms: C_11  and  C_12
REMARK    5  A    between atoms: C_15  and  S_16
REMARK    6  A    between atoms: S_16  and  C_17
REMARK                            x       y       z     vdW  Elec       q    Type
REMARK                         _______ _______ _______ _____ _____    ______ ____
ROOT
ATOM      1  C   UNL     1       3.418   4.002  19.510  0.00  0.00    +0.000 A 
ATOM      2  C   UNL     1       3.382   2.758  20.119  0.00  0.00    +0.000 A 
ATOM      3  S   UNL     1       2.327   2.691  21.456  0.00  0.00    +0.000 S 
ATOM      4  C   UNL     1       1.894   4.328  21.255  0.00  0.00    +0.000 A 
ATOM      5  C   UNL     1       2.529   4.941  20.184  0.00  0.00    +0.000 A 
ENDROOT
BRANCH   1   9
ATOM      6  C   UNL     1       6.050   4.554  16.157  0.00  0.00    +0.000 A 
ATOM      7  C   UNL     1       6.441   4.958  17.434  0.00  0.00    +0.000 A 
ATOM      8  C   UNL     1       5.584   4.772  18.529  0.00  0.00    +0.000 A 
ATOM      9  C   UNL     1       4.310   4.217  18.359  0.00  0.00    +0.000 A 
ATOM     10  C   UNL     1       3.907   3.864  17.065  0.00  0.00    +0.000 A 
ATOM     11  C   UNL     1       4.779   4.008  15.976  0.00  0.00    +0.000 A 
BRANCH   6  13
ATOM     12  C   UNL     1       6.264   3.881  13.497  0.00  0.00    +0.000 C 
ATOM     13  S   UNL     1       7.149   4.810  14.778  0.00  0.00    +0.000 S 
ENDBRANCH   6  13
ENDBRANCH   1   9
BRANCH   5  14
ATOM     14  C   UNL     1       2.262   6.356  19.877  0.00  0.00    +0.000 A 
ATOM     15  C   UNL     1       2.528   6.889  18.605  0.00  0.00    +0.000 A 
ATOM     16  C   UNL     1       2.182   8.208  18.290  0.00  0.00    +0.000 A 
ATOM     17  C   UNL     1       1.533   8.993  19.241  0.00  0.00    +0.000 A 
ATOM     18  C   UNL     1       1.303   8.503  20.527  0.00  0.00    +0.000 A 
ATOM     19  C   UNL     1       1.696   7.200  20.845  0.00  0.00    +0.000 A 
BRANCH  17  20
ATOM     20  S   UNL     1       1.021  10.642  18.829  0.00  0.00    +0.000 S 
ATOM     21  C   UNL     1       0.877  11.431  20.415  0.00  0.00    +0.000 C 
ATOM     22  O   UNL     1       2.109  11.273  18.111  0.00  0.00    +0.000 OA
ATOM     23  O   UNL     1      -0.308  10.554  18.250  0.00  0.00    +0.000 OA
ENDBRANCH  17  20
ENDBRANCH   5  14
TORSDOF 4
ENDMDL
MODEL 3
REMARK VINA RESULT:      -7.3      0.773      1.688
REMARK  Name = 
REMARK  6 active torsions:
REMARK  status: ('A' for Active; 'I' for Inactive)
REMARK    1  A    between atoms: C_1  and  S_2
REMARK    2  A    between atoms: S_2  and  C_3
REMARK    3  A    between atoms: C_6  and  C_7
REMARK    4  A    between atoms: C_11  and  C_12
REMARK    5  A    between atoms: C_15  and  S_16
REMARK    6  A    between atoms: S_16  and  C_17
REMARK                            x       y       z     vdW  Elec       q    Type
REMARK                         _______ _______ _______ _____ _____    ______ ____
ROOT
ATOM      1  C   UNL     1       3.518   3.875  19.561  0.00  0.00    +0.000 A 
ATOM      2  C   UNL     1       3.607   2.650  20.203  0.00  0.00    +0.000 A 
ATOM      3  S   UNL     1       2.585   2.524  21.561  0.00  0.00    +0.000 S 
ATOM      4  C   UNL     1       1.999   4.108  21.326  0.00  0.00    +0.000 A 
ATOM      5  C   UNL     1       2.557   4.747  20.227  0.00  0.00    +0.000 A 
ENDROOT
BRANCH   1   9
ATOM      6  C   UNL     1       6.028   4.572  16.142  0.00  0.00    +0.000 A 
ATOM      7  C   UNL     1       6.440   4.975  17.413  0.00  0.00    +0.000 A 
ATOM      8  C   UNL     1       5.623   4.742  18.529  0.00  0.00    +0.000 A 
ATOM      9  C   UNL     1       4.367   4.139  18.388  0.00  0.00    +0.000 A 
ATOM     10  C   UNL     1       3.941   3.787  17.101  0.00  0.00    +0.000 A 
ATOM     11  C   UNL     1       4.775   3.978  15.990  0.00  0.00    +0.000 A 
BRANCH   6  13
ATOM     12  C   UNL     1       6.228   3.887  13.484  0.00  0.00    +0.000 C 
ATOM     13  S   UNL     1       7.076   4.887  14.736  0.00  0.00    +0.000 S 
ENDBRANCH   6  13
ENDBRANCH   1   9
BRANCH   5  14
ATOM     14  C   UNL     1       2.156   6.123  19.889  0.00  0.00    +0.000 A 
ATOM     15  C   UNL     1       1.511   6.946  20.827  0.00  0.00    +0.000 A 
ATOM     16  C   UNL     1       1.221   8.283  20.533  0.00  0.00    +0.000 A 
ATOM     17  C   UNL     1       1.608   8.814  19.304  0.00  0.00    +0.000 A 
ATOM     18  C   UNL     1       2.204   8.005  18.337  0.00  0.00    +0.000 A 
ATOM     19  C   UNL     1       2.447   6.659  18.625  0.00  0.00    +0.000 A 
BRANCH  17  20
ATOM     20  S   UNL     1       1.314  10.529  18.948  0.00  0.00    +0.000 S 
ATOM     21  C   UNL     1      -0.330  10.527  18.271  0.00  0.00    +0.000 C 
ATOM     22  O   UNL     1       1.280  11.240  20.209  0.00  0.00    +0.000 OA
ATOM     23  O   UNL     1       2.233  10.919  17.892  0.00  0.00    +0.000 OA
ENDBRANCH  17  20
ENDBRANCH   5  14
TORSDOF 4
ENDMDL
MODEL 4
REMARK VINA RESULT:      -7.3      0.788      1.364
REMARK  Name = 
REMARK  6 active torsions:
REMARK  status: ('A' for Active; 'I' for Inactive)
REMARK    1  A    between atoms: C_1  and  S_2
REMARK    2  A    between atoms: S_2  and  C_3
REMARK    3  A    between atoms: C_6  and  C_7
REMARK    4  A    between atoms: C_11  and  C_12
REMARK    5  A    between atoms: C_15  and  S_16
REMARK    6  A    between atoms: S_16  and  C_17
REMARK                            x       y       z     vdW  Elec       q    Type
REMARK                         _______ _______ _______ _____ _____    ______ ____
ROOT
ATOM      1  C   UNL     1       3.477   3.870  19.611  0.00  0.00    +0.000 A 
ATOM      2  C   UNL     1       3.547   2.647  20.258  0.00  0.00    +0.000 A 
ATOM      3  S   UNL     1       2.498   2.529  21.595  0.00  0.00    +0.000 S 
ATOM      4  C   UNL     1       1.925   4.116  21.344  0.00  0.00    +0.000 A 
ATOM      5  C   UNL     1       2.508   4.749  20.255  0.00  0.00    +0.000 A 
ENDROOT
BRANCH   1   9
ATOM      6  C   UNL     1       5.996   4.691  16.225  0.00  0.00    +0.000 A 
ATOM      7  C   UNL     1       4.813   3.968  16.065  0.00  0.00    +0.000 A 
ATOM      8  C   UNL     1       3.988   3.706  17.169  0.00  0.00    +0.000 A 
ATOM      9  C   UNL     1       4.351   4.127  18.455  0.00  0.00    +0.000 A 
ATOM     10  C   UNL     1       5.567   4.805  18.611  0.00  0.00    +0.000 A 
ATOM     11  C   UNL     1       6.370   5.107  17.503  0.00  0.00    +0.000 A 
BRANCH   6  13
ATOM     12  C   UNL     1       6.247   3.909  13.599  0.00  0.00    +0.000 C 
ATOM     13  S   UNL     1       7.034   5.004  14.811  0.00  0.00    +0.000 S 
ENDBRANCH   6  13
ENDBRANCH   1   9
BRANCH   5  14
ATOM     14  C   UNL     1       2.120   6.126  19.905  0.00  0.00    +0.000 A 
ATOM     15  C   UNL     1       1.528   6.980  20.850  0.00  0.00    +0.000 A 
ATOM     16  C   UNL     1       1.252   8.317  20.541  0.00  0.00    +0.000 A 
ATOM     17  C   UNL     1       1.602   8.816  19.288  0.00  0.00    +0.000 A 
ATOM     18  C   UNL     1       2.146   7.976  18.315  0.00  0.00    +0.000 A 
ATOM     19  C   UNL     1       2.373   6.632  18.620  0.00  0.00    +0.000 A 
BRANCH  17  20
ATOM     20  S   UNL     1       1.327  10.529  18.909  0.00  0.00    +0.000 S 
ATOM     21  C   UNL     1      -0.299  10.530  18.191  0.00  0.00    +0.000 C 
ATOM     22  O   UNL     1       1.265  11.251  20.162  0.00  0.00    +0.000 OA
ATOM     23  O   UNL     1       2.275  10.904  17.873  0.00  0.00    +0.000 OA
ENDBRANCH  17  20
ENDBRANCH   5  14
TORSDOF 4
ENDMDL
MODEL 5
REMARK VINA RESULT:      -6.8      2.545      6.393
REMARK  Name = 
REMARK  6 active torsions:
REMARK  status: ('A' for Active; 'I' for Inactive)
REMARK    1  A    between atoms: C_1  and  S_2
REMARK    2  A    between atoms: S_2  and  C_3
REMARK    3  A    between atoms: C_6  and  C_7
REMARK    4  A    between atoms: C_11  and  C_12
REMARK    5  A    between atoms: C_15  and  S_16
REMARK    6  A    between atoms: S_16  and  C_17
REMARK                            x       y       z     vdW  Elec       q    Type
REMARK                         _______ _______ _______ _____ _____    ______ ____
ROOT
ATOM      1  C   UNL     1       2.429   4.851  20.316  0.00  0.00    +0.000 A 
ATOM      2  C   UNL     1       1.798   4.304  21.421  0.00  0.00    +0.000 A 
ATOM      3  S   UNL     1       2.198   2.668  21.687  0.00  0.00    +0.000 S 
ATOM      4  C   UNL     1       3.225   2.650  20.325  0.00  0.00    +0.000 A 
ATOM      5  C   UNL     1       3.284   3.867  19.660  0.00  0.00    +0.000 A 
ENDROOT
BRANCH   1   9
ATOM      6  C   UNL     1       1.552   8.912  19.215  0.00  0.00    +0.000 A 
ATOM      7  C   UNL     1       2.161   8.050  18.302  0.00  0.00    +0.000 A 
ATOM      8  C   UNL     1       2.442   6.723  18.660  0.00  0.00    +0.000 A 
ATOM      9  C   UNL     1       2.155   6.248  19.945  0.00  0.00    +0.000 A 
ATOM     10  C   UNL     1       1.593   7.138  20.870  0.00  0.00    +0.000 A 
ATOM     11  C   UNL     1       1.270   8.451  20.501  0.00  0.00    +0.000 A 
BRANCH   6  13
ATOM     12  C   UNL     1      -0.562  10.475  18.404  0.00  0.00    +0.000 C 
ATOM     13  S   UNL     1       1.214  10.597  18.744  0.00  0.00    +0.000 S 
ENDBRANCH   6  13
ENDBRANCH   1   9
BRANCH   5  14
ATOM     14  C   UNL     1       4.127   4.016  18.462  0.00  0.00    +0.000 A 
ATOM     15  C   UNL     1       3.646   3.677  17.186  0.00  0.00    +0.000 A 
ATOM     16  C   UNL     1       4.416   3.912  16.041  0.00  0.00    +0.000 A 
ATOM     17  C   UNL     1       5.663   4.523  16.166  0.00  0.00    +0.000 A 
ATOM     18  C   UNL     1       6.183   4.823  17.425  0.00  0.00    +0.000 A 
ATOM     19  C   UNL     1       5.425   4.540  18.565  0.00  0.00    +0.000 A 
BRANCH  17  20
ATOM     20  S   UNL     1       6.616   4.895  14.715  0.00  0.00    +0.000 S 
ATOM     21  C   UNL     1       6.181   3.586  13.595  0.00  0.00    +0.000 C 
ATOM     22  O   UNL     1       6.115   6.139  14.168  0.00  0.00    +0.000 OA
ATOM     23  O   UNL     1       8.018   4.741  15.063  0.00  0.00    +0.000 OA
ENDBRANCH  17  20
ENDBRANCH   5  14
TORSDOF 4
ENDMDL
MODEL 6
REMARK VINA RESULT:      -6.7      2.497      6.471
REMARK  Name = 
REMARK  6 active torsions:
REMARK  status: ('A' for Active; 'I' for Inactive)
REMARK    1  A    between atoms: C_1  and  S_2
REMARK    2  A    between atoms: S_2  and  C_3
REMARK    3  A    between atoms: C_6  and  C_7
REMARK    4  A    between atoms: C_11  and  C_12
REMARK    5  A    between atoms: C_15  and  S_16
REMARK    6  A    between atoms: S_16  and  C_17
REMARK                            x       y       z     vdW  Elec       q    Type
REMARK                         _______ _______ _______ _____ _____    ______ ____
ROOT
ATOM      1  C   UNL     1       2.366   4.851  20.315  0.00  0.00    +0.000 A 
ATOM      2  C   UNL     1       1.729   4.306  21.417  0.00  0.00    +0.000 A 
ATOM      3  S   UNL     1       2.146   2.679  21.704  0.00  0.00    +0.000 S 
ATOM      4  C   UNL     1       3.190   2.661  20.355  0.00  0.00    +0.000 A 
ATOM      5  C   UNL     1       3.242   3.872  19.679  0.00  0.00    +0.000 A 
ENDROOT
BRANCH   1   9
ATOM      6  C   UNL     1       1.600   8.931  19.203  0.00  0.00    +0.000 A 
ATOM      7  C   UNL     1       1.275   8.476  20.482  0.00  0.00    +0.000 A 
ATOM      8  C   UNL     1       1.531   7.146  20.846  0.00  0.00    +0.000 A 
ATOM      9  C   UNL     1       2.078   6.241  19.928  0.00  0.00    +0.000 A 
ATOM     10  C   UNL     1       2.350   6.695  18.631  0.00  0.00    +0.000 A 
ATOM     11  C   UNL     1       2.137   8.035  18.278  0.00  0.00    +0.000 A 
BRANCH   6  13
ATOM     12  C   UNL     1      -0.155  10.951  19.846  0.00  0.00    +0.000 C 
ATOM     13  S   UNL     1       1.256  10.622  18.757  0.00  0.00    +0.000 S 
ENDBRANCH   6  13
ENDBRANCH   1   9
BRANCH   5  14
ATOM     14  C   UNL     1       4.097   4.020  18.490  0.00  0.00    +0.000 A 
ATOM     15  C   UNL     1       3.645   3.641  17.215  0.00  0.00    +0.000 A 
ATOM     16  C   UNL     1       4.424   3.874  16.076  0.00  0.00    +0.000 A 
ATOM     17  C   UNL     1       5.651   4.524  16.206  0.00  0.00    +0.000 A 
ATOM     18  C   UNL     1       6.143   4.866  17.465  0.00  0.00    +0.000 A 
ATOM     19  C   UNL     1       5.377   4.585  18.600  0.00  0.00    +0.000 A 
BRANCH  17  20
ATOM     20  S   UNL     1       6.614   4.894  14.760  0.00  0.00    +0.000 S 
ATOM     21  C   UNL     1       6.179   3.587  13.637  0.00  0.00    +0.000 C 
ATOM     22  O   UNL     1       6.121   6.140  14.212  0.00  0.00    +0.000 OA
ATOM     23  O   UNL     1       8.013   4.733  15.116  0.00  0.00    +0.000 OA
ENDBRANCH  17  20
ENDBRANCH   5  14
TORSDOF 4
ENDMDL
MODEL 7
REMARK VINA RESULT:      -6.4      3.536      8.062
REMARK  Name = 
REMARK  6 active torsions:
REMARK  status: ('A' for Active; 'I' for Inactive)
REMARK    1  A    between atoms: C_1  and  S_2
REMARK    2  A    between atoms: S_2  and  C_3
REMARK    3  A    between atoms: C_6  and  C_7
REMARK    4  A    between atoms: C_11  and  C_12
REMARK    5  A    between atoms: C_15  and  S_16
REMARK    6  A    between atoms: S_16  and  C_17
REMARK                            x       y       z     vdW  Elec       q    Type
REMARK                         _______ _______ _______ _____ _____    ______ ____
ROOT
ATOM      1  C   UNL     1       0.174  12.208  19.182  0.00  0.00    +0.000 A 
ATOM      2  C   UNL     1      -1.008  12.931  19.165  0.00  0.00    +0.000 A 
ATOM      3  S   UNL     1      -2.395  11.955  19.001  0.00  0.00    +0.000 S 
ATOM      4  C   UNL     1      -1.448  10.538  18.947  0.00  0.00    +0.000 A 
ATOM      5  C   UNL     1      -0.085  10.779  19.055  0.00  0.00    +0.000 A 
ENDROOT
BRANCH   1   9
ATOM      6  C   UNL     1       3.879  14.364  19.493  0.00  0.00    +0.000 A 
ATOM      7  C   UNL     1       3.374  14.007  18.242  0.00  0.00    +0.000 A 
ATOM      8  C   UNL     1       2.162  13.308  18.141  0.00  0.00    +0.000 A 
ATOM      9  C   UNL     1       1.456  12.923  19.287  0.00  0.00    +0.000 A 
ATOM     10  C   UNL     1       2.000  13.240  20.538  0.00  0.00    +0.000 A 
ATOM     11  C   UNL     1       3.188  13.977  20.641  0.00  0.00    +0.000 A 
BRANCH   6  13
ATOM     12  C   UNL     1       6.117  14.853  17.969  0.00  0.00    +0.000 C 
ATOM     13  S   UNL     1       5.426  15.242  19.599  0.00  0.00    +0.000 S 
ENDBRANCH   6  13
ENDBRANCH   1   9
BRANCH   5  14
ATOM     14  C   UNL     1       0.869   9.657  19.024  0.00  0.00    +0.000 A 
ATOM     15  C   UNL     1       1.076   8.845  20.152  0.00  0.00    +0.000 A 
ATOM     16  C   UNL     1       1.909   7.722  20.087  0.00  0.00    +0.000 A 
ATOM     17  C   UNL     1       2.515   7.387  18.878  0.00  0.00    +0.000 A 
ATOM     18  C   UNL     1       2.366   8.205  17.758  0.00  0.00    +0.000 A 
ATOM     19  C   UNL     1       1.568   9.350  17.847  0.00  0.00    +0.000 A 
BRANCH  17  20
ATOM     20  S   UNL     1       3.514   5.924  18.764  0.00  0.00    +0.000 S 
ATOM     21  C   UNL     1       2.523   4.831  17.772  0.00  0.00    +0.000 C 
ATOM     22  O   UNL     1       4.703   6.261  18.009  0.00  0.00    +0.000 OA
ATOM     23  O   UNL     1       3.610   5.355  20.097  0.00  0.00    +0.000 OA
ENDBRANCH  17  20
ENDBRANCH   5  14
TORSDOF 4
ENDMDL
MODEL 8
REMARK VINA RESULT:      -6.3      3.622      8.247
REMARK  Name = 
REMARK  6 active torsions:
REMARK  status: ('A' for Active; 'I' for Inactive)
REMARK    1  A    between atoms: C_1  and  S_2
REMARK    2  A    between atoms: S_2  and  C_3
REMARK    3  A    between atoms: C_6  and  C_7
REMARK    4  A    between atoms: C_11  and  C_12
REMARK    5  A    between atoms: C_15  and  S_16
REMARK    6  A    between atoms: S_16  and  C_17
REMARK                            x       y       z     vdW  Elec       q    Type
REMARK                         _______ _______ _______ _____ _____    ______ ____
ROOT
ATOM      1  C   UNL     1       0.259  12.255  19.293  0.00  0.00    +0.000 A 
ATOM      2  C   UNL     1      -0.922  12.977  19.346  0.00  0.00    +0.000 A 
ATOM      3  S   UNL     1      -2.314  12.009  19.172  0.00  0.00    +0.000 S 
ATOM      4  C   UNL     1      -1.369  10.597  19.018  0.00  0.00    +0.000 A 
ATOM      5  C   UNL     1      -0.004  10.833  19.100  0.00  0.00    +0.000 A 
ENDROOT
BRANCH   1   9
ATOM      6  C   UNL     1       3.974  14.395  19.602  0.00  0.00    +0.000 A 
ATOM      7  C   UNL     1       3.482  14.014  18.353  0.00  0.00    +0.000 A 
ATOM      8  C   UNL     1       2.267  13.321  18.253  0.00  0.00    +0.000 A 
ATOM      9  C   UNL     1       1.545  12.964  19.398  0.00  0.00    +0.000 A 
ATOM     10  C   UNL     1       2.075  13.305  20.649  0.00  0.00    +0.000 A 
ATOM     11  C   UNL     1       3.266  14.037  20.750  0.00  0.00    +0.000 A 
BRANCH   6  13
ATOM     12  C   UNL     1       4.947  16.964  19.445  0.00  0.00    +0.000 C 
ATOM     13  S   UNL     1       5.525  15.266  19.708  0.00  0.00    +0.000 S 
ENDBRANCH   6  13
ENDBRANCH   1   9
BRANCH   5  14
ATOM     14  C   UNL     1       0.948   9.716  18.984  0.00  0.00    +0.000 A 
ATOM     15  C   UNL     1       1.136   8.806  20.039  0.00  0.00    +0.000 A 
ATOM     16  C   UNL     1       1.968   7.691  19.888  0.00  0.00    +0.000 A 
ATOM     17  C   UNL     1       2.592   7.462  18.663  0.00  0.00    +0.000 A 
ATOM     18  C   UNL     1       2.461   8.376  17.617  0.00  0.00    +0.000 A 
ATOM     19  C   UNL     1       1.664   9.511  17.795  0.00  0.00    +0.000 A 
BRANCH  17  20
ATOM     20  S   UNL     1       3.589   6.011  18.435  0.00  0.00    +0.000 S 
ATOM     21  C   UNL     1       4.868   6.566  17.332  0.00  0.00    +0.000 C 
ATOM     22  O   UNL     1       4.201   5.694  19.708  0.00  0.00    +0.000 OA
ATOM     23  O   UNL     1       2.781   5.032  17.727  0.00  0.00    +0.000 OA
ENDBRANCH  17  20
ENDBRANCH   5  14
TORSDOF 4
ENDMDL
MODEL 9
REMARK VINA RESULT:      -6.2      3.999      9.052
REMARK  Name = 
REMARK  6 active torsions:
REMARK  status: ('A' for Active; 'I' for Inactive)
REMARK    1  A    between atoms: C_1  and  S_2
REMARK    2  A    between atoms: S_2  and  C_3
REMARK    3  A    between atoms: C_6  and  C_7
REMARK    4  A    between atoms: C_11  and  C_12
REMARK    5  A    between atoms: C_15  and  S_16
REMARK    6  A    between atoms: S_16  and  C_17
REMARK                            x       y       z     vdW  Elec       q    Type
REMARK                         _______ _______ _______ _____ _____    ______ ____
ROOT
ATOM      1  C   UNL     1      -0.090  12.565  18.692  0.00  0.00    +0.000 A 
ATOM      2  C   UNL     1       0.128  13.933  18.685  0.00  0.00    +0.000 A 
ATOM      3  S   UNL     1       1.774  14.355  18.825  0.00  0.00    +0.000 S 
ATOM      4  C   UNL     1       2.236  12.715  18.901  0.00  0.00    +0.000 A 
ATOM      5  C   UNL     1       1.167  11.835  18.818  0.00  0.00    +0.000 A 
ENDROOT
BRANCH   1   9
ATOM      6  C   UNL     1      -4.128  11.123  18.393  0.00  0.00    +0.000 A 
ATOM      7  C   UNL     1      -3.785  12.064  19.365  0.00  0.00    +0.000 A 
ATOM      8  C   UNL     1      -2.469  12.539  19.458  0.00  0.00    +0.000 A 
ATOM      9  C   UNL     1      -1.467  12.052  18.609  0.00  0.00    +0.000 A 
ATOM     10  C   UNL     1      -1.811  11.069  17.673  0.00  0.00    +0.000 A 
ATOM     11  C   UNL     1      -3.135  10.626  17.548  0.00  0.00    +0.000 A 
BRANCH   6  13
ATOM     12  C   UNL     1      -6.519  11.378  19.731  0.00  0.00    +0.000 C 
ATOM     13  S   UNL     1      -5.804  10.526  18.299  0.00  0.00    +0.000 S 
ENDBRANCH   6  13
ENDBRANCH   1   9
BRANCH   5  14
ATOM     14  C   UNL     1       1.399  10.381  18.870  0.00  0.00    +0.000 A 
ATOM     15  C   UNL     1       1.973   9.696  17.786  0.00  0.00    +0.000 A 
ATOM     16  C   UNL     1       2.281   8.333  17.877  0.00  0.00    +0.000 A 
ATOM     17  C   UNL     1       2.048   7.657  19.073  0.00  0.00    +0.000 A 
ATOM     18  C   UNL     1       1.434   8.303  20.146  0.00  0.00    +0.000 A 
ATOM     19  C   UNL     1       1.087   9.651  20.027  0.00  0.00    +0.000 A 
BRANCH  17  20
ATOM     20  S   UNL     1       2.505   5.948  19.227  0.00  0.00    +0.000 S 
ATOM     21  C   UNL     1       1.630   5.423  20.682  0.00  0.00    +0.000 C 
ATOM     22  O   UNL     1       1.951   5.241  18.091  0.00  0.00    +0.000 OA
ATOM     23  O   UNL     1       3.928   5.901  19.518  0.00  0.00    +0.000 OA
ENDBRANCH  17  20
ENDBRANCH   5  14
TORSDOF 4
ENDMDL
