MODEL 1
REMARK VINA RESULT:      -6.7      0.000      0.000
REMARK  Name = 
REMARK  5 active torsions:
REMARK  status: ('A' for Active; 'I' for Inactive)
REMARK    1  A    between atoms: C_1  and  C_2
REMARK    2  A    between atoms: C_4  and  N_5
REMARK    3  A    between atoms: C_7  and  S_8
REMARK    4  A    between atoms: S_8  and  C_9
REMARK    5  A    between atoms: C_9  and  C_10
REMARK                            x       y       z     vdW  Elec       q    Type
REMARK                         _______ _______ _______ _____ _____    ______ ____
ROOT
ATOM      1  C   UNL     1       5.377   2.995  12.070  0.00  0.00    +0.000 C 
ATOM      2  C   UNL     1       6.177   3.788  13.060  0.00  0.00    +0.000 A 
ATOM      3  C   UNL     1       7.239   4.558  12.625  0.00  0.00    +0.000 A 
ATOM      4  C   UNL     1       7.922   5.262  13.584  0.00  0.00    +0.000 A 
ATOM      5  N   UNL     1       7.587   5.233  14.874  0.00  0.00    +0.000 NA
ATOM      6  C   UNL     1       6.535   4.467  15.221  0.00  0.00    +0.000 A 
ATOM      7  N   UNL     1       5.811   3.728  14.364  0.00  0.00    +0.000 NA
ENDROOT
BRANCH   4   8
ATOM      8  N   UNL     1       8.982   6.095  13.230  0.00  0.00    +0.000 N 
ATOM      9  H   UNL     1       9.664   5.630  12.642  0.00  0.00    +0.000 HD
ATOM     10  H   UNL     1       9.398   6.442  14.091  0.00  0.00    +0.000 HD
ENDBRANCH   4   8
BRANCH   6  11
ATOM     11  S   UNL     1       6.156   4.503  16.958  0.00  0.00    +0.000 S 
BRANCH  11  12
ATOM     12  C   UNL     1       4.463   5.169  16.988  0.00  0.00    +0.000 C 
BRANCH  12  13
ATOM     13  C   UNL     1       3.509   4.156  17.600  0.00  0.00    +0.000 A 
ATOM     14  C   UNL     1       2.126   4.403  17.641  0.00  0.00    +0.000 A 
ATOM     15  C   UNL     1       1.255   3.487  18.241  0.00  0.00    +0.000 A 
ATOM     16  C   UNL     1       1.753   2.316  18.812  0.00  0.00    +0.000 A 
ATOM     17  C   UNL     1       3.122   2.062  18.784  0.00  0.00    +0.000 A 
ATOM     18  C   UNL     1       3.996   2.976  18.184  0.00  0.00    +0.000 A 
ENDBRANCH  12  13
ENDBRANCH  11  12
ENDBRANCH   6  11
TORSDOF 4
ENDMDL
MODEL 2
REMARK VINA RESULT:      -6.7      2.644      3.675
REMARK  Name = 
REMARK  5 active torsions:
REMARK  status: ('A' for Active; 'I' for Inactive)
REMARK    1  A    between atoms: C_1  and  C_2
REMARK    2  A    between atoms: C_4  and  N_5
REMARK    3  A    between atoms: C_7  and  S_8
REMARK    4  A    between atoms: S_8  and  C_9
REMARK    5  A    between atoms: C_9  and  C_10
REMARK                            x       y       z     vdW  Elec       q    Type
REMARK                         _______ _______ _______ _____ _____    ______ ____
ROOT
ATOM      1  C   UNL     1       6.591   4.022  15.152  0.00  0.00    +0.000 C 
ATOM      2  C   UNL     1       6.357   4.669  16.485  0.00  0.00    +0.000 A 
ATOM      3  C   UNL     1       7.370   4.692  17.425  0.00  0.00    +0.000 A 
ATOM      4  C   UNL     1       7.087   5.305  18.619  0.00  0.00    +0.000 A 
ATOM      5  N   UNL     1       5.907   5.870  18.877  0.00  0.00    +0.000 NA
ATOM      6  C   UNL     1       4.972   5.816  17.909  0.00  0.00    +0.000 A 
ATOM      7  N   UNL     1       5.142   5.227  16.713  0.00  0.00    +0.000 NA
ENDROOT
BRANCH   4   8
ATOM      8  N   UNL     1       8.062   5.408  19.609  0.00  0.00    +0.000 N 
ATOM      9  H   UNL     1       7.687   5.281  20.542  0.00  0.00    +0.000 HD
ATOM     10  H   UNL     1       8.511   6.315  19.501  0.00  0.00    +0.000 HD
ENDBRANCH   4   8
BRANCH   6  11
ATOM     11  S   UNL     1       3.439   6.608  18.339  0.00  0.00    +0.000 S 
BRANCH  11  12
ATOM     12  C   UNL     1       2.199   5.348  17.908  0.00  0.00    +0.000 C 
BRANCH  12  13
ATOM     13  C   UNL     1       1.958   4.420  19.088  0.00  0.00    +0.000 A 
ATOM     14  C   UNL     1       1.254   3.216  18.925  0.00  0.00    +0.000 A 
ATOM     15  C   UNL     1       0.999   2.383  20.020  0.00  0.00    +0.000 A 
ATOM     16  C   UNL     1       1.438   2.745  21.293  0.00  0.00    +0.000 A 
ATOM     17  C   UNL     1       2.130   3.941  21.470  0.00  0.00    +0.000 A 
ATOM     18  C   UNL     1       2.388   4.774  20.377  0.00  0.00    +0.000 A 
ENDBRANCH  12  13
ENDBRANCH  11  12
ENDBRANCH   6  11
TORSDOF 4
ENDMDL
MODEL 3
REMARK VINA RESULT:      -6.5      2.375      3.247
REMARK  Name = 
REMARK  5 active torsions:
REMARK  status: ('A' for Active; 'I' for Inactive)
REMARK    1  A    between atoms: C_1  and  C_2
REMARK    2  A    between atoms: C_4  and  N_5
REMARK    3  A    between atoms: C_7  and  S_8
REMARK    4  A    between atoms: S_8  and  C_9
REMARK    5  A    between atoms: C_9  and  C_10
REMARK                            x       y       z     vdW  Elec       q    Type
REMARK                         _______ _______ _______ _____ _____    ______ ____
ROOT
ATOM      1  C   UNL     1       6.293   4.533  14.206  0.00  0.00    +0.000 C 
ATOM      2  C   UNL     1       6.136   4.980  15.629  0.00  0.00    +0.000 A 
ATOM      3  C   UNL     1       7.106   4.660  16.560  0.00  0.00    +0.000 A 
ATOM      4  C   UNL     1       6.901   5.107  17.841  0.00  0.00    +0.000 A 
ATOM      5  N   UNL     1       5.836   5.829  18.190  0.00  0.00    +0.000 NA
ATOM      6  C   UNL     1       4.938   6.109  17.226  0.00  0.00    +0.000 A 
ATOM      7  N   UNL     1       5.036   5.706  15.947  0.00  0.00    +0.000 NA
ENDROOT
BRANCH   4   8
ATOM      8  N   UNL     1       7.846   4.863  18.835  0.00  0.00    +0.000 N 
ATOM      9  H   UNL     1       8.775   5.173  18.575  0.00  0.00    +0.000 HD
ATOM     10  H   UNL     1       7.822   3.867  19.041  0.00  0.00    +0.000 HD
ENDBRANCH   4   8
BRANCH   6  11
ATOM     11  S   UNL     1       3.560   7.086  17.782  0.00  0.00    +0.000 S 
BRANCH  11  12
ATOM     12  C   UNL     1       3.278   6.462  19.468  0.00  0.00    +0.000 C 
BRANCH  12  13
ATOM     13  C   UNL     1       2.427   5.203  19.429  0.00  0.00    +0.000 A 
ATOM     14  C   UNL     1       2.088   4.601  18.206  0.00  0.00    +0.000 A 
ATOM     15  C   UNL     1       1.271   3.465  18.172  0.00  0.00    +0.000 A 
ATOM     16  C   UNL     1       0.779   2.919  19.357  0.00  0.00    +0.000 A 
ATOM     17  C   UNL     1       1.102   3.511  20.575  0.00  0.00    +0.000 A 
ATOM     18  C   UNL     1       1.919   4.646  20.613  0.00  0.00    +0.000 A 
ENDBRANCH  12  13
ENDBRANCH  11  12
ENDBRANCH   6  11
TORSDOF 4
ENDMDL
MODEL 4
REMARK VINA RESULT:      -6.5      2.387      3.303
REMARK  Name = 
REMARK  5 active torsions:
REMARK  status: ('A' for Active; 'I' for Inactive)
REMARK    1  A    between atoms: C_1  and  C_2
REMARK    2  A    between atoms: C_4  and  N_5
REMARK    3  A    between atoms: C_7  and  S_8
REMARK    4  A    between atoms: S_8  and  C_9
REMARK    5  A    between atoms: C_9  and  C_10
REMARK                            x       y       z     vdW  Elec       q    Type
REMARK                         _______ _______ _______ _____ _____    ______ ____
ROOT
ATOM      1  C   UNL     1       6.388   4.236  14.470  0.00  0.00    +0.000 C 
ATOM      2  C   UNL     1       6.193   4.706  15.881  0.00  0.00    +0.000 A 
ATOM      3  C   UNL     1       7.239   4.625  16.781  0.00  0.00    +0.000 A 
ATOM      4  C   UNL     1       6.991   5.079  18.052  0.00  0.00    +0.000 A 
ATOM      5  N   UNL     1       5.816   5.591  18.419  0.00  0.00    +0.000 NA
ATOM      6  C   UNL     1       4.849   5.645  17.483  0.00  0.00    +0.000 A 
ATOM      7  N   UNL     1       4.983   5.214  16.218  0.00  0.00    +0.000 NA
ENDROOT
BRANCH   4   8
ATOM      8  N   UNL     1       8.000   5.071  19.014  0.00  0.00    +0.000 N 
ATOM      9  H   UNL     1       7.771   5.633  19.825  0.00  0.00    +0.000 HD
ATOM     10  H   UNL     1       8.855   5.387  18.562  0.00  0.00    +0.000 HD
ENDBRANCH   4   8
BRANCH   6  11
ATOM     11  S   UNL     1       3.324   6.355  18.061  0.00  0.00    +0.000 S 
BRANCH  11  12
ATOM     12  C   UNL     1       2.153   4.970  17.915  0.00  0.00    +0.000 C 
BRANCH  12  13
ATOM     13  C   UNL     1       2.218   4.092  19.154  0.00  0.00    +0.000 A 
ATOM     14  C   UNL     1       1.174   4.097  20.095  0.00  0.00    +0.000 A 
ATOM     15  C   UNL     1       1.255   3.317  21.255  0.00  0.00    +0.000 A 
ATOM     16  C   UNL     1       2.380   2.528  21.492  0.00  0.00    +0.000 A 
ATOM     17  C   UNL     1       3.424   2.520  20.571  0.00  0.00    +0.000 A 
ATOM     18  C   UNL     1       3.346   3.297  19.411  0.00  0.00    +0.000 A 
ENDBRANCH  12  13
ENDBRANCH  11  12
ENDBRANCH   6  11
TORSDOF 4
ENDMDL
MODEL 5
REMARK VINA RESULT:      -6.5      3.108      4.321
REMARK  Name = 
REMARK  5 active torsions:
REMARK  status: ('A' for Active; 'I' for Inactive)
REMARK    1  A    between atoms: C_1  and  C_2
REMARK    2  A    between atoms: C_4  and  N_5
REMARK    3  A    between atoms: C_7  and  S_8
REMARK    4  A    between atoms: S_8  and  C_9
REMARK    5  A    between atoms: C_9  and  C_10
REMARK                            x       y       z     vdW  Elec       q    Type
REMARK                         _______ _______ _______ _____ _____    ______ ____
ROOT
ATOM      1  C   UNL     1       8.265   9.491  17.612  0.00  0.00    +0.000 C 
ATOM      2  C   UNL     1       7.775   8.089  17.825  0.00  0.00    +0.000 A 
ATOM      3  C   UNL     1       8.338   7.310  18.818  0.00  0.00    +0.000 A 
ATOM      4  C   UNL     1       7.837   6.041  18.961  0.00  0.00    +0.000 A 
ATOM      5  N   UNL     1       6.847   5.567  18.203  0.00  0.00    +0.000 NA
ATOM      6  C   UNL     1       6.343   6.389  17.263  0.00  0.00    +0.000 A 
ATOM      7  N   UNL     1       6.772   7.641  17.031  0.00  0.00    +0.000 NA
ENDROOT
BRANCH   4   8
ATOM      8  N   UNL     1       8.318   5.199  19.962  0.00  0.00    +0.000 N 
ATOM      9  H   UNL     1       7.580   4.826  20.548  0.00  0.00    +0.000 HD
ATOM     10  H   UNL     1       9.001   5.727  20.501  0.00  0.00    +0.000 HD
ENDBRANCH   4   8
BRANCH   6  11
ATOM     11  S   UNL     1       5.019   5.675  16.313  0.00  0.00    +0.000 S 
BRANCH  11  12
ATOM     12  C   UNL     1       5.045   3.932  16.833  0.00  0.00    +0.000 C 
BRANCH  12  13
ATOM     13  C   UNL     1       3.748   3.573  17.539  0.00  0.00    +0.000 A 
ATOM     14  C   UNL     1       2.600   4.369  17.387  0.00  0.00    +0.000 A 
ATOM     15  C   UNL     1       1.420   4.058  18.070  0.00  0.00    +0.000 A 
ATOM     16  C   UNL     1       1.371   2.953  18.919  0.00  0.00    +0.000 A 
ATOM     17  C   UNL     1       2.504   2.160  19.085  0.00  0.00    +0.000 A 
ATOM     18  C   UNL     1       3.685   2.467  18.402  0.00  0.00    +0.000 A 
ENDBRANCH  12  13
ENDBRANCH  11  12
ENDBRANCH   6  11
TORSDOF 4
ENDMDL
MODEL 6
REMARK VINA RESULT:      -6.5      0.948      1.206
REMARK  Name = 
REMARK  5 active torsions:
REMARK  status: ('A' for Active; 'I' for Inactive)
REMARK    1  A    between atoms: C_1  and  C_2
REMARK    2  A    between atoms: C_4  and  N_5
REMARK    3  A    between atoms: C_7  and  S_8
REMARK    4  A    between atoms: S_8  and  C_9
REMARK    5  A    between atoms: C_9  and  C_10
REMARK                            x       y       z     vdW  Elec       q    Type
REMARK                         _______ _______ _______ _____ _____    ______ ____
ROOT
ATOM      1  C   UNL     1       5.063   3.176  11.978  0.00  0.00    +0.000 C 
ATOM      2  C   UNL     1       5.906   3.877  13.001  0.00  0.00    +0.000 A 
ATOM      3  C   UNL     1       7.034   4.569  12.604  0.00  0.00    +0.000 A 
ATOM      4  C   UNL     1       7.753   5.191  13.593  0.00  0.00    +0.000 A 
ATOM      5  N   UNL     1       7.392   5.158  14.876  0.00  0.00    +0.000 NA
ATOM      6  C   UNL     1       6.275   4.472  15.185  0.00  0.00    +0.000 A 
ATOM      7  N   UNL     1       5.510   3.815  14.296  0.00  0.00    +0.000 NA
ENDROOT
BRANCH   4   8
ATOM      8  N   UNL     1       8.884   5.943  13.279  0.00  0.00    +0.000 N 
ATOM      9  H   UNL     1       9.528   5.446  12.675  0.00  0.00    +0.000 HD
ATOM     10  H   UNL     1       9.320   6.218  14.156  0.00  0.00    +0.000 HD
ENDBRANCH   4   8
BRANCH   6  11
ATOM     11  S   UNL     1       5.867   4.496  16.916  0.00  0.00    +0.000 S 
BRANCH  11  12
ATOM     12  C   UNL     1       4.467   5.656  16.984  0.00  0.00    +0.000 C 
BRANCH  12  13
ATOM     13  C   UNL     1       3.352   5.087  17.845  0.00  0.00    +0.000 A 
ATOM     14  C   UNL     1       3.039   5.660  19.090  0.00  0.00    +0.000 A 
ATOM     15  C   UNL     1       2.039   5.109  19.898  0.00  0.00    +0.000 A 
ATOM     16  C   UNL     1       1.341   3.977  19.477  0.00  0.00    +0.000 A 
ATOM     17  C   UNL     1       1.646   3.395  18.249  0.00  0.00    +0.000 A 
ATOM     18  C   UNL     1       2.645   3.945  17.438  0.00  0.00    +0.000 A 
ENDBRANCH  12  13
ENDBRANCH  11  12
ENDBRANCH   6  11
TORSDOF 4
ENDMDL
MODEL 7
REMARK VINA RESULT:      -6.5      2.631      3.886
REMARK  Name = 
REMARK  5 active torsions:
REMARK  status: ('A' for Active; 'I' for Inactive)
REMARK    1  A    between atoms: C_1  and  C_2
REMARK    2  A    between atoms: C_4  and  N_5
REMARK    3  A    between atoms: C_7  and  S_8
REMARK    4  A    between atoms: S_8  and  C_9
REMARK    5  A    between atoms: C_9  and  C_10
REMARK                            x       y       z     vdW  Elec       q    Type
REMARK                         _______ _______ _______ _____ _____    ______ ____
ROOT
ATOM      1  C   UNL     1       8.148   5.546  19.243  0.00  0.00    +0.000 C 
ATOM      2  C   UNL     1       7.067   5.405  18.214  0.00  0.00    +0.000 A 
ATOM      3  C   UNL     1       7.243   4.545  17.147  0.00  0.00    +0.000 A 
ATOM      4  C   UNL     1       6.210   4.462  16.248  0.00  0.00    +0.000 A 
ATOM      5  N   UNL     1       5.078   5.152  16.385  0.00  0.00    +0.000 NA
ATOM      6  C   UNL     1       4.976   5.963  17.456  0.00  0.00    +0.000 A 
ATOM      7  N   UNL     1       5.933   6.129  18.384  0.00  0.00    +0.000 NA
ENDROOT
BRANCH   4   8
ATOM      8  N   UNL     1       6.286   3.591  15.162  0.00  0.00    +0.000 N 
ATOM      9  H   UNL     1       6.610   4.047  14.317  0.00  0.00    +0.000 HD
ATOM     10  H   UNL     1       5.365   3.175  15.041  0.00  0.00    +0.000 HD
ENDBRANCH   4   8
BRANCH   6  11
ATOM     11  S   UNL     1       3.427   6.830  17.560  0.00  0.00    +0.000 S 
BRANCH  11  12
ATOM     12  C   UNL     1       2.908   6.524  19.277  0.00  0.00    +0.000 C 
BRANCH  12  13
ATOM     13  C   UNL     1       2.161   5.204  19.375  0.00  0.00    +0.000 A 
ATOM     14  C   UNL     1       1.789   4.677  20.623  0.00  0.00    +0.000 A 
ATOM     15  C   UNL     1       1.137   3.442  20.711  0.00  0.00    +0.000 A 
ATOM     16  C   UNL     1       0.853   2.715  19.556  0.00  0.00    +0.000 A 
ATOM     17  C   UNL     1       1.222   3.222  18.313  0.00  0.00    +0.000 A 
ATOM     18  C   UNL     1       1.873   4.457  18.221  0.00  0.00    +0.000 A 
ENDBRANCH  12  13
ENDBRANCH  11  12
ENDBRANCH   6  11
TORSDOF 4
ENDMDL
MODEL 8
REMARK VINA RESULT:      -6.4      3.112      4.491
REMARK  Name = 
REMARK  5 active torsions:
REMARK  status: ('A' for Active; 'I' for Inactive)
REMARK    1  A    between atoms: C_1  and  C_2
REMARK    2  A    between atoms: C_4  and  N_5
REMARK    3  A    between atoms: C_7  and  S_8
REMARK    4  A    between atoms: S_8  and  C_9
REMARK    5  A    between atoms: C_9  and  C_10
REMARK                            x       y       z     vdW  Elec       q    Type
REMARK                         _______ _______ _______ _____ _____    ______ ____
ROOT
ATOM      1  C   UNL     1       7.898   9.033  17.478  0.00  0.00    +0.000 C 
ATOM      2  C   UNL     1       7.831   7.565  17.779  0.00  0.00    +0.000 A 
ATOM      3  C   UNL     1       8.205   7.103  19.026  0.00  0.00    +0.000 A 
ATOM      4  C   UNL     1       8.112   5.750  19.233  0.00  0.00    +0.000 A 
ATOM      5  N   UNL     1       7.670   4.906  18.300  0.00  0.00    +0.000 NA
ATOM      6  C   UNL     1       7.315   5.433  17.112  0.00  0.00    +0.000 A 
ATOM      7  N   UNL     1       7.383   6.739  16.802  0.00  0.00    +0.000 NA
ENDROOT
BRANCH   4   8
ATOM      8  N   UNL     1       8.433   5.200  20.473  0.00  0.00    +0.000 N 
ATOM      9  H   UNL     1       7.723   5.378  21.174  0.00  0.00    +0.000 HD
ATOM     10  H   UNL     1       9.339   5.574  20.747  0.00  0.00    +0.000 HD
ENDBRANCH   4   8
BRANCH   6  11
ATOM     11  S   UNL     1       6.725   4.234  15.938  0.00  0.00    +0.000 S 
BRANCH  11  12
ATOM     12  C   UNL     1       4.989   4.723  15.699  0.00  0.00    +0.000 C 
BRANCH  12  13
ATOM     13  C   UNL     1       4.241   4.676  17.022  0.00  0.00    +0.000 A 
ATOM     14  C   UNL     1       4.000   3.452  17.669  0.00  0.00    +0.000 A 
ATOM     15  C   UNL     1       3.276   3.409  18.866  0.00  0.00    +0.000 A 
ATOM     16  C   UNL     1       2.780   4.584  19.429  0.00  0.00    +0.000 A 
ATOM     17  C   UNL     1       3.006   5.803  18.794  0.00  0.00    +0.000 A 
ATOM     18  C   UNL     1       3.730   5.850  17.597  0.00  0.00    +0.000 A 
ENDBRANCH  12  13
ENDBRANCH  11  12
ENDBRANCH   6  11
TORSDOF 4
ENDMDL
MODEL 9
REMARK VINA RESULT:      -6.4      2.597      3.876
REMARK  Name = 
REMARK  5 active torsions:
REMARK  status: ('A' for Active; 'I' for Inactive)
REMARK    1  A    between atoms: C_1  and  C_2
REMARK    2  A    between atoms: C_4  and  N_5
REMARK    3  A    between atoms: C_7  and  S_8
REMARK    4  A    between atoms: S_8  and  C_9
REMARK    5  A    between atoms: C_9  and  C_10
REMARK                            x       y       z     vdW  Elec       q    Type
REMARK                         _______ _______ _______ _____ _____    ______ ____
ROOT
ATOM      1  C   UNL     1       8.056   5.528  19.366  0.00  0.00    +0.000 C 
ATOM      2  C   UNL     1       7.016   5.468  18.286  0.00  0.00    +0.000 A 
ATOM      3  C   UNL     1       7.239   4.699  17.160  0.00  0.00    +0.000 A 
ATOM      4  C   UNL     1       6.243   4.687  16.217  0.00  0.00    +0.000 A 
ATOM      5  N   UNL     1       5.102   5.361  16.365  0.00  0.00    +0.000 NA
ATOM      6  C   UNL     1       4.953   6.081  17.493  0.00  0.00    +0.000 A 
ATOM      7  N   UNL     1       5.873   6.173  18.469  0.00  0.00    +0.000 NA
ENDROOT
BRANCH   4   8
ATOM      8  N   UNL     1       6.366   3.907  15.068  0.00  0.00    +0.000 N 
ATOM      9  H   UNL     1       6.562   2.935  15.275  0.00  0.00    +0.000 HD
ATOM     10  H   UNL     1       7.092   4.327  14.492  0.00  0.00    +0.000 HD
ENDBRANCH   4   8
BRANCH   6  11
ATOM     11  S   UNL     1       3.397   6.934  17.607  0.00  0.00    +0.000 S 
BRANCH  11  12
ATOM     12  C   UNL     1       2.872   6.589  19.314  0.00  0.00    +0.000 C 
BRANCH  12  13
ATOM     13  C   UNL     1       2.192   5.232  19.393  0.00  0.00    +0.000 A 
ATOM     14  C   UNL     1       1.910   4.498  18.228  0.00  0.00    +0.000 A 
ATOM     15  C   UNL     1       1.249   3.268  18.303  0.00  0.00    +0.000 A 
ATOM     16  C   UNL     1       0.855   2.756  19.538  0.00  0.00    +0.000 A 
ATOM     17  C   UNL     1       1.121   3.476  20.700  0.00  0.00    +0.000 A 
ATOM     18  C   UNL     1       1.784   4.706  20.630  0.00  0.00    +0.000 A 
ENDBRANCH  12  13
ENDBRANCH  11  12
ENDBRANCH   6  11
TORSDOF 4
ENDMDL
