MODEL 1
REMARK VINA RESULT:      -7.1      0.000      0.000
REMARK  Name = 
REMARK  6 active torsions:
REMARK  status: ('A' for Active; 'I' for Inactive)
REMARK    1  A    between atoms: C_1  and  C_2
REMARK    2  A    between atoms: C_2  and  C_3
REMARK    3  A    between atoms: N_5  and  C_6
REMARK    4  A    between atoms: C_16  and  C_17
REMARK    5  A    between atoms: N_24  and  C_25
REMARK    6  A    between atoms: C_25  and  C_26
REMARK                            x       y       z     vdW  Elec       q    Type
REMARK                         _______ _______ _______ _____ _____    ______ ____
ROOT
ATOM      1  C   UNL     1      -0.280  13.158  18.179  0.00  0.00    +0.000 C 
ATOM      2  C   UNL     1      -0.466  12.224  19.386  0.00  0.00    +0.000 C 
ATOM      3  C   UNL     1       0.617  11.142  19.272  0.00  0.00    +0.000 C 
ATOM      4  N   UNL     1       0.603  10.275  20.435  0.00  0.00    +0.000 N 
ATOM      5  C   UNL     1       0.067  10.687  21.634  0.00  0.00    +0.000 A 
ATOM      6  C   UNL     1       0.133   9.601  22.485  0.00  0.00    +0.000 A 
ATOM      7  C   UNL     1       0.766   8.540  21.786  0.00  0.00    +0.000 A 
ATOM      8  C   UNL     1       1.098   9.001  20.526  0.00  0.00    +0.000 A 
ATOM      9  C   UNL     1      -0.381  12.041  21.882  0.00  0.00    +0.000 C 
ATOM     10  O   UNL     1      -0.651  12.468  23.000  0.00  0.00    +0.000 OA
ATOM     11  N   UNL     1      -0.417  12.869  20.746  0.00  0.00    +0.000 N 
ENDROOT
BRANCH   8  12
ATOM     12  C   UNL     1       1.814   8.348  19.471  0.00  0.00    +0.000 A 
ATOM     13  C   UNL     1       2.050   8.785  18.180  0.00  0.00    +0.000 A 
ATOM     14  C   UNL     1       2.814   7.785  17.530  0.00  0.00    +0.000 A 
ATOM     15  C   UNL     1       2.990   6.784  18.451  0.00  0.00    +0.000 A 
ATOM     16  O   UNL     1       2.395   7.113  19.624  0.00  0.00    +0.000 OA
ENDBRANCH   8  12
BRANCH   2  17
ATOM     17  C   UNL     1      -1.870  11.554  19.171  0.00  0.00    +0.000 C 
ATOM     18  O   UNL     1      -1.980  10.375  18.821  0.00  0.00    +0.000 OA
ATOM     19  N   UNL     1      -2.962  12.387  19.309  0.00  0.00    +0.000 N 
ATOM     20  H   UNL     1      -2.785  13.373  19.474  0.00  0.00    +0.000 HD
BRANCH  19  21
ATOM     21  C   UNL     1      -4.327  11.942  19.110  0.00  0.00    +0.000 C 
ATOM     22  C   UNL     1      -5.353  12.877  19.741  0.00  0.00    +0.000 C 
ATOM     23  C   UNL     1      -6.658  12.491  19.056  0.00  0.00    +0.000 C 
ATOM     24  C   UNL     1      -6.264  12.009  17.660  0.00  0.00    +0.000 C 
ATOM     25  C   UNL     1      -4.737  11.952  17.639  0.00  0.00    +0.000 C 
ENDBRANCH  19  21
ENDBRANCH   2  17
BRANCH  11  26
ATOM     26  C   UNL     1       0.049  14.240  20.959  0.00  0.00    +0.000 C 
BRANCH  26  27
ATOM     27  C   UNL     1       1.524  14.334  21.065  0.00  0.00    +0.000 A 
ATOM     28  C   UNL     1       2.557  14.154  20.167  0.00  0.00    +0.000 A 
ATOM     29  C   UNL     1       3.752  14.450  20.868  0.00  0.00    +0.000 A 
ATOM     30  C   UNL     1       3.370  14.823  22.135  0.00  0.00    +0.000 A 
ATOM     31  O   UNL     1       2.021  14.773  22.256  0.00  0.00    +0.000 OA
ENDBRANCH  26  27
ENDBRANCH  11  26
TORSDOF 5
ENDMDL
MODEL 2
REMARK VINA RESULT:      -7.0      1.591      2.447
REMARK  Name = 
REMARK  6 active torsions:
REMARK  status: ('A' for Active; 'I' for Inactive)
REMARK    1  A    between atoms: C_1  and  C_2
REMARK    2  A    between atoms: C_2  and  C_3
REMARK    3  A    between atoms: N_5  and  C_6
REMARK    4  A    between atoms: C_16  and  C_17
REMARK    5  A    between atoms: N_24  and  C_25
REMARK    6  A    between atoms: C_25  and  C_26
REMARK                            x       y       z     vdW  Elec       q    Type
REMARK                         _______ _______ _______ _____ _____    ______ ____
ROOT
ATOM      1  C   UNL     1      -0.671  13.267  18.247  0.00  0.00    +0.000 C 
ATOM      2  C   UNL     1      -0.903  12.277  19.400  0.00  0.00    +0.000 C 
ATOM      3  C   UNL     1       0.237  11.252  19.331  0.00  0.00    +0.000 C 
ATOM      4  N   UNL     1       0.176  10.338  20.457  0.00  0.00    +0.000 N 
ATOM      5  C   UNL     1      -0.470  10.676  21.623  0.00  0.00    +0.000 A 
ATOM      6  C   UNL     1      -0.417   9.560  22.437  0.00  0.00    +0.000 A 
ATOM      7  C   UNL     1       0.320   8.559  21.751  0.00  0.00    +0.000 A 
ATOM      8  C   UNL     1       0.725   9.085  20.539  0.00  0.00    +0.000 A 
ATOM      9  C   UNL     1      -1.002  11.996  21.886  0.00  0.00    +0.000 C 
ATOM     10  O   UNL     1      -1.379  12.364  22.995  0.00  0.00    +0.000 OA
ATOM     11  N   UNL     1      -0.991  12.867  20.782  0.00  0.00    +0.000 N 
ENDROOT
BRANCH   8  12
ATOM     12  C   UNL     1       1.551   8.510  19.520  0.00  0.00    +0.000 A 
ATOM     13  C   UNL     1       1.839   8.995  18.257  0.00  0.00    +0.000 A 
ATOM     14  C   UNL     1       2.711   8.066  17.638  0.00  0.00    +0.000 A 
ATOM     15  C   UNL     1       2.897   7.057  18.548  0.00  0.00    +0.000 A 
ATOM     16  O   UNL     1       2.206   7.314  19.686  0.00  0.00    +0.000 OA
ENDBRANCH   8  12
BRANCH   2  17
ATOM     17  C   UNL     1      -2.252  11.553  19.050  0.00  0.00    +0.000 C 
ATOM     18  O   UNL     1      -2.271  10.435  18.524  0.00  0.00    +0.000 OA
ATOM     19  N   UNL     1      -3.403  12.278  19.281  0.00  0.00    +0.000 N 
ATOM     20  H   UNL     1      -3.300  13.237  19.596  0.00  0.00    +0.000 HD
BRANCH  19  21
ATOM     21  C   UNL     1      -4.729  11.776  18.981  0.00  0.00    +0.000 C 
ATOM     22  C   UNL     1      -5.792  12.298  19.943  0.00  0.00    +0.000 C 
ATOM     23  C   UNL     1      -7.100  12.030  19.210  0.00  0.00    +0.000 C 
ATOM     24  C   UNL     1      -6.765  12.125  17.720  0.00  0.00    +0.000 C 
ATOM     25  C   UNL     1      -5.246  12.259  17.629  0.00  0.00    +0.000 C 
ENDBRANCH  19  21
ENDBRANCH   2  17
BRANCH  11  26
ATOM     26  C   UNL     1      -0.611  14.249  21.082  0.00  0.00    +0.000 C 
BRANCH  26  27
ATOM     27  C   UNL     1      -1.752  15.190  20.985  0.00  0.00    +0.000 A 
ATOM     28  C   UNL     1      -1.849  16.553  20.789  0.00  0.00    +0.000 A 
ATOM     29  C   UNL     1      -3.232  16.851  20.732  0.00  0.00    +0.000 A 
ATOM     30  C   UNL     1      -3.889  15.651  20.862  0.00  0.00    +0.000 A 
ATOM     31  O   UNL     1      -2.999  14.638  20.997  0.00  0.00    +0.000 OA
ENDBRANCH  26  27
ENDBRANCH  11  26
TORSDOF 5
ENDMDL
MODEL 3
REMARK VINA RESULT:      -6.7      1.061      1.372
REMARK  Name = 
REMARK  6 active torsions:
REMARK  status: ('A' for Active; 'I' for Inactive)
REMARK    1  A    between atoms: C_1  and  C_2
REMARK    2  A    between atoms: C_2  and  C_3
REMARK    3  A    between atoms: N_5  and  C_6
REMARK    4  A    between atoms: C_16  and  C_17
REMARK    5  A    between atoms: N_24  and  C_25
REMARK    6  A    between atoms: C_25  and  C_26
REMARK                            x       y       z     vdW  Elec       q    Type
REMARK                         _______ _______ _______ _____ _____    ______ ____
ROOT
ATOM      1  C   UNL     1      -0.667  13.003  17.895  0.00  0.00    +0.000 C 
ATOM      2  C   UNL     1      -1.033  12.346  19.236  0.00  0.00    +0.000 C 
ATOM      3  C   UNL     1       0.033  11.273  19.502  0.00  0.00    +0.000 C 
ATOM      4  N   UNL     1      -0.155  10.674  20.809  0.00  0.00    +0.000 N 
ATOM      5  C   UNL     1      -0.838  11.327  21.809  0.00  0.00    +0.000 A 
ATOM      6  C   UNL     1      -0.911  10.448  22.873  0.00  0.00    +0.000 A 
ATOM      7  C   UNL     1      -0.211   9.268  22.507  0.00  0.00    +0.000 A 
ATOM      8  C   UNL     1       0.297   9.453  21.235  0.00  0.00    +0.000 A 
ATOM      9  C   UNL     1      -1.288  12.699  21.701  0.00  0.00    +0.000 C 
ATOM     10  O   UNL     1      -1.697  13.352  22.657  0.00  0.00    +0.000 OA
ATOM     11  N   UNL     1      -1.154  13.266  20.422  0.00  0.00    +0.000 N 
ENDROOT
BRANCH   8  12
ATOM     12  C   UNL     1       1.134   8.596  20.450  0.00  0.00    +0.000 A 
ATOM     13  C   UNL     1       1.671   7.364  20.780  0.00  0.00    +0.000 A 
ATOM     14  C   UNL     1       2.417   6.917  19.662  0.00  0.00    +0.000 A 
ATOM     15  C   UNL     1       2.310   7.904  18.716  0.00  0.00    +0.000 A 
ATOM     16  O   UNL     1       1.538   8.919  19.177  0.00  0.00    +0.000 OA
ENDBRANCH   8  12
BRANCH   2  17
ATOM     17  C   UNL     1      -2.409  11.634  18.979  0.00  0.00    +0.000 C 
ATOM     18  O   UNL     1      -2.471  10.475  18.558  0.00  0.00    +0.000 OA
ATOM     19  N   UNL     1      -3.534  12.411  19.166  0.00  0.00    +0.000 N 
ATOM     20  H   UNL     1      -3.397  13.392  19.390  0.00  0.00    +0.000 HD
BRANCH  19  21
ATOM     21  C   UNL     1      -4.879  11.924  18.938  0.00  0.00    +0.000 C 
ATOM     22  C   UNL     1      -5.916  12.616  19.818  0.00  0.00    +0.000 C 
ATOM     23  C   UNL     1      -7.238  12.299  19.129  0.00  0.00    +0.000 C 
ATOM     24  C   UNL     1      -6.908  12.174  17.641  0.00  0.00    +0.000 C 
ATOM     25  C   UNL     1      -5.385  12.235  17.532  0.00  0.00    +0.000 C 
ENDBRANCH  19  21
ENDBRANCH   2  17
BRANCH  11  26
ATOM     26  C   UNL     1      -0.693  14.655  20.400  0.00  0.00    +0.000 C 
BRANCH  26  27
ATOM     27  C   UNL     1       0.739  14.789  20.759  0.00  0.00    +0.000 A 
ATOM     28  C   UNL     1       1.409  14.965  21.953  0.00  0.00    +0.000 A 
ATOM     29  C   UNL     1       2.791  14.958  21.640  0.00  0.00    +0.000 A 
ATOM     30  C   UNL     1       2.876  14.744  20.285  0.00  0.00    +0.000 A 
ATOM     31  O   UNL     1       1.637  14.622  19.748  0.00  0.00    +0.000 OA
ENDBRANCH  26  27
ENDBRANCH  11  26
TORSDOF 5
ENDMDL
MODEL 4
REMARK VINA RESULT:      -6.6      3.727      6.370
REMARK  Name = 
REMARK  6 active torsions:
REMARK  status: ('A' for Active; 'I' for Inactive)
REMARK    1  A    between atoms: C_1  and  C_2
REMARK    2  A    between atoms: C_2  and  C_3
REMARK    3  A    between atoms: N_5  and  C_6
REMARK    4  A    between atoms: C_16  and  C_17
REMARK    5  A    between atoms: N_24  and  C_25
REMARK    6  A    between atoms: C_25  and  C_26
REMARK                            x       y       z     vdW  Elec       q    Type
REMARK                         _______ _______ _______ _____ _____    ______ ____
ROOT
ATOM      1  C   UNL     1      -6.131  14.807  19.898  0.00  0.00    +0.000 C 
ATOM      2  C   UNL     1      -5.298  13.826  20.738  0.00  0.00    +0.000 C 
ATOM      3  C   UNL     1      -3.884  14.418  20.828  0.00  0.00    +0.000 C 
ATOM      4  N   UNL     1      -3.048  13.623  21.707  0.00  0.00    +0.000 N 
ATOM      5  C   UNL     1      -3.590  12.808  22.673  0.00  0.00    +0.000 A 
ATOM      6  C   UNL     1      -2.533  12.136  23.257  0.00  0.00    +0.000 A 
ATOM      7  C   UNL     1      -1.337  12.603  22.652  0.00  0.00    +0.000 A 
ATOM      8  C   UNL     1      -1.679  13.569  21.724  0.00  0.00    +0.000 A 
ATOM      9  C   UNL     1      -5.001  12.786  22.996  0.00  0.00    +0.000 C 
ATOM     10  O   UNL     1      -5.457  12.233  23.993  0.00  0.00    +0.000 OA
ATOM     11  N   UNL     1      -5.820  13.514  22.116  0.00  0.00    +0.000 N 
ENDROOT
BRANCH   8  12
ATOM     12  C   UNL     1      -0.840  14.393  20.907  0.00  0.00    +0.000 A 
ATOM     13  C   UNL     1      -0.326  14.134  19.648  0.00  0.00    +0.000 A 
ATOM     14  C   UNL     1       0.434  15.265  19.263  0.00  0.00    +0.000 A 
ATOM     15  C   UNL     1       0.359  16.147  20.311  0.00  0.00    +0.000 A 
ATOM     16  O   UNL     1      -0.407  15.635  21.305  0.00  0.00    +0.000 OA
ENDBRANCH   8  12
BRANCH   2  17
ATOM     17  C   UNL     1      -5.238  12.507  19.887  0.00  0.00    +0.000 C 
ATOM     18  O   UNL     1      -6.035  11.582  20.069  0.00  0.00    +0.000 OA
ATOM     19  N   UNL     1      -4.191  12.415  18.994  0.00  0.00    +0.000 N 
ATOM     20  H   UNL     1      -3.505  13.163  18.993  0.00  0.00    +0.000 HD
BRANCH  19  21
ATOM     21  C   UNL     1      -3.965  11.253  18.157  0.00  0.00    +0.000 C 
ATOM     22  C   UNL     1      -4.263  11.517  16.685  0.00  0.00    +0.000 C 
ATOM     23  C   UNL     1      -3.559  10.372  15.967  0.00  0.00    +0.000 C 
ATOM     24  C   UNL     1      -2.355  10.016  16.840  0.00  0.00    +0.000 C 
ATOM     25  C   UNL     1      -2.498  10.831  18.124  0.00  0.00    +0.000 C 
ENDBRANCH  19  21
ENDBRANCH   2  17
BRANCH  11  26
ATOM     26  C   UNL     1      -6.892  14.282  22.752  0.00  0.00    +0.000 C 
BRANCH  26  27
ATOM     27  C   UNL     1      -6.413  15.556  23.339  0.00  0.00    +0.000 A 
ATOM     28  C   UNL     1      -5.319  15.900  24.107  0.00  0.00    +0.000 A 
ATOM     29  C   UNL     1      -5.390  17.301  24.299  0.00  0.00    +0.000 A 
ATOM     30  C   UNL     1      -6.500  17.727  23.608  0.00  0.00    +0.000 A 
ATOM     31  O   UNL     1      -7.114  16.678  23.008  0.00  0.00    +0.000 OA
ENDBRANCH  26  27
ENDBRANCH  11  26
TORSDOF 5
ENDMDL
MODEL 5
REMARK VINA RESULT:      -6.6      1.691      2.407
REMARK  Name = 
REMARK  6 active torsions:
REMARK  status: ('A' for Active; 'I' for Inactive)
REMARK    1  A    between atoms: C_1  and  C_2
REMARK    2  A    between atoms: C_2  and  C_3
REMARK    3  A    between atoms: N_5  and  C_6
REMARK    4  A    between atoms: C_16  and  C_17
REMARK    5  A    between atoms: N_24  and  C_25
REMARK    6  A    between atoms: C_25  and  C_26
REMARK                            x       y       z     vdW  Elec       q    Type
REMARK                         _______ _______ _______ _____ _____    ______ ____
ROOT
ATOM      1  C   UNL     1       0.628  13.343  18.611  0.00  0.00    +0.000 C 
ATOM      2  C   UNL     1       0.117  12.306  19.625  0.00  0.00    +0.000 C 
ATOM      3  C   UNL     1       1.062  11.100  19.530  0.00  0.00    +0.000 C 
ATOM      4  N   UNL     1       0.734  10.110  20.539  0.00  0.00    +0.000 N 
ATOM      5  C   UNL     1       0.048  10.446  21.682  0.00  0.00    +0.000 A 
ATOM      6  C   UNL     1      -0.173   9.267  22.368  0.00  0.00    +0.000 A 
ATOM      7  C   UNL     1       0.439   8.218  21.633  0.00  0.00    +0.000 A 
ATOM      8  C   UNL     1       1.045   8.775  20.522  0.00  0.00    +0.000 A 
ATOM      9  C   UNL     1      -0.268  11.811  22.049  0.00  0.00    +0.000 C 
ATOM     10  O   UNL     1      -0.679  12.133  23.159  0.00  0.00    +0.000 OA
ATOM     11  N   UNL     1       0.001  12.767  21.054  0.00  0.00    +0.000 N 
ENDROOT
BRANCH   8  12
ATOM     12  C   UNL     1       1.851   8.158  19.513  0.00  0.00    +0.000 A 
ATOM     13  C   UNL     1       2.098   8.579  18.218  0.00  0.00    +0.000 A 
ATOM     14  C   UNL     1       2.967   7.632  17.625  0.00  0.00    +0.000 A 
ATOM     15  C   UNL     1       3.192   6.674  18.580  0.00  0.00    +0.000 A 
ATOM     16  O   UNL     1       2.529   6.981  19.722  0.00  0.00    +0.000 OA
ENDBRANCH   8  12
BRANCH   2  17
ATOM     17  C   UNL     1      -1.298  11.879  19.093  0.00  0.00    +0.000 C 
ATOM     18  O   UNL     1      -2.335  12.188  19.688  0.00  0.00    +0.000 OA
ATOM     19  N   UNL     1      -1.303  11.066  17.978  0.00  0.00    +0.000 N 
ATOM     20  H   UNL     1      -0.406  10.751  17.621  0.00  0.00    +0.000 HD
BRANCH  19  21
ATOM     21  C   UNL     1      -2.517  10.551  17.380  0.00  0.00    +0.000 C 
ATOM     22  C   UNL     1      -3.600  11.615  17.226  0.00  0.00    +0.000 C 
ATOM     23  C   UNL     1      -4.562  11.003  16.216  0.00  0.00    +0.000 C 
ATOM     24  C   UNL     1      -3.704  10.112  15.316  0.00  0.00    +0.000 C 
ATOM     25  C   UNL     1      -2.310  10.086  15.940  0.00  0.00    +0.000 C 
ENDBRANCH  19  21
ENDBRANCH   2  17
BRANCH  11  26
ATOM     26  C   UNL     1       0.586  14.019  21.535  0.00  0.00    +0.000 C 
BRANCH  26  27
ATOM     27  C   UNL     1      -0.413  15.107  21.661  0.00  0.00    +0.000 A 
ATOM     28  C   UNL     1      -1.205  15.783  20.755  0.00  0.00    +0.000 A 
ATOM     29  C   UNL     1      -2.002  16.678  21.510  0.00  0.00    +0.000 A 
ATOM     30  C   UNL     1      -1.671  16.467  22.827  0.00  0.00    +0.000 A 
ATOM     31  O   UNL     1      -0.723  15.504  22.928  0.00  0.00    +0.000 OA
ENDBRANCH  26  27
ENDBRANCH  11  26
TORSDOF 5
ENDMDL
MODEL 6
REMARK VINA RESULT:      -6.5      3.389      6.392
REMARK  Name = 
REMARK  6 active torsions:
REMARK  status: ('A' for Active; 'I' for Inactive)
REMARK    1  A    between atoms: C_1  and  C_2
REMARK    2  A    between atoms: C_2  and  C_3
REMARK    3  A    between atoms: N_5  and  C_6
REMARK    4  A    between atoms: C_16  and  C_17
REMARK    5  A    between atoms: N_24  and  C_25
REMARK    6  A    between atoms: C_25  and  C_26
REMARK                            x       y       z     vdW  Elec       q    Type
REMARK                         _______ _______ _______ _____ _____    ______ ____
ROOT
ATOM      1  C   UNL     1      -1.164  11.538  21.744  0.00  0.00    +0.000 C 
ATOM      2  C   UNL     1      -1.898  12.751  21.151  0.00  0.00    +0.000 C 
ATOM      3  C   UNL     1      -3.383  12.577  21.502  0.00  0.00    +0.000 C 
ATOM      4  N   UNL     1      -4.148  13.738  21.088  0.00  0.00    +0.000 N 
ATOM      5  C   UNL     1      -3.553  14.964  20.901  0.00  0.00    +0.000 A 
ATOM      6  C   UNL     1      -4.538  15.809  20.427  0.00  0.00    +0.000 A 
ATOM      7  C   UNL     1      -5.752  15.076  20.380  0.00  0.00    +0.000 A 
ATOM      8  C   UNL     1      -5.496  13.800  20.848  0.00  0.00    +0.000 A 
ATOM      9  C   UNL     1      -2.172  15.238  21.239  0.00  0.00    +0.000 C 
ATOM     10  O   UNL     1      -1.700  16.370  21.282  0.00  0.00    +0.000 OA
ATOM     11  N   UNL     1      -1.414  14.108  21.591  0.00  0.00    +0.000 N 
ENDROOT
BRANCH   8  12
ATOM     12  C   UNL     1      -6.395  12.708  21.068  0.00  0.00    +0.000 A 
ATOM     13  C   UNL     1      -7.213  12.460  22.156  0.00  0.00    +0.000 A 
ATOM     14  C   UNL     1      -7.916  11.260  21.890  0.00  0.00    +0.000 A 
ATOM     15  C   UNL     1      -7.480  10.829  20.664  0.00  0.00    +0.000 A 
ATOM     16  O   UNL     1      -6.567  11.694  20.157  0.00  0.00    +0.000 OA
ENDBRANCH   8  12
BRANCH   2  17
ATOM     17  C   UNL     1      -1.729  12.610  19.596  0.00  0.00    +0.000 C 
ATOM     18  O   UNL     1      -0.951  13.328  18.960  0.00  0.00    +0.000 OA
ATOM     19  N   UNL     1      -2.567  11.703  18.979  0.00  0.00    +0.000 N 
ATOM     20  H   UNL     1      -3.267  11.243  19.551  0.00  0.00    +0.000 HD
BRANCH  19  21
ATOM     21  C   UNL     1      -2.569  11.476  17.548  0.00  0.00    +0.000 C 
ATOM     22  C   UNL     1      -2.054  10.091  17.167  0.00  0.00    +0.000 C 
ATOM     23  C   UNL     1      -2.547   9.906  15.738  0.00  0.00    +0.000 C 
ATOM     24  C   UNL     1      -3.850  10.702  15.645  0.00  0.00    +0.000 C 
ATOM     25  C   UNL     1      -3.977  11.474  16.957  0.00  0.00    +0.000 C 
ENDBRANCH  19  21
ENDBRANCH   2  17
BRANCH  11  26
ATOM     26  C   UNL     1      -0.495  14.298  22.713  0.00  0.00    +0.000 C 
BRANCH  26  27
ATOM     27  C   UNL     1      -1.175  14.798  23.932  0.00  0.00    +0.000 A 
ATOM     28  C   UNL     1      -0.967  15.880  24.763  0.00  0.00    +0.000 A 
ATOM     29  C   UNL     1      -2.001  15.845  25.730  0.00  0.00    +0.000 A 
ATOM     30  C   UNL     1      -2.791  14.767  25.409  0.00  0.00    +0.000 A 
ATOM     31  O   UNL     1      -2.308  14.139  24.309  0.00  0.00    +0.000 OA
ENDBRANCH  26  27
ENDBRANCH  11  26
TORSDOF 5
ENDMDL
MODEL 7
REMARK VINA RESULT:      -6.5      2.269      7.008
REMARK  Name = 
REMARK  6 active torsions:
REMARK  status: ('A' for Active; 'I' for Inactive)
REMARK    1  A    between atoms: C_1  and  C_2
REMARK    2  A    between atoms: C_2  and  C_3
REMARK    3  A    between atoms: N_5  and  C_6
REMARK    4  A    between atoms: C_16  and  C_17
REMARK    5  A    between atoms: N_24  and  C_25
REMARK    6  A    between atoms: C_25  and  C_26
REMARK                            x       y       z     vdW  Elec       q    Type
REMARK                         _______ _______ _______ _____ _____    ______ ____
ROOT
ATOM      1  C   UNL     1      -0.461  13.287  18.290  0.00  0.00    +0.000 C 
ATOM      2  C   UNL     1       0.002  12.292  19.367  0.00  0.00    +0.000 C 
ATOM      3  C   UNL     1      -1.052  12.334  20.483  0.00  0.00    +0.000 C 
ATOM      4  N   UNL     1      -0.768  11.336  21.496  0.00  0.00    +0.000 N 
ATOM      5  C   UNL     1      -0.000  10.229  21.221  0.00  0.00    +0.000 A 
ATOM      6  C   UNL     1       0.146   9.547  22.415  0.00  0.00    +0.000 A 
ATOM      7  C   UNL     1      -0.594  10.245  23.405  0.00  0.00    +0.000 A 
ATOM      8  C   UNL     1      -1.199  11.330  22.797  0.00  0.00    +0.000 A 
ATOM      9  C   UNL     1       0.455   9.886  19.891  0.00  0.00    +0.000 C 
ATOM     10  O   UNL     1       0.946   8.798  19.605  0.00  0.00    +0.000 OA
ATOM     11  N   UNL     1       0.227  10.873  18.916  0.00  0.00    +0.000 N 
ENDROOT
BRANCH   8  12
ATOM     12  C   UNL     1      -2.106  12.296  23.340  0.00  0.00    +0.000 A 
ATOM     13  C   UNL     1      -3.460  12.171  23.595  0.00  0.00    +0.000 A 
ATOM     14  C   UNL     1      -3.901  13.401  24.142  0.00  0.00    +0.000 A 
ATOM     15  C   UNL     1      -2.798  14.216  24.178  0.00  0.00    +0.000 A 
ATOM     16  O   UNL     1      -1.711  13.561  23.701  0.00  0.00    +0.000 OA
ENDBRANCH   8  12
BRANCH   2  17
ATOM     17  C   UNL     1       1.345  12.888  19.922  0.00  0.00    +0.000 C 
ATOM     18  O   UNL     1       1.643  12.811  21.118  0.00  0.00    +0.000 OA
ATOM     19  N   UNL     1       2.121  13.576  19.011  0.00  0.00    +0.000 N 
ATOM     20  H   UNL     1       1.747  13.704  18.076  0.00  0.00    +0.000 HD
BRANCH  19  21
ATOM     21  C   UNL     1       3.371  14.219  19.362  0.00  0.00    +0.000 C 
ATOM     22  C   UNL     1       4.282  14.438  18.159  0.00  0.00    +0.000 C 
ATOM     23  C   UNL     1       5.279  15.480  18.652  0.00  0.00    +0.000 C 
ATOM     24  C   UNL     1       4.521  16.325  19.676  0.00  0.00    +0.000 C 
ATOM     25  C   UNL     1       3.172  15.639  19.886  0.00  0.00    +0.000 C 
ENDBRANCH  19  21
ENDBRANCH   2  17
BRANCH  11  26
ATOM     26  C   UNL     1      -0.218  10.373  17.614  0.00  0.00    +0.000 C 
BRANCH  26  27
ATOM     27  C   UNL     1      -1.694  10.372  17.475  0.00  0.00    +0.000 A 
ATOM     28  C   UNL     1      -2.724   9.885  18.254  0.00  0.00    +0.000 A 
ATOM     29  C   UNL     1      -3.926  10.255  17.603  0.00  0.00    +0.000 A 
ATOM     30  C   UNL     1      -3.555  10.972  16.491  0.00  0.00    +0.000 A 
ATOM     31  O   UNL     1      -2.205  11.063  16.417  0.00  0.00    +0.000 OA
ENDBRANCH  26  27
ENDBRANCH  11  26
TORSDOF 5
ENDMDL
MODEL 8
REMARK VINA RESULT:      -6.5      3.024      4.811
REMARK  Name = 
REMARK  6 active torsions:
REMARK  status: ('A' for Active; 'I' for Inactive)
REMARK    1  A    between atoms: C_1  and  C_2
REMARK    2  A    between atoms: C_2  and  C_3
REMARK    3  A    between atoms: N_5  and  C_6
REMARK    4  A    between atoms: C_16  and  C_17
REMARK    5  A    between atoms: N_24  and  C_25
REMARK    6  A    between atoms: C_25  and  C_26
REMARK                            x       y       z     vdW  Elec       q    Type
REMARK                         _______ _______ _______ _____ _____    ______ ____
ROOT
ATOM      1  C   UNL     1       0.864  13.979  21.659  0.00  0.00    +0.000 C 
ATOM      2  C   UNL     1      -0.155  13.460  20.631  0.00  0.00    +0.000 C 
ATOM      3  C   UNL     1       0.191  11.985  20.381  0.00  0.00    +0.000 C 
ATOM      4  N   UNL     1      -0.793  11.367  19.511  0.00  0.00    +0.000 N 
ATOM      5  C   UNL     1      -2.062  11.881  19.380  0.00  0.00    +0.000 A 
ATOM      6  C   UNL     1      -2.697  11.116  18.419  0.00  0.00    +0.000 A 
ATOM      7  C   UNL     1      -1.795  10.099  18.010  0.00  0.00    +0.000 A 
ATOM      8  C   UNL     1      -0.632  10.244  18.743  0.00  0.00    +0.000 A 
ATOM      9  C   UNL     1      -2.570  12.966  20.194  0.00  0.00    +0.000 C 
ATOM     10  O   UNL     1      -3.756  13.279  20.236  0.00  0.00    +0.000 OA
ATOM     11  N   UNL     1      -1.608  13.600  21.000  0.00  0.00    +0.000 N 
ENDROOT
BRANCH   8  12
ATOM     12  C   UNL     1       0.547   9.430  18.760  0.00  0.00    +0.000 A 
ATOM     13  C   UNL     1       1.460   9.200  17.746  0.00  0.00    +0.000 A 
ATOM     14  C   UNL     1       2.454   8.334  18.263  0.00  0.00    +0.000 A 
ATOM     15  C   UNL     1       2.088   8.068  19.557  0.00  0.00    +0.000 A 
ATOM     16  O   UNL     1       0.944   8.724  19.870  0.00  0.00    +0.000 OA
ENDBRANCH   8  12
BRANCH   2  17
ATOM     17  C   UNL     1       0.137  14.274  19.320  0.00  0.00    +0.000 C 
ATOM     18  O   UNL     1       0.835  13.813  18.412  0.00  0.00    +0.000 OA
ATOM     19  N   UNL     1      -0.357  15.562  19.289  0.00  0.00    +0.000 N 
ATOM     20  H   UNL     1      -0.812  15.913  20.126  0.00  0.00    +0.000 HD
BRANCH  19  21
ATOM     21  C   UNL     1      -0.148  16.463  18.173  0.00  0.00    +0.000 C 
ATOM     22  C   UNL     1      -1.150  17.612  18.144  0.00  0.00    +0.000 C 
ATOM     23  C   UNL     1      -0.501  18.630  17.215  0.00  0.00    +0.000 C 
ATOM     24  C   UNL     1       1.007  18.437  17.381  0.00  0.00    +0.000 C 
ATOM     25  C   UNL     1       1.188  17.196  18.254  0.00  0.00    +0.000 C 
ENDBRANCH  19  21
ENDBRANCH   2  17
BRANCH  11  26
ATOM     26  C   UNL     1      -2.056  13.946  22.349  0.00  0.00    +0.000 C 
BRANCH  26  27
ATOM     27  C   UNL     1      -2.475  15.363  22.467  0.00  0.00    +0.000 A 
ATOM     28  C   UNL     1      -3.171  16.074  23.424  0.00  0.00    +0.000 A 
ATOM     29  C   UNL     1      -3.197  17.419  22.982  0.00  0.00    +0.000 A 
ATOM     30  C   UNL     1      -2.487  17.449  21.805  0.00  0.00    +0.000 A 
ATOM     31  O   UNL     1      -2.031  16.211  21.497  0.00  0.00    +0.000 OA
ENDBRANCH  26  27
ENDBRANCH  11  26
TORSDOF 5
ENDMDL
MODEL 9
REMARK VINA RESULT:      -6.5      2.448      5.972
REMARK  Name = 
REMARK  6 active torsions:
REMARK  status: ('A' for Active; 'I' for Inactive)
REMARK    1  A    between atoms: C_1  and  C_2
REMARK    2  A    between atoms: C_2  and  C_3
REMARK    3  A    between atoms: N_5  and  C_6
REMARK    4  A    between atoms: C_16  and  C_17
REMARK    5  A    between atoms: N_24  and  C_25
REMARK    6  A    between atoms: C_25  and  C_26
REMARK                            x       y       z     vdW  Elec       q    Type
REMARK                         _______ _______ _______ _____ _____    ______ ____
ROOT
ATOM      1  C   UNL     1       0.618  10.516  21.425  0.00  0.00    +0.000 C 
ATOM      2  C   UNL     1       0.522  11.934  20.838  0.00  0.00    +0.000 C 
ATOM      3  C   UNL     1       1.916  12.562  20.984  0.00  0.00    +0.000 C 
ATOM      4  N   UNL     1       1.962  13.865  20.347  0.00  0.00    +0.000 N 
ATOM      5  C   UNL     1       1.074  14.214  19.356  0.00  0.00    +0.000 A 
ATOM      6  C   UNL     1       1.337  15.534  19.042  0.00  0.00    +0.000 A 
ATOM      7  C   UNL     1       2.437  15.956  19.834  0.00  0.00    +0.000 A 
ATOM      8  C   UNL     1       2.844  14.882  20.603  0.00  0.00    +0.000 A 
ATOM      9  C   UNL     1       0.135  13.284  18.765  0.00  0.00    +0.000 C 
ATOM     10  O   UNL     1      -0.499  13.524  17.742  0.00  0.00    +0.000 OA
ATOM     11  N   UNL     1       0.051  12.038  19.411  0.00  0.00    +0.000 N 
ENDROOT
BRANCH   8  12
ATOM     12  C   UNL     1       3.950  14.769  21.505  0.00  0.00    +0.000 A 
ATOM     13  C   UNL     1       5.304  14.722  21.220  0.00  0.00    +0.000 A 
ATOM     14  C   UNL     1       5.990  14.619  22.455  0.00  0.00    +0.000 A 
ATOM     15  C   UNL     1       5.022  14.592  23.425  0.00  0.00    +0.000 A 
ATOM     16  O   UNL     1       3.790  14.684  22.867  0.00  0.00    +0.000 OA
ENDBRANCH   8  12
BRANCH   2  17
ATOM     17  C   UNL     1      -0.475  12.699  21.779  0.00  0.00    +0.000 C 
ATOM     18  O   UNL     1      -0.076  13.448  22.676  0.00  0.00    +0.000 OA
ATOM     19  N   UNL     1      -1.813  12.411  21.601  0.00  0.00    +0.000 N 
ATOM     20  H   UNL     1      -2.054  11.689  20.929  0.00  0.00    +0.000 HD
BRANCH  19  21
ATOM     21  C   UNL     1      -2.863  12.999  22.408  0.00  0.00    +0.000 C 
ATOM     22  C   UNL     1      -4.228  12.953  21.728  0.00  0.00    +0.000 C 
ATOM     23  C   UNL     1      -5.206  13.189  22.872  0.00  0.00    +0.000 C 
ATOM     24  C   UNL     1      -4.533  12.609  24.116  0.00  0.00    +0.000 C 
ATOM     25  C   UNL     1      -3.115  12.223  23.698  0.00  0.00    +0.000 C 
ENDBRANCH  19  21
ENDBRANCH   2  17
BRANCH  11  26
ATOM     26  C   UNL     1      -0.054  10.880  18.523  0.00  0.00    +0.000 C 
BRANCH  26  27
ATOM     27  C   UNL     1      -1.438  10.650  18.043  0.00  0.00    +0.000 A 
ATOM     28  C   UNL     1      -1.977   9.912  17.010  0.00  0.00    +0.000 A 
ATOM     29  C   UNL     1      -3.383  10.050  17.111  0.00  0.00    +0.000 A 
ATOM     30  C   UNL     1      -3.613  10.834  18.217  0.00  0.00    +0.000 A 
ATOM     31  O   UNL     1      -2.439  11.186  18.797  0.00  0.00    +0.000 OA
ENDBRANCH  26  27
ENDBRANCH  11  26
TORSDOF 5
ENDMDL
