MODEL 1
REMARK VINA RESULT:      -4.6      0.000      0.000
REMARK  Name = 
REMARK  3 active torsions:
REMARK  status: ('A' for Active; 'I' for Inactive)
REMARK    1  A    between atoms: C_2  and  C_3
REMARK    2  A    between atoms: C_6  and  C_7
REMARK    3  A    between atoms: C_7  and  O_8
REMARK                            x       y       z     vdW  Elec       q    Type
REMARK                         _______ _______ _______ _____ _____    ______ ____
ROOT
ATOM      1  C   UNL     1       7.002   4.787  14.247  0.00  0.00    +0.000 A 
ATOM      2  C   UNL     1       5.719   4.301  14.395  0.00  0.00    +0.000 A 
ATOM      3  C   UNL     1       5.509   4.128  15.783  0.00  0.00    +0.000 A 
ATOM      4  C   UNL     1       6.666   4.541  16.409  0.00  0.00    +0.000 A 
ATOM      5  O   UNL     1       7.584   4.936  15.475  0.00  0.00    +0.000 OA
ENDROOT
BRANCH   1   7
ATOM      6  O   UNL     1       8.690   5.937  13.050  0.00  0.00    +0.000 OA
ATOM      7  C   UNL     1       7.756   5.141  13.074  0.00  0.00    +0.000 C 
ENDBRANCH   1   7
BRANCH   4   8
ATOM      8  C   UNL     1       7.074   4.642  17.829  0.00  0.00    +0.000 C 
BRANCH   8   9
ATOM      9  O   UNL     1       6.172   3.856  18.595  0.00  0.00    +0.000 OA
ATOM     10  H   UNL     1       5.308   4.300  18.546  0.00  0.00    +0.000 HD
ENDBRANCH   8   9
ENDBRANCH   4   8
TORSDOF 3
ENDMDL
MODEL 2
REMARK VINA RESULT:      -4.6      0.336      3.931
REMARK  Name = 
REMARK  3 active torsions:
REMARK  status: ('A' for Active; 'I' for Inactive)
REMARK    1  A    between atoms: C_2  and  C_3
REMARK    2  A    between atoms: C_6  and  C_7
REMARK    3  A    between atoms: C_7  and  O_8
REMARK                            x       y       z     vdW  Elec       q    Type
REMARK                         _______ _______ _______ _____ _____    ______ ____
ROOT
ATOM      1  C   UNL     1       6.901   4.621  16.347  0.00  0.00    +0.000 A 
ATOM      2  C   UNL     1       5.679   4.211  15.855  0.00  0.00    +0.000 A 
ATOM      3  C   UNL     1       5.749   4.328  14.448  0.00  0.00    +0.000 A 
ATOM      4  C   UNL     1       7.019   4.780  14.155  0.00  0.00    +0.000 A 
ATOM      5  O   UNL     1       7.723   4.969  15.312  0.00  0.00    +0.000 OA
ENDROOT
BRANCH   1   7
ATOM      6  O   UNL     1       6.795   4.356  18.698  0.00  0.00    +0.000 OA
ATOM      7  C   UNL     1       7.400   4.720  17.693  0.00  0.00    +0.000 C 
ENDBRANCH   1   7
BRANCH   4   8
ATOM      8  C   UNL     1       7.728   5.073  12.887  0.00  0.00    +0.000 C 
BRANCH   8   9
ATOM      9  O   UNL     1       8.773   5.989  13.179  0.00  0.00    +0.000 OA
ATOM     10  H   UNL     1       8.459   6.544  13.913  0.00  0.00    +0.000 HD
ENDBRANCH   8   9
ENDBRANCH   4   8
TORSDOF 3
ENDMDL
MODEL 3
REMARK VINA RESULT:      -4.5      1.342      4.138
REMARK  Name = 
REMARK  3 active torsions:
REMARK  status: ('A' for Active; 'I' for Inactive)
REMARK    1  A    between atoms: C_2  and  C_3
REMARK    2  A    between atoms: C_6  and  C_7
REMARK    3  A    between atoms: C_7  and  O_8
REMARK                            x       y       z     vdW  Elec       q    Type
REMARK                         _______ _______ _______ _____ _____    ______ ____
ROOT
ATOM      1  C   UNL     1       7.024   5.161  17.904  0.00  0.00    +0.000 A 
ATOM      2  C   UNL     1       5.828   4.472  17.885  0.00  0.00    +0.000 A 
ATOM      3  C   UNL     1       5.539   4.203  16.527  0.00  0.00    +0.000 A 
ATOM      4  C   UNL     1       6.586   4.720  15.793  0.00  0.00    +0.000 A 
ATOM      5  O   UNL     1       7.491   5.314  16.629  0.00  0.00    +0.000 OA
ENDROOT
BRANCH   1   7
ATOM      6  O   UNL     1       7.619   5.429  20.181  0.00  0.00    +0.000 OA
ATOM      7  C   UNL     1       7.796   5.694  18.995  0.00  0.00    +0.000 C 
ENDBRANCH   1   7
BRANCH   4   8
ATOM      8  C   UNL     1       6.902   4.741  14.345  0.00  0.00    +0.000 C 
BRANCH   8   9
ATOM      9  O   UNL     1       8.015   5.603  14.159  0.00  0.00    +0.000 OA
ATOM     10  H   UNL     1       8.470   5.299  13.355  0.00  0.00    +0.000 HD
ENDBRANCH   8   9
ENDBRANCH   4   8
TORSDOF 3
ENDMDL
MODEL 4
REMARK VINA RESULT:      -4.4      4.462      6.881
REMARK  Name = 
REMARK  3 active torsions:
REMARK  status: ('A' for Active; 'I' for Inactive)
REMARK    1  A    between atoms: C_2  and  C_3
REMARK    2  A    between atoms: C_6  and  C_7
REMARK    3  A    between atoms: C_7  and  O_8
REMARK                            x       y       z     vdW  Elec       q    Type
REMARK                         _______ _______ _______ _____ _____    ______ ____
ROOT
ATOM      1  C   UNL     1       1.846   3.130  19.849  0.00  0.00    +0.000 A 
ATOM      2  C   UNL     1       1.165   3.307  18.661  0.00  0.00    +0.000 A 
ATOM      3  C   UNL     1       2.133   3.634  17.685  0.00  0.00    +0.000 A 
ATOM      4  C   UNL     1       3.356   3.614  18.323  0.00  0.00    +0.000 A 
ATOM      5  O   UNL     1       3.185   3.316  19.647  0.00  0.00    +0.000 OA
ENDROOT
BRANCH   1   7
ATOM      6  O   UNL     1       2.043   2.912  22.199  0.00  0.00    +0.000 OA
ATOM      7  C   UNL     1       1.384   2.794  21.169  0.00  0.00    +0.000 C 
ENDBRANCH   1   7
BRANCH   4   8
ATOM      8  C   UNL     1       4.747   3.835  17.863  0.00  0.00    +0.000 C 
BRANCH   8   9
ATOM      9  O   UNL     1       5.615   3.475  18.928  0.00  0.00    +0.000 OA
ATOM     10  H   UNL     1       5.781   2.520  18.840  0.00  0.00    +0.000 HD
ENDBRANCH   8   9
ENDBRANCH   4   8
TORSDOF 3
ENDMDL
MODEL 5
REMARK VINA RESULT:      -4.4      2.327      3.279
REMARK  Name = 
REMARK  3 active torsions:
REMARK  status: ('A' for Active; 'I' for Inactive)
REMARK    1  A    between atoms: C_2  and  C_3
REMARK    2  A    between atoms: C_6  and  C_7
REMARK    3  A    between atoms: C_7  and  O_8
REMARK                            x       y       z     vdW  Elec       q    Type
REMARK                         _______ _______ _______ _____ _____    ______ ____
ROOT
ATOM      1  C   UNL     1       6.051   4.618  17.359  0.00  0.00    +0.000 A 
ATOM      2  C   UNL     1       4.935   4.448  16.565  0.00  0.00    +0.000 A 
ATOM      3  C   UNL     1       4.003   3.709  17.330  0.00  0.00    +0.000 A 
ATOM      4  C   UNL     1       4.591   3.489  18.559  0.00  0.00    +0.000 A 
ATOM      5  O   UNL     1       5.845   4.035  18.578  0.00  0.00    +0.000 OA
ENDROOT
BRANCH   1   7
ATOM      6  O   UNL     1       7.461   6.229  16.346  0.00  0.00    +0.000 OA
ATOM      7  C   UNL     1       7.303   5.280  17.110  0.00  0.00    +0.000 C 
ENDBRANCH   1   7
BRANCH   4   8
ATOM      8  C   UNL     1       4.137   2.817  19.798  0.00  0.00    +0.000 C 
BRANCH   8   9
ATOM      9  O   UNL     1       5.087   1.810  20.117  0.00  0.00    +0.000 OA
ATOM     10  H   UNL     1       5.351   1.961  21.041  0.00  0.00    +0.000 HD
ENDBRANCH   8   9
ENDBRANCH   4   8
TORSDOF 3
ENDMDL
MODEL 6
REMARK VINA RESULT:      -4.4      1.596      2.705
REMARK  Name = 
REMARK  3 active torsions:
REMARK  status: ('A' for Active; 'I' for Inactive)
REMARK    1  A    between atoms: C_2  and  C_3
REMARK    2  A    between atoms: C_6  and  C_7
REMARK    3  A    between atoms: C_7  and  O_8
REMARK                            x       y       z     vdW  Elec       q    Type
REMARK                         _______ _______ _______ _____ _____    ______ ____
ROOT
ATOM      1  C   UNL     1       6.726   4.881  16.603  0.00  0.00    +0.000 A 
ATOM      2  C   UNL     1       7.335   5.623  17.595  0.00  0.00    +0.000 A 
ATOM      3  C   UNL     1       6.627   5.356  18.790  0.00  0.00    +0.000 A 
ATOM      4  C   UNL     1       5.641   4.447  18.468  0.00  0.00    +0.000 A 
ATOM      5  O   UNL     1       5.692   4.161  17.131  0.00  0.00    +0.000 OA
ENDROOT
BRANCH   1   7
ATOM      6  O   UNL     1       7.786   5.474  14.570  0.00  0.00    +0.000 OA
ATOM      7  C   UNL     1       7.009   4.761  15.198  0.00  0.00    +0.000 C 
ENDBRANCH   1   7
BRANCH   4   8
ATOM      8  C   UNL     1       4.599   3.752  19.260  0.00  0.00    +0.000 C 
BRANCH   8   9
ATOM      9  O   UNL     1       5.141   2.512  19.692  0.00  0.00    +0.000 OA
ATOM     10  H   UNL     1       6.097   2.651  19.805  0.00  0.00    +0.000 HD
ENDBRANCH   8   9
ENDBRANCH   4   8
TORSDOF 3
ENDMDL
MODEL 7
REMARK VINA RESULT:      -4.4      4.018      4.882
REMARK  Name = 
REMARK  3 active torsions:
REMARK  status: ('A' for Active; 'I' for Inactive)
REMARK    1  A    between atoms: C_2  and  C_3
REMARK    2  A    between atoms: C_6  and  C_7
REMARK    3  A    between atoms: C_7  and  O_8
REMARK                            x       y       z     vdW  Elec       q    Type
REMARK                         _______ _______ _______ _____ _____    ______ ____
ROOT
ATOM      1  C   UNL     1       4.732   3.982  18.810  0.00  0.00    +0.000 A 
ATOM      2  C   UNL     1       4.361   5.016  17.976  0.00  0.00    +0.000 A 
ATOM      3  C   UNL     1       5.436   5.935  17.969  0.00  0.00    +0.000 A 
ATOM      4  C   UNL     1       6.414   5.400  18.780  0.00  0.00    +0.000 A 
ATOM      5  O   UNL     1       5.986   4.211  19.303  0.00  0.00    +0.000 OA
ENDROOT
BRANCH   1   7
ATOM      6  O   UNL     1       3.694   1.886  18.435  0.00  0.00    +0.000 OA
ATOM      7  C   UNL     1       4.042   2.781  19.201  0.00  0.00    +0.000 C 
ENDBRANCH   1   7
BRANCH   4   8
ATOM      8  C   UNL     1       7.776   5.844  19.161  0.00  0.00    +0.000 C 
BRANCH   8   9
ATOM      9  O   UNL     1       8.001   5.442  20.504  0.00  0.00    +0.000 OA
ATOM     10  H   UNL     1       8.564   4.650  20.466  0.00  0.00    +0.000 HD
ENDBRANCH   8   9
ENDBRANCH   4   8
TORSDOF 3
ENDMDL
MODEL 8
REMARK VINA RESULT:      -4.3      4.767      7.209
REMARK  Name = 
REMARK  3 active torsions:
REMARK  status: ('A' for Active; 'I' for Inactive)
REMARK    1  A    between atoms: C_2  and  C_3
REMARK    2  A    between atoms: C_6  and  C_7
REMARK    3  A    between atoms: C_7  and  O_8
REMARK                            x       y       z     vdW  Elec       q    Type
REMARK                         _______ _______ _______ _____ _____    ______ ____
ROOT
ATOM      1  C   UNL     1       2.088   3.997  20.575  0.00  0.00    +0.000 A 
ATOM      2  C   UNL     1       1.746   5.315  20.354  0.00  0.00    +0.000 A 
ATOM      3  C   UNL     1       2.871   5.929  19.756  0.00  0.00    +0.000 A 
ATOM      4  C   UNL     1       3.829   4.946  19.622  0.00  0.00    +0.000 A 
ATOM      5  O   UNL     1       3.359   3.766  20.129  0.00  0.00    +0.000 OA
ENDROOT
BRANCH   1   7
ATOM      6  O   UNL     1       1.556   2.430  22.270  0.00  0.00    +0.000 OA
ATOM      7  C   UNL     1       1.349   2.908  21.158  0.00  0.00    +0.000 C 
ENDBRANCH   1   7
BRANCH   4   8
ATOM      8  C   UNL     1       5.197   4.929  19.051  0.00  0.00    +0.000 C 
BRANCH   8   9
ATOM      9  O   UNL     1       5.618   3.574  18.981  0.00  0.00    +0.000 OA
ATOM     10  H   UNL     1       6.088   3.387  19.812  0.00  0.00    +0.000 HD
ENDBRANCH   8   9
ENDBRANCH   4   8
TORSDOF 3
ENDMDL
MODEL 9
REMARK VINA RESULT:      -4.3      1.870      3.531
REMARK  Name = 
REMARK  3 active torsions:
REMARK  status: ('A' for Active; 'I' for Inactive)
REMARK    1  A    between atoms: C_2  and  C_3
REMARK    2  A    between atoms: C_6  and  C_7
REMARK    3  A    between atoms: C_7  and  O_8
REMARK                            x       y       z     vdW  Elec       q    Type
REMARK                         _______ _______ _______ _____ _____    ______ ____
ROOT
ATOM      1  C   UNL     1       6.920   5.666  16.613  0.00  0.00    +0.000 A 
ATOM      2  C   UNL     1       6.101   4.594  16.902  0.00  0.00    +0.000 A 
ATOM      3  C   UNL     1       5.912   3.891  15.689  0.00  0.00    +0.000 A 
ATOM      4  C   UNL     1       6.646   4.558  14.731  0.00  0.00    +0.000 A 
ATOM      5  O   UNL     1       7.256   5.648  15.288  0.00  0.00    +0.000 OA
ENDROOT
BRANCH   1   7
ATOM      6  O   UNL     1       7.708   7.853  17.063  0.00  0.00    +0.000 OA
ATOM      7  C   UNL     1       7.439   6.718  17.445  0.00  0.00    +0.000 C 
ENDBRANCH   1   7
BRANCH   4   8
ATOM      8  C   UNL     1       6.892   4.320  13.289  0.00  0.00    +0.000 C 
BRANCH   8   9
ATOM      9  O   UNL     1       6.312   3.068  12.953  0.00  0.00    +0.000 OA
ATOM     10  H   UNL     1       5.719   2.831  13.687  0.00  0.00    +0.000 HD
ENDBRANCH   8   9
ENDBRANCH   4   8
TORSDOF 3
ENDMDL
