MODEL 1
REMARK VINA RESULT:      -7.3      0.000      0.000
REMARK  Name = 
REMARK  9 active torsions:
REMARK  status: ('A' for Active; 'I' for Inactive)
REMARK    1  A    between atoms: C_2  and  O_3
REMARK    2  A    between atoms: C_2  and  C_4
REMARK    3  A    between atoms: C_4  and  S_5
REMARK    4  A    between atoms: S_5  and  C_6
REMARK    5  A    between atoms: C_8  and  N_9
REMARK    6  A    between atoms: N_9  and  S_10
REMARK    7  A    between atoms: S_10  and  C_13
REMARK    8  A    between atoms: C_13  and  C_14
REMARK    9  A    between atoms: C_27  and  O_28
REMARK                            x       y       z     vdW  Elec       q    Type
REMARK                         _______ _______ _______ _____ _____    ______ ____
ROOT
ATOM      1  C   UNL     1       4.044   5.921  17.705  0.00  0.00    +0.000 A 
ATOM      2  C   UNL     1       3.626   6.619  18.841  0.00  0.00    +0.000 A 
ATOM      3  C   UNL     1       2.688   6.059  19.714  0.00  0.00    +0.000 A 
ATOM      4  C   UNL     1       2.107   4.786  19.444  0.00  0.00    +0.000 A 
ATOM      5  C   UNL     1       1.105   4.203  20.258  0.00  0.00    +0.000 A 
ATOM      6  C   UNL     1       0.557   2.951  19.984  0.00  0.00    +0.000 A 
ATOM      7  C   UNL     1       1.007   2.229  18.894  0.00  0.00    +0.000 A 
ATOM      8  C   UNL     1       1.996   2.766  18.075  0.00  0.00    +0.000 A 
ATOM      9  C   UNL     1       2.552   4.051  18.309  0.00  0.00    +0.000 A 
ATOM     10  C   UNL     1       3.532   4.633  17.466  0.00  0.00    +0.000 A 
ENDROOT
BRANCH   3  11
ATOM     11  N   UNL     1       2.331   6.831  20.896  0.00  0.00    +0.000 N 
ATOM     12  H   UNL     1       2.039   6.215  21.655  0.00  0.00    +0.000 HD
BRANCH  11  13
ATOM     13  S   UNL     1       1.146   8.048  20.637  0.00  0.00    +0.000 S 
ATOM     14  O   UNL     1       1.446   8.688  19.374  0.00  0.00    +0.000 OA
ATOM     15  O   UNL     1      -0.133   7.428  20.901  0.00  0.00    +0.000 OA
BRANCH  13  16
ATOM     16  C   UNL     1       1.523   9.185  21.989  0.00  0.00    +0.000 C 
BRANCH  16  17
ATOM     17  C   UNL     1       0.426  10.220  22.112  0.00  0.00    +0.000 A 
ATOM     18  C   UNL     1       0.369  11.318  21.238  0.00  0.00    +0.000 A 
ATOM     19  C   UNL     1      -0.642  12.279  21.359  0.00  0.00    +0.000 A 
ATOM     20  C   UNL     1      -1.606  12.148  22.354  0.00  0.00    +0.000 A 
ATOM     21 CL   UNL     1      -2.841  13.336  22.512  0.00  0.00    +0.000 Cl
ATOM     22  C   UNL     1      -1.572  11.061  23.224  0.00  0.00    +0.000 A 
ATOM     23  C   UNL     1      -0.560  10.101  23.104  0.00  0.00    +0.000 A 
ENDBRANCH  16  17
ENDBRANCH  13  16
ENDBRANCH  11  13
ENDBRANCH   3  11
BRANCH  10  24
ATOM     24  O   UNL     1       4.040   3.952  16.383  0.00  0.00    +0.000 OA
ATOM     25  H   UNL     1       3.341   3.778  15.735  0.00  0.00    +0.000 HD
ENDBRANCH  10  24
BRANCH   1  26
ATOM     26  S   UNL     1       5.235   6.714  16.615  0.00  0.00    +0.000 S 
BRANCH  26  27
ATOM     27  C   UNL     1       6.778   6.389  17.554  0.00  0.00    +0.000 C 
BRANCH  27  29
ATOM     28  O   UNL     1       7.866   4.389  18.327  0.00  0.00    +0.000 OA
ATOM     29  C   UNL     1       7.257   4.958  17.430  0.00  0.00    +0.000 C 
BRANCH  29  30
ATOM     30  O   UNL     1       6.988   4.343  16.257  0.00  0.00    +0.000 OA
ATOM     31  H   UNL     1       7.766   4.383  15.660  0.00  0.00    +0.000 HD
ENDBRANCH  29  30
ENDBRANCH  27  29
ENDBRANCH  26  27
ENDBRANCH   1  26
TORSDOF 9
ENDMDL
MODEL 2
REMARK VINA RESULT:      -7.1      4.395      8.310
REMARK  Name = 
REMARK  9 active torsions:
REMARK  status: ('A' for Active; 'I' for Inactive)
REMARK    1  A    between atoms: C_2  and  O_3
REMARK    2  A    between atoms: C_2  and  C_4
REMARK    3  A    between atoms: C_4  and  S_5
REMARK    4  A    between atoms: S_5  and  C_6
REMARK    5  A    between atoms: C_8  and  N_9
REMARK    6  A    between atoms: N_9  and  S_10
REMARK    7  A    between atoms: S_10  and  C_13
REMARK    8  A    between atoms: C_13  and  C_14
REMARK    9  A    between atoms: C_27  and  O_28
REMARK                            x       y       z     vdW  Elec       q    Type
REMARK                         _______ _______ _______ _____ _____    ______ ____
ROOT
ATOM      1  C   UNL     1       3.474   4.421  19.679  0.00  0.00    +0.000 A 
ATOM      2  C   UNL     1       4.339   4.694  18.616  0.00  0.00    +0.000 A 
ATOM      3  C   UNL     1       4.299   5.932  17.966  0.00  0.00    +0.000 A 
ATOM      4  C   UNL     1       3.350   6.924  18.344  0.00  0.00    +0.000 A 
ATOM      5  C   UNL     1       3.222   8.168  17.677  0.00  0.00    +0.000 A 
ATOM      6  C   UNL     1       2.294   9.132  18.069  0.00  0.00    +0.000 A 
ATOM      7  C   UNL     1       1.474   8.893  19.156  0.00  0.00    +0.000 A 
ATOM      8  C   UNL     1       1.575   7.685  19.841  0.00  0.00    +0.000 A 
ATOM      9  C   UNL     1       2.487   6.671  19.448  0.00  0.00    +0.000 A 
ATOM     10  C   UNL     1       2.581   5.420  20.108  0.00  0.00    +0.000 A 
ENDROOT
BRANCH   3  11
ATOM     11  N   UNL     1       5.257   6.154  16.893  0.00  0.00    +0.000 N 
ATOM     12  H   UNL     1       5.172   5.431  16.178  0.00  0.00    +0.000 HD
BRANCH  11  13
ATOM     13  S   UNL     1       6.894   6.293  17.398  0.00  0.00    +0.000 S 
ATOM     14  O   UNL     1       7.472   7.421  16.699  0.00  0.00    +0.000 OA
ATOM     15  O   UNL     1       6.879   6.207  18.841  0.00  0.00    +0.000 OA
BRANCH  13  16
ATOM     16  C   UNL     1       7.586   4.761  16.738  0.00  0.00    +0.000 C 
BRANCH  16  17
ATOM     17  C   UNL     1       6.903   4.406  15.435  0.00  0.00    +0.000 A 
ATOM     18  C   UNL     1       7.383   4.902  14.211  0.00  0.00    +0.000 A 
ATOM     19  C   UNL     1       6.744   4.580  13.008  0.00  0.00    +0.000 A 
ATOM     20  C   UNL     1       5.622   3.757  13.018  0.00  0.00    +0.000 A 
ATOM     21 CL   UNL     1       4.829   3.371  11.541  0.00  0.00    +0.000 Cl
ATOM     22  C   UNL     1       5.137   3.248  14.221  0.00  0.00    +0.000 A 
ATOM     23  C   UNL     1       5.774   3.572  15.424  0.00  0.00    +0.000 A 
ENDBRANCH  16  17
ENDBRANCH  13  16
ENDBRANCH  11  13
ENDBRANCH   3  11
BRANCH  10  24
ATOM     24  O   UNL     1       1.812   5.134  21.213  0.00  0.00    +0.000 OA
ATOM     25  H   UNL     1       1.368   5.934  21.532  0.00  0.00    +0.000 HD
ENDBRANCH  10  24
BRANCH   1  26
ATOM     26  S   UNL     1       3.565   2.799  20.451  0.00  0.00    +0.000 S 
BRANCH  26  27
ATOM     27  C   UNL     1       1.927   2.131  19.962  0.00  0.00    +0.000 C 
BRANCH  27  29
ATOM     28  O   UNL     1       0.690   3.055  18.118  0.00  0.00    +0.000 OA
ATOM     29  C   UNL     1       1.614   2.345  18.496  0.00  0.00    +0.000 C 
BRANCH  29  30
ATOM     30  O   UNL     1       2.406   1.689  17.620  0.00  0.00    +0.000 OA
ATOM     31  H   UNL     1       3.335   1.673  17.938  0.00  0.00    +0.000 HD
ENDBRANCH  29  30
ENDBRANCH  27  29
ENDBRANCH  26  27
ENDBRANCH   1  26
TORSDOF 9
ENDMDL
MODEL 3
REMARK VINA RESULT:      -7.1      2.062      2.364
REMARK  Name = 
REMARK  9 active torsions:
REMARK  status: ('A' for Active; 'I' for Inactive)
REMARK    1  A    between atoms: C_2  and  O_3
REMARK    2  A    between atoms: C_2  and  C_4
REMARK    3  A    between atoms: C_4  and  S_5
REMARK    4  A    between atoms: S_5  and  C_6
REMARK    5  A    between atoms: C_8  and  N_9
REMARK    6  A    between atoms: N_9  and  S_10
REMARK    7  A    between atoms: S_10  and  C_13
REMARK    8  A    between atoms: C_13  and  C_14
REMARK    9  A    between atoms: C_27  and  O_28
REMARK                            x       y       z     vdW  Elec       q    Type
REMARK                         _______ _______ _______ _____ _____    ______ ____
ROOT
ATOM      1  C   UNL     1       4.565   5.569  17.452  0.00  0.00    +0.000 A 
ATOM      2  C   UNL     1       3.986   6.658  18.107  0.00  0.00    +0.000 A 
ATOM      3  C   UNL     1       2.975   6.464  19.053  0.00  0.00    +0.000 A 
ATOM      4  C   UNL     1       2.484   5.157  19.339  0.00  0.00    +0.000 A 
ATOM      5  C   UNL     1       1.417   4.910  20.239  0.00  0.00    +0.000 A 
ATOM      6  C   UNL     1       0.958   3.623  20.515  0.00  0.00    +0.000 A 
ATOM      7  C   UNL     1       1.565   2.535  19.915  0.00  0.00    +0.000 A 
ATOM      8  C   UNL     1       2.621   2.738  19.031  0.00  0.00    +0.000 A 
ATOM      9  C   UNL     1       3.091   4.037  18.705  0.00  0.00    +0.000 A 
ATOM     10  C   UNL     1       4.140   4.268  17.779  0.00  0.00    +0.000 A 
ENDROOT
BRANCH   3  11
ATOM     11  N   UNL     1       2.447   7.646  19.720  0.00  0.00    +0.000 N 
ATOM     12  H   UNL     1       1.834   7.382  20.491  0.00  0.00    +0.000 HD
BRANCH  11  13
ATOM     13  S   UNL     1       1.648   8.765  18.689  0.00  0.00    +0.000 S 
ATOM     14  O   UNL     1       2.613   9.775  18.310  0.00  0.00    +0.000 OA
ATOM     15  O   UNL     1       0.936   7.974  17.711  0.00  0.00    +0.000 OA
BRANCH  13  16
ATOM     16  C   UNL     1       0.446   9.483  19.831  0.00  0.00    +0.000 C 
BRANCH  16  17
ATOM     17  C   UNL     1       0.279  10.958  19.541  0.00  0.00    +0.000 A 
ATOM     18  C   UNL     1      -0.567  11.399  18.509  0.00  0.00    +0.000 A 
ATOM     19  C   UNL     1      -0.715  12.764  18.237  0.00  0.00    +0.000 A 
ATOM     20  C   UNL     1      -0.019  13.701  18.996  0.00  0.00    +0.000 A 
ATOM     21 CL   UNL     1      -0.189  15.378  18.653  0.00  0.00    +0.000 Cl
ATOM     22  C   UNL     1       0.817  13.283  20.029  0.00  0.00    +0.000 A 
ATOM     23  C   UNL     1       0.966  11.919  20.300  0.00  0.00    +0.000 A 
ENDBRANCH  16  17
ENDBRANCH  13  16
ENDBRANCH  11  13
ENDBRANCH   3  11
BRANCH  10  24
ATOM     24  O   UNL     1       4.801   3.226  17.171  0.00  0.00    +0.000 OA
ATOM     25  H   UNL     1       5.725   3.197  17.460  0.00  0.00    +0.000 HD
ENDBRANCH  10  24
BRANCH   1  26
ATOM     26  S   UNL     1       5.843   5.896  16.229  0.00  0.00    +0.000 S 
BRANCH  26  27
ATOM     27  C   UNL     1       7.155   6.565  17.325  0.00  0.00    +0.000 C 
BRANCH  27  29
ATOM     28  O   UNL     1       7.687   4.343  18.076  0.00  0.00    +0.000 OA
ATOM     29  C   UNL     1       7.678   5.544  18.313  0.00  0.00    +0.000 C 
BRANCH  29  30
ATOM     30  O   UNL     1       8.124   6.035  19.491  0.00  0.00    +0.000 OA
ATOM     31  H   UNL     1       7.951   5.399  20.218  0.00  0.00    +0.000 HD
ENDBRANCH  29  30
ENDBRANCH  27  29
ENDBRANCH  26  27
ENDBRANCH   1  26
TORSDOF 9
ENDMDL
MODEL 4
REMARK VINA RESULT:      -7.0      0.757      1.256
REMARK  Name = 
REMARK  9 active torsions:
REMARK  status: ('A' for Active; 'I' for Inactive)
REMARK    1  A    between atoms: C_2  and  O_3
REMARK    2  A    between atoms: C_2  and  C_4
REMARK    3  A    between atoms: C_4  and  S_5
REMARK    4  A    between atoms: S_5  and  C_6
REMARK    5  A    between atoms: C_8  and  N_9
REMARK    6  A    between atoms: N_9  and  S_10
REMARK    7  A    between atoms: S_10  and  C_13
REMARK    8  A    between atoms: C_13  and  C_14
REMARK    9  A    between atoms: C_27  and  O_28
REMARK                            x       y       z     vdW  Elec       q    Type
REMARK                         _______ _______ _______ _____ _____    ______ ____
ROOT
ATOM      1  C   UNL     1       3.881   5.910  17.642  0.00  0.00    +0.000 A 
ATOM      2  C   UNL     1       3.515   6.643  18.773  0.00  0.00    +0.000 A 
ATOM      3  C   UNL     1       2.623   6.109  19.709  0.00  0.00    +0.000 A 
ATOM      4  C   UNL     1       2.037   4.826  19.510  0.00  0.00    +0.000 A 
ATOM      5  C   UNL     1       1.078   4.267  20.391  0.00  0.00    +0.000 A 
ATOM      6  C   UNL     1       0.524   3.004  20.185  0.00  0.00    +0.000 A 
ATOM      7  C   UNL     1       0.925   2.248  19.100  0.00  0.00    +0.000 A 
ATOM      8  C   UNL     1       1.870   2.761  18.216  0.00  0.00    +0.000 A 
ATOM      9  C   UNL     1       2.430   4.055  18.380  0.00  0.00    +0.000 A 
ATOM     10  C   UNL     1       3.366   4.612  17.471  0.00  0.00    +0.000 A 
ENDROOT
BRANCH   3  11
ATOM     11  N   UNL     1       2.319   6.919  20.880  0.00  0.00    +0.000 N 
ATOM     12  H   UNL     1       2.064   6.328  21.672  0.00  0.00    +0.000 HD
BRANCH  11  13
ATOM     13  S   UNL     1       1.121   8.127  20.637  0.00  0.00    +0.000 S 
ATOM     14  O   UNL     1       1.422   8.795  19.390  0.00  0.00    +0.000 OA
ATOM     15  O   UNL     1      -0.152   7.485  20.879  0.00  0.00    +0.000 OA
BRANCH  13  16
ATOM     16  C   UNL     1       1.474   9.241  22.014  0.00  0.00    +0.000 C 
BRANCH  16  17
ATOM     17  C   UNL     1       0.379  10.278  22.131  0.00  0.00    +0.000 A 
ATOM     18  C   UNL     1      -0.598  10.185  23.138  0.00  0.00    +0.000 A 
ATOM     19  C   UNL     1      -1.616  11.142  23.239  0.00  0.00    +0.000 A 
ATOM     20  C   UNL     1      -1.664  12.199  22.336  0.00  0.00    +0.000 A 
ATOM     21 CL   UNL     1      -2.922  13.368  22.452  0.00  0.00    +0.000 Cl
ATOM     22  C   UNL     1      -0.699  12.313  21.337  0.00  0.00    +0.000 A 
ATOM     23  C   UNL     1       0.317  11.356  21.235  0.00  0.00    +0.000 A 
ENDBRANCH  16  17
ENDBRANCH  13  16
ENDBRANCH  11  13
ENDBRANCH   3  11
BRANCH  10  24
ATOM     24  O   UNL     1       3.824   3.898  16.388  0.00  0.00    +0.000 OA
ATOM     25  H   UNL     1       3.615   2.958  16.490  0.00  0.00    +0.000 HD
ENDBRANCH  10  24
BRANCH   1  26
ATOM     26  S   UNL     1       5.014   6.670  16.470  0.00  0.00    +0.000 S 
BRANCH  26  27
ATOM     27  C   UNL     1       6.504   5.640  16.768  0.00  0.00    +0.000 C 
BRANCH  27  29
ATOM     28  O   UNL     1       6.490   3.712  15.331  0.00  0.00    +0.000 OA
ATOM     29  C   UNL     1       6.921   4.837  15.555  0.00  0.00    +0.000 C 
BRANCH  29  30
ATOM     30  O   UNL     1       7.819   5.426  14.734  0.00  0.00    +0.000 OA
ATOM     31  H   UNL     1       8.590   4.837  14.585  0.00  0.00    +0.000 HD
ENDBRANCH  29  30
ENDBRANCH  27  29
ENDBRANCH  26  27
ENDBRANCH   1  26
TORSDOF 9
ENDMDL
MODEL 5
REMARK VINA RESULT:      -7.0      2.182      2.673
REMARK  Name = 
REMARK  9 active torsions:
REMARK  status: ('A' for Active; 'I' for Inactive)
REMARK    1  A    between atoms: C_2  and  O_3
REMARK    2  A    between atoms: C_2  and  C_4
REMARK    3  A    between atoms: C_4  and  S_5
REMARK    4  A    between atoms: S_5  and  C_6
REMARK    5  A    between atoms: C_8  and  N_9
REMARK    6  A    between atoms: N_9  and  S_10
REMARK    7  A    between atoms: S_10  and  C_13
REMARK    8  A    between atoms: C_13  and  C_14
REMARK    9  A    between atoms: C_27  and  O_28
REMARK                            x       y       z     vdW  Elec       q    Type
REMARK                         _______ _______ _______ _____ _____    ______ ____
ROOT
ATOM      1  C   UNL     1       5.045   4.604  18.060  0.00  0.00    +0.000 A 
ATOM      2  C   UNL     1       4.123   5.573  17.656  0.00  0.00    +0.000 A 
ATOM      3  C   UNL     1       2.833   5.596  18.197  0.00  0.00    +0.000 A 
ATOM      4  C   UNL     1       2.417   4.610  19.137  0.00  0.00    +0.000 A 
ATOM      5  C   UNL     1       1.104   4.547  19.665  0.00  0.00    +0.000 A 
ATOM      6  C   UNL     1       0.719   3.581  20.594  0.00  0.00    +0.000 A 
ATOM      7  C   UNL     1       1.642   2.655  21.042  0.00  0.00    +0.000 A 
ATOM      8  C   UNL     1       2.944   2.689  20.552  0.00  0.00    +0.000 A 
ATOM      9  C   UNL     1       3.359   3.640  19.583  0.00  0.00    +0.000 A 
ATOM     10  C   UNL     1       4.670   3.669  19.042  0.00  0.00    +0.000 A 
ENDROOT
BRANCH   3  11
ATOM     11  N   UNL     1       1.942   6.658  17.754  0.00  0.00    +0.000 N 
ATOM     12  H   UNL     1       1.974   6.757  16.739  0.00  0.00    +0.000 HD
BRANCH  11  13
ATOM     13  S   UNL     1       2.201   8.184  18.502  0.00  0.00    +0.000 S 
ATOM     14  O   UNL     1       2.112   7.988  19.933  0.00  0.00    +0.000 OA
ATOM     15  O   UNL     1       3.376   8.746  17.872  0.00  0.00    +0.000 OA
BRANCH  13  16
ATOM     16  C   UNL     1       0.751   9.096  17.930  0.00  0.00    +0.000 C 
BRANCH  16  17
ATOM     17  C   UNL     1       0.467  10.250  18.866  0.00  0.00    +0.000 A 
ATOM     18  C   UNL     1       1.238  11.424  18.817  0.00  0.00    +0.000 A 
ATOM     19  C   UNL     1       0.980  12.488  19.690  0.00  0.00    +0.000 A 
ATOM     20  C   UNL     1      -0.054  12.388  20.616  0.00  0.00    +0.000 A 
ATOM     21 CL   UNL     1      -0.364  13.690  21.698  0.00  0.00    +0.000 Cl
ATOM     22  C   UNL     1      -0.836  11.236  20.673  0.00  0.00    +0.000 A 
ATOM     23  C   UNL     1      -0.576  10.172  19.802  0.00  0.00    +0.000 A 
ENDBRANCH  16  17
ENDBRANCH  13  16
ENDBRANCH  11  13
ENDBRANCH   3  11
BRANCH  10  24
ATOM     24  O   UNL     1       5.640   2.791  19.469  0.00  0.00    +0.000 OA
ATOM     25  H   UNL     1       5.505   1.919  19.071  0.00  0.00    +0.000 HD
ENDBRANCH  10  24
BRANCH   1  26
ATOM     26  S   UNL     1       6.677   4.621  17.305  0.00  0.00    +0.000 S 
BRANCH  26  27
ATOM     27  C   UNL     1       7.571   5.660  18.525  0.00  0.00    +0.000 C 
BRANCH  27  29
ATOM     28  O   UNL     1       7.355   7.490  16.980  0.00  0.00    +0.000 OA
ATOM     29  C   UNL     1       7.817   7.071  18.034  0.00  0.00    +0.000 C 
BRANCH  29  30
ATOM     30  O   UNL     1       8.597   7.844  18.822  0.00  0.00    +0.000 OA
ATOM     31  H   UNL     1       8.441   8.796  18.634  0.00  0.00    +0.000 HD
ENDBRANCH  29  30
ENDBRANCH  27  29
ENDBRANCH  26  27
ENDBRANCH   1  26
TORSDOF 9
ENDMDL
MODEL 6
REMARK VINA RESULT:      -7.0      2.194      2.564
REMARK  Name = 
REMARK  9 active torsions:
REMARK  status: ('A' for Active; 'I' for Inactive)
REMARK    1  A    between atoms: C_2  and  O_3
REMARK    2  A    between atoms: C_2  and  C_4
REMARK    3  A    between atoms: C_4  and  S_5
REMARK    4  A    between atoms: S_5  and  C_6
REMARK    5  A    between atoms: C_8  and  N_9
REMARK    6  A    between atoms: N_9  and  S_10
REMARK    7  A    between atoms: S_10  and  C_13
REMARK    8  A    between atoms: C_13  and  C_14
REMARK    9  A    between atoms: C_27  and  O_28
REMARK                            x       y       z     vdW  Elec       q    Type
REMARK                         _______ _______ _______ _____ _____    ______ ____
ROOT
ATOM      1  C   UNL     1       4.336   5.565  17.174  0.00  0.00    +0.000 A 
ATOM      2  C   UNL     1       3.823   6.682  17.838  0.00  0.00    +0.000 A 
ATOM      3  C   UNL     1       2.914   6.529  18.889  0.00  0.00    +0.000 A 
ATOM      4  C   UNL     1       2.457   5.237  19.278  0.00  0.00    +0.000 A 
ATOM      5  C   UNL     1       1.488   5.029  20.290  0.00  0.00    +0.000 A 
ATOM      6  C   UNL     1       1.062   3.756  20.665  0.00  0.00    +0.000 A 
ATOM      7  C   UNL     1       1.607   2.643  20.053  0.00  0.00    +0.000 A 
ATOM      8  C   UNL     1       2.568   2.807  19.059  0.00  0.00    +0.000 A 
ATOM      9  C   UNL     1       3.000   4.090  18.633  0.00  0.00    +0.000 A 
ATOM     10  C   UNL     1       3.949   4.280  17.597  0.00  0.00    +0.000 A 
ENDROOT
BRANCH   3  11
ATOM     11  N   UNL     1       2.453   7.739  19.556  0.00  0.00    +0.000 N 
ATOM     12  H   UNL     1       1.891   7.508  20.375  0.00  0.00    +0.000 HD
BRANCH  11  13
ATOM     13  S   UNL     1       1.603   8.843  18.551  0.00  0.00    +0.000 S 
ATOM     14  O   UNL     1       2.545   9.853  18.117  0.00  0.00    +0.000 OA
ATOM     15  O   UNL     1       0.850   8.038  17.614  0.00  0.00    +0.000 OA
BRANCH  13  16
ATOM     16  C   UNL     1       0.452   9.569  19.738  0.00  0.00    +0.000 C 
BRANCH  16  17
ATOM     17  C   UNL     1       0.299  11.050  19.468  0.00  0.00    +0.000 A 
ATOM     18  C   UNL     1       1.044  11.996  20.193  0.00  0.00    +0.000 A 
ATOM     19  C   UNL     1       0.895  13.366  19.947  0.00  0.00    +0.000 A 
ATOM     20  C   UNL     1       0.002  13.802  18.972  0.00  0.00    +0.000 A 
ATOM     21 CL   UNL     1      -0.191  15.486  18.678  0.00  0.00    +0.000 Cl
ATOM     22  C   UNL     1      -0.738  12.879  18.237  0.00  0.00    +0.000 A 
ATOM     23  C   UNL     1      -0.591  11.509  18.484  0.00  0.00    +0.000 A 
ENDBRANCH  16  17
ENDBRANCH  13  16
ENDBRANCH  11  13
ENDBRANCH   3  11
BRANCH  10  24
ATOM     24  O   UNL     1       4.548   3.212  16.970  0.00  0.00    +0.000 OA
ATOM     25  H   UNL     1       5.455   3.435  16.713  0.00  0.00    +0.000 HD
ENDBRANCH  10  24
BRANCH   1  26
ATOM     26  S   UNL     1       5.483   5.838  15.816  0.00  0.00    +0.000 S 
BRANCH  26  27
ATOM     27  C   UNL     1       7.073   5.601  16.702  0.00  0.00    +0.000 C 
BRANCH  27  29
ATOM     28  O   UNL     1       7.438   7.953  17.044  0.00  0.00    +0.000 OA
ATOM     29  C   UNL     1       7.495   6.817  17.498  0.00  0.00    +0.000 C 
BRANCH  29  30
ATOM     30  O   UNL     1       7.960   6.577  18.744  0.00  0.00    +0.000 OA
ATOM     31  H   UNL     1       7.344   5.993  19.237  0.00  0.00    +0.000 HD
ENDBRANCH  29  30
ENDBRANCH  27  29
ENDBRANCH  26  27
ENDBRANCH   1  26
TORSDOF 9
ENDMDL
MODEL 7
REMARK VINA RESULT:      -7.0      2.598      4.451
REMARK  Name = 
REMARK  9 active torsions:
REMARK  status: ('A' for Active; 'I' for Inactive)
REMARK    1  A    between atoms: C_2  and  O_3
REMARK    2  A    between atoms: C_2  and  C_4
REMARK    3  A    between atoms: C_4  and  S_5
REMARK    4  A    between atoms: S_5  and  C_6
REMARK    5  A    between atoms: C_8  and  N_9
REMARK    6  A    between atoms: N_9  and  S_10
REMARK    7  A    between atoms: S_10  and  C_13
REMARK    8  A    between atoms: C_13  and  C_14
REMARK    9  A    between atoms: C_27  and  O_28
REMARK                            x       y       z     vdW  Elec       q    Type
REMARK                         _______ _______ _______ _____ _____    ______ ____
ROOT
ATOM      1  C   UNL     1       3.706   4.026  19.255  0.00  0.00    +0.000 A 
ATOM      2  C   UNL     1       3.516   5.410  19.216  0.00  0.00    +0.000 A 
ATOM      3  C   UNL     1       3.959   6.158  18.120  0.00  0.00    +0.000 A 
ATOM      4  C   UNL     1       4.649   5.534  17.041  0.00  0.00    +0.000 A 
ATOM      5  C   UNL     1       5.176   6.253  15.940  0.00  0.00    +0.000 A 
ATOM      6  C   UNL     1       5.838   5.623  14.887  0.00  0.00    +0.000 A 
ATOM      7  C   UNL     1       5.979   4.248  14.889  0.00  0.00    +0.000 A 
ATOM      8  C   UNL     1       5.467   3.507  15.951  0.00  0.00    +0.000 A 
ATOM      9  C   UNL     1       4.816   4.120  17.053  0.00  0.00    +0.000 A 
ATOM     10  C   UNL     1       4.321   3.389  18.162  0.00  0.00    +0.000 A 
ENDROOT
BRANCH   3  11
ATOM     11  N   UNL     1       3.692   7.589  18.136  0.00  0.00    +0.000 N 
ATOM     12  H   UNL     1       4.305   8.063  18.800  0.00  0.00    +0.000 HD
BRANCH  11  13
ATOM     13  S   UNL     1       2.055   8.019  18.437  0.00  0.00    +0.000 S 
ATOM     14  O   UNL     1       1.228   7.237  17.544  0.00  0.00    +0.000 OA
ATOM     15  O   UNL     1       1.886   7.984  19.872  0.00  0.00    +0.000 OA
BRANCH  13  16
ATOM     16  C   UNL     1       2.051   9.744  17.900  0.00  0.00    +0.000 C 
BRANCH  16  17
ATOM     17  C   UNL     1       0.878  10.472  18.518  0.00  0.00    +0.000 A 
ATOM     18  C   UNL     1       1.078  11.461  19.497  0.00  0.00    +0.000 A 
ATOM     19  C   UNL     1      -0.010  12.128  20.074  0.00  0.00    +0.000 A 
ATOM     20  C   UNL     1      -1.306  11.814  19.675  0.00  0.00    +0.000 A 
ATOM     21 CL   UNL     1      -2.643  12.624  20.393  0.00  0.00    +0.000 Cl
ATOM     22  C   UNL     1      -1.523  10.844  18.699  0.00  0.00    +0.000 A 
ATOM     23  C   UNL     1      -0.436  10.176  18.124  0.00  0.00    +0.000 A 
ENDBRANCH  16  17
ENDBRANCH  13  16
ENDBRANCH  11  13
ENDBRANCH   3  11
BRANCH  10  24
ATOM     24  O   UNL     1       4.405   2.016  18.209  0.00  0.00    +0.000 OA
ATOM     25  H   UNL     1       5.332   1.734  18.203  0.00  0.00    +0.000 HD
ENDBRANCH  10  24
BRANCH   1  26
ATOM     26  S   UNL     1       3.132   3.132  20.706  0.00  0.00    +0.000 S 
BRANCH  26  27
ATOM     27  C   UNL     1       1.331   3.095  20.354  0.00  0.00    +0.000 C 
BRANCH  27  29
ATOM     28  O   UNL     1       0.440   3.392  18.141  0.00  0.00    +0.000 OA
ATOM     29  C   UNL     1       1.013   2.661  18.939  0.00  0.00    +0.000 C 
BRANCH  29  30
ATOM     30  O   UNL     1       1.384   1.405  18.607  0.00  0.00    +0.000 OA
ATOM     31  H   UNL     1       1.918   1.408  17.784  0.00  0.00    +0.000 HD
ENDBRANCH  29  30
ENDBRANCH  27  29
ENDBRANCH  26  27
ENDBRANCH   1  26
TORSDOF 9
ENDMDL
MODEL 8
REMARK VINA RESULT:      -6.9      2.596      2.954
REMARK  Name = 
REMARK  9 active torsions:
REMARK  status: ('A' for Active; 'I' for Inactive)
REMARK    1  A    between atoms: C_2  and  O_3
REMARK    2  A    between atoms: C_2  and  C_4
REMARK    3  A    between atoms: C_4  and  S_5
REMARK    4  A    between atoms: S_5  and  C_6
REMARK    5  A    between atoms: C_8  and  N_9
REMARK    6  A    between atoms: N_9  and  S_10
REMARK    7  A    between atoms: S_10  and  C_13
REMARK    8  A    between atoms: C_13  and  C_14
REMARK    9  A    between atoms: C_27  and  O_28
REMARK                            x       y       z     vdW  Elec       q    Type
REMARK                         _______ _______ _______ _____ _____    ______ ____
ROOT
ATOM      1  C   UNL     1       4.306   5.647  17.108  0.00  0.00    +0.000 A 
ATOM      2  C   UNL     1       3.764   6.794  17.692  0.00  0.00    +0.000 A 
ATOM      3  C   UNL     1       2.847   6.692  18.743  0.00  0.00    +0.000 A 
ATOM      4  C   UNL     1       2.414   5.418  19.213  0.00  0.00    +0.000 A 
ATOM      5  C   UNL     1       1.439   5.257  20.228  0.00  0.00    +0.000 A 
ATOM      6  C   UNL     1       1.036   4.002  20.683  0.00  0.00    +0.000 A 
ATOM      7  C   UNL     1       1.611   2.863  20.151  0.00  0.00    +0.000 A 
ATOM      8  C   UNL     1       2.578   2.982  19.157  0.00  0.00    +0.000 A 
ATOM      9  C   UNL     1       2.987   4.243  18.650  0.00  0.00    +0.000 A 
ATOM     10  C   UNL     1       3.942   4.385  17.612  0.00  0.00    +0.000 A 
ENDROOT
BRANCH   3  11
ATOM     11  N   UNL     1       2.355   7.933  19.324  0.00  0.00    +0.000 N 
ATOM     12  H   UNL     1       1.767   7.743  20.137  0.00  0.00    +0.000 HD
BRANCH  11  13
ATOM     13  S   UNL     1       1.529   8.969  18.230  0.00  0.00    +0.000 S 
ATOM     14  O   UNL     1       2.521   9.804  17.587  0.00  0.00    +0.000 OA
ATOM     15  O   UNL     1       0.628   8.125  17.478  0.00  0.00    +0.000 OA
BRANCH  13  16
ATOM     16  C   UNL     1       0.556   9.970  19.377  0.00  0.00    +0.000 C 
BRANCH  16  17
ATOM     17  C   UNL     1      -0.737  10.398  18.717  0.00  0.00    +0.000 A 
ATOM     18  C   UNL     1      -1.090   9.918  17.444  0.00  0.00    +0.000 A 
ATOM     19  C   UNL     1      -2.283  10.321  16.831  0.00  0.00    +0.000 A 
ATOM     20  C   UNL     1      -3.133  11.206  17.487  0.00  0.00    +0.000 A 
ATOM     21 CL   UNL     1      -4.593  11.712  16.729  0.00  0.00    +0.000 Cl
ATOM     22  C   UNL     1      -2.805  11.685  18.753  0.00  0.00    +0.000 A 
ATOM     23  C   UNL     1      -1.612  11.283  19.365  0.00  0.00    +0.000 A 
ENDBRANCH  16  17
ENDBRANCH  13  16
ENDBRANCH  11  13
ENDBRANCH   3  11
BRANCH  10  24
ATOM     24  O   UNL     1       4.569   3.291  17.062  0.00  0.00    +0.000 OA
ATOM     25  H   UNL     1       5.530   3.373  17.149  0.00  0.00    +0.000 HD
ENDBRANCH  10  24
BRANCH   1  26
ATOM     26  S   UNL     1       5.461   5.855  15.745  0.00  0.00    +0.000 S 
BRANCH  26  27
ATOM     27  C   UNL     1       7.041   5.566  16.632  0.00  0.00    +0.000 C 
BRANCH  27  29
ATOM     28  O   UNL     1       7.504   7.889  17.051  0.00  0.00    +0.000 OA
ATOM     29  C   UNL     1       7.467   6.743  17.483  0.00  0.00    +0.000 C 
BRANCH  29  30
ATOM     30  O   UNL     1       7.825   6.456  18.755  0.00  0.00    +0.000 OA
ATOM     31  H   UNL     1       8.380   5.647  18.783  0.00  0.00    +0.000 HD
ENDBRANCH  29  30
ENDBRANCH  27  29
ENDBRANCH  26  27
ENDBRANCH   1  26
TORSDOF 9
ENDMDL
MODEL 9
REMARK VINA RESULT:      -6.9      2.202      2.739
REMARK  Name = 
REMARK  9 active torsions:
REMARK  status: ('A' for Active; 'I' for Inactive)
REMARK    1  A    between atoms: C_2  and  O_3
REMARK    2  A    between atoms: C_2  and  C_4
REMARK    3  A    between atoms: C_4  and  S_5
REMARK    4  A    between atoms: S_5  and  C_6
REMARK    5  A    between atoms: C_8  and  N_9
REMARK    6  A    between atoms: N_9  and  S_10
REMARK    7  A    between atoms: S_10  and  C_13
REMARK    8  A    between atoms: C_13  and  C_14
REMARK    9  A    between atoms: C_27  and  O_28
REMARK                            x       y       z     vdW  Elec       q    Type
REMARK                         _______ _______ _______ _____ _____    ______ ____
ROOT
ATOM      1  C   UNL     1       5.136   4.528  18.240  0.00  0.00    +0.000 A 
ATOM      2  C   UNL     1       4.236   5.486  17.769  0.00  0.00    +0.000 A 
ATOM      3  C   UNL     1       2.914   5.507  18.227  0.00  0.00    +0.000 A 
ATOM      4  C   UNL     1       2.446   4.528  19.150  0.00  0.00    +0.000 A 
ATOM      5  C   UNL     1       1.102   4.462  19.594  0.00  0.00    +0.000 A 
ATOM      6  C   UNL     1       0.665   3.504  20.508  0.00  0.00    +0.000 A 
ATOM      7  C   UNL     1       1.563   2.588  21.023  0.00  0.00    +0.000 A 
ATOM      8  C   UNL     1       2.893   2.626  20.615  0.00  0.00    +0.000 A 
ATOM      9  C   UNL     1       3.363   3.569  19.664  0.00  0.00    +0.000 A 
ATOM     10  C   UNL     1       4.705   3.601  19.207  0.00  0.00    +0.000 A 
ENDROOT
BRANCH   3  11
ATOM     11  N   UNL     1       2.047   6.559  17.716  0.00  0.00    +0.000 N 
ATOM     12  H   UNL     1       2.122   6.628  16.701  0.00  0.00    +0.000 HD
BRANCH  11  13
ATOM     13  S   UNL     1       2.281   8.104  18.432  0.00  0.00    +0.000 S 
ATOM     14  O   UNL     1       2.106   7.954  19.860  0.00  0.00    +0.000 OA
ATOM     15  O   UNL     1       3.496   8.634  17.856  0.00  0.00    +0.000 OA
BRANCH  13  16
ATOM     16  C   UNL     1       0.877   9.012  17.748  0.00  0.00    +0.000 C 
BRANCH  16  17
ATOM     17  C   UNL     1       0.539  10.185  18.642  0.00  0.00    +0.000 A 
ATOM     18  C   UNL     1       1.400  11.291  18.738  0.00  0.00    +0.000 A 
ATOM     19  C   UNL     1       1.089  12.371  19.573  0.00  0.00    +0.000 A 
ATOM     20  C   UNL     1      -0.087  12.356  20.317  0.00  0.00    +0.000 A 
ATOM     21 CL   UNL     1      -0.463  13.677  21.352  0.00  0.00    +0.000 Cl
ATOM     22  C   UNL     1      -0.958  11.272  20.228  0.00  0.00    +0.000 A 
ATOM     23  C   UNL     1      -0.646  10.191  19.395  0.00  0.00    +0.000 A 
ENDBRANCH  16  17
ENDBRANCH  13  16
ENDBRANCH  11  13
ENDBRANCH   3  11
BRANCH  10  24
ATOM     24  O   UNL     1       5.651   2.734  19.704  0.00  0.00    +0.000 OA
ATOM     25  H   UNL     1       5.681   2.783  20.671  0.00  0.00    +0.000 HD
ENDBRANCH  10  24
BRANCH   1  26
ATOM     26  S   UNL     1       6.813   4.547  17.590  0.00  0.00    +0.000 S 
BRANCH  26  27
ATOM     27  C   UNL     1       6.552   5.580  16.095  0.00  0.00    +0.000 C 
BRANCH  27  29
ATOM     28  O   UNL     1       6.409   3.777  14.510  0.00  0.00    +0.000 OA
ATOM     29  C   UNL     1       6.898   4.859  14.809  0.00  0.00    +0.000 C 
BRANCH  29  30
ATOM     30  O   UNL     1       7.798   5.474  14.010  0.00  0.00    +0.000 OA
ATOM     31  H   UNL     1       8.246   4.822  13.429  0.00  0.00    +0.000 HD
ENDBRANCH  29  30
ENDBRANCH  27  29
ENDBRANCH  26  27
ENDBRANCH   1  26
TORSDOF 9
ENDMDL
