MODEL 1
REMARK VINA RESULT:      -8.6      0.000      0.000
REMARK  Name = 
REMARK  6 active torsions:
REMARK  status: ('A' for Active; 'I' for Inactive)
REMARK    1  A    between atoms: N_12  and  N_13
REMARK    2  A    between atoms: N_13  and  C_14
REMARK    3  A    between atoms: C_14  and  N_16
REMARK    4  A    between atoms: N_16  and  C_17
REMARK    5  A    between atoms: C_20  and  O_21
REMARK    6  A    between atoms: O_21  and  C_22
REMARK                            x       y       z     vdW  Elec       q    Type
REMARK                         _______ _______ _______ _____ _____    ______ ____
ROOT
ATOM      1  N   UNL     1       3.837   3.954  19.628  0.00  0.00    +0.000 N 
ATOM      2  H   UNL     1       4.569   3.751  20.315  0.00  0.00    +0.000 HD
ENDROOT
BRANCH   1  14
ATOM      3  O   UNL     1       6.332   5.232  19.842  0.00  0.00    +0.000 OA
ATOM      4  C   UNL     1       6.343   5.019  18.648  0.00  0.00    +0.000 C 
ATOM      5  N   UNL     1       7.319   5.309  17.716  0.00  0.00    +0.000 N 
ATOM      6  C   UNL     1       6.894   4.957  16.436  0.00  0.00    +0.000 A 
ATOM      7  C   UNL     1       7.574   5.122  15.246  0.00  0.00    +0.000 A 
ATOM      8  C   UNL     1       6.917   4.726  14.073  0.00  0.00    +0.000 A 
ATOM      9  C   UNL     1       5.615   4.192  14.122  0.00  0.00    +0.000 A 
ATOM     10  F   UNL     1       5.014   3.843  12.979  0.00  0.00    +0.000 F 
ATOM     11  C   UNL     1       4.939   4.020  15.324  0.00  0.00    +0.000 A 
ATOM     12  C   UNL     1       5.616   4.400  16.464  0.00  0.00    +0.000 A 
ATOM     13  C   UNL     1       5.209   4.357  17.862  0.00  0.00    +0.000 C 
ATOM     14  N   UNL     1       4.108   3.828  18.292  0.00  0.00    +0.000 NA
ATOM     15  H   UNL     1       8.194   5.751  17.950  0.00  0.00    +0.000 HD
ENDBRANCH   1  14
BRANCH   1  16
ATOM     16  C   UNL     1       2.760   4.731  20.036  0.00  0.00    +0.000 C 
ATOM     17  S   UNL     1       1.322   3.973  20.410  0.00  0.00    +0.000 S 
BRANCH  16  18
ATOM     18  N   UNL     1       3.059   6.078  20.034  0.00  0.00    +0.000 N 
ATOM     19  H   UNL     1       3.961   6.243  20.469  0.00  0.00    +0.000 HD
BRANCH  18  20
ATOM     20  C   UNL     1       2.319   7.215  19.670  0.00  0.00    +0.000 A 
ATOM     21  C   UNL     1       1.584   7.981  20.565  0.00  0.00    +0.000 A 
ATOM     22  C   UNL     1       0.991   9.183  20.156  0.00  0.00    +0.000 A 
ATOM     23  C   UNL     1       1.134   9.639  18.846  0.00  0.00    +0.000 A 
ATOM     24  C   UNL     1       1.815   8.846  17.925  0.00  0.00    +0.000 A 
ATOM     25  C   UNL     1       2.423   7.656  18.342  0.00  0.00    +0.000 A 
BRANCH  23  26
ATOM     26  O   UNL     1       0.505  10.812  18.565  0.00  0.00    +0.000 OA
BRANCH  26  27
ATOM     27  C   UNL     1      -0.895  10.800  18.312  0.00  0.00    +0.000 C 
ATOM     28  F   UNL     1      -1.319   9.777  17.540  0.00  0.00    +0.000 F 
ATOM     29  F   UNL     1      -1.551  10.746  19.491  0.00  0.00    +0.000 F 
ATOM     30  F   UNL     1      -1.236  11.955  17.696  0.00  0.00    +0.000 F 
ENDBRANCH  26  27
ENDBRANCH  23  26
ENDBRANCH  18  20
ENDBRANCH  16  18
ENDBRANCH   1  16
TORSDOF 6
ENDMDL
MODEL 2
REMARK VINA RESULT:      -8.4      1.222      1.745
REMARK  Name = 
REMARK  6 active torsions:
REMARK  status: ('A' for Active; 'I' for Inactive)
REMARK    1  A    between atoms: N_12  and  N_13
REMARK    2  A    between atoms: N_13  and  C_14
REMARK    3  A    between atoms: C_14  and  N_16
REMARK    4  A    between atoms: N_16  and  C_17
REMARK    5  A    between atoms: C_20  and  O_21
REMARK    6  A    between atoms: O_21  and  C_22
REMARK                            x       y       z     vdW  Elec       q    Type
REMARK                         _______ _______ _______ _____ _____    ______ ____
ROOT
ATOM      1  N   UNL     1       4.319   4.289  18.027  0.00  0.00    +0.000 N 
ATOM      2  H   UNL     1       5.101   4.445  18.669  0.00  0.00    +0.000 HD
ENDROOT
BRANCH   1  14
ATOM      3  O   UNL     1       6.524   6.009  17.735  0.00  0.00    +0.000 OA
ATOM      4  C   UNL     1       6.537   5.512  16.629  0.00  0.00    +0.000 C 
ATOM      5  N   UNL     1       7.409   5.732  15.580  0.00  0.00    +0.000 N 
ATOM      6  C   UNL     1       7.019   5.003  14.458  0.00  0.00    +0.000 A 
ATOM      7  C   UNL     1       7.615   4.987  13.213  0.00  0.00    +0.000 A 
ATOM      8  C   UNL     1       7.011   4.201  12.224  0.00  0.00    +0.000 A 
ATOM      9  C   UNL     1       5.840   3.470  12.500  0.00  0.00    +0.000 A 
ATOM     10  F   UNL     1       5.281   2.745  11.523  0.00  0.00    +0.000 F 
ATOM     11  C   UNL     1       5.249   3.482  13.758  0.00  0.00    +0.000 A 
ATOM     12  C   UNL     1       5.875   4.249  14.718  0.00  0.00    +0.000 A 
ATOM     13  C   UNL     1       5.529   4.482  16.114  0.00  0.00    +0.000 C 
ATOM     14  N   UNL     1       4.566   3.886  16.742  0.00  0.00    +0.000 NA
ATOM     15  H   UNL     1       8.188   6.368  15.633  0.00  0.00    +0.000 HD
ENDBRANCH   1  14
BRANCH   1  16
ATOM     16  C   UNL     1       3.098   4.875  18.336  0.00  0.00    +0.000 C 
ATOM     17  S   UNL     1       1.701   4.164  17.767  0.00  0.00    +0.000 S 
BRANCH  16  18
ATOM     18  N   UNL     1       3.247   6.030  19.075  0.00  0.00    +0.000 N 
ATOM     19  H   UNL     1       3.856   5.869  19.870  0.00  0.00    +0.000 HD
BRANCH  18  20
ATOM     20  C   UNL     1       2.636   7.294  18.997  0.00  0.00    +0.000 A 
ATOM     21  C   UNL     1       2.645   8.090  17.859  0.00  0.00    +0.000 A 
ATOM     22  C   UNL     1       1.892   9.271  17.810  0.00  0.00    +0.000 A 
ATOM     23  C   UNL     1       1.113   9.666  18.897  0.00  0.00    +0.000 A 
ATOM     24  C   UNL     1       1.149   8.908  20.065  0.00  0.00    +0.000 A 
ATOM     25  C   UNL     1       1.886   7.718  20.104  0.00  0.00    +0.000 A 
BRANCH  23  26
ATOM     26  O   UNL     1       0.436  10.834  18.734  0.00  0.00    +0.000 OA
BRANCH  26  27
ATOM     27  C   UNL     1      -0.933  10.790  18.350  0.00  0.00    +0.000 C 
ATOM     28  F   UNL     1      -1.254   9.769  17.528  0.00  0.00    +0.000 F 
ATOM     29  F   UNL     1      -1.695  10.700  19.461  0.00  0.00    +0.000 F 
ATOM     30  F   UNL     1      -1.247  11.945  17.721  0.00  0.00    +0.000 F 
ENDBRANCH  26  27
ENDBRANCH  23  26
ENDBRANCH  18  20
ENDBRANCH  16  18
ENDBRANCH   1  16
TORSDOF 6
ENDMDL
MODEL 3
REMARK VINA RESULT:      -8.2      0.358      1.245
REMARK  Name = 
REMARK  6 active torsions:
REMARK  status: ('A' for Active; 'I' for Inactive)
REMARK    1  A    between atoms: N_12  and  N_13
REMARK    2  A    between atoms: N_13  and  C_14
REMARK    3  A    between atoms: C_14  and  N_16
REMARK    4  A    between atoms: N_16  and  C_17
REMARK    5  A    between atoms: C_20  and  O_21
REMARK    6  A    between atoms: O_21  and  C_22
REMARK                            x       y       z     vdW  Elec       q    Type
REMARK                         _______ _______ _______ _____ _____    ______ ____
ROOT
ATOM      1  N   UNL     1       3.801   4.433  19.554  0.00  0.00    +0.000 N 
ATOM      2  H   UNL     1       4.583   4.631  20.185  0.00  0.00    +0.000 HD
ENDROOT
BRANCH   1  14
ATOM      3  O   UNL     1       6.452   5.356  19.714  0.00  0.00    +0.000 OA
ATOM      4  C   UNL     1       6.424   5.100  18.529  0.00  0.00    +0.000 C 
ATOM      5  N   UNL     1       7.424   5.215  17.584  0.00  0.00    +0.000 N 
ATOM      6  C   UNL     1       6.944   4.879  16.319  0.00  0.00    +0.000 A 
ATOM      7  C   UNL     1       7.631   4.904  15.122  0.00  0.00    +0.000 A 
ATOM      8  C   UNL     1       6.917   4.560  13.967  0.00  0.00    +0.000 A 
ATOM      9  C   UNL     1       5.554   4.215  14.039  0.00  0.00    +0.000 A 
ATOM     10  F   UNL     1       4.900   3.911  12.911  0.00  0.00    +0.000 F 
ATOM     11  C   UNL     1       4.869   4.183  15.248  0.00  0.00    +0.000 A 
ATOM     12  C   UNL     1       5.601   4.508  16.371  0.00  0.00    +0.000 A 
ATOM     13  C   UNL     1       5.203   4.574  17.771  0.00  0.00    +0.000 C 
ATOM     14  N   UNL     1       4.042   4.220  18.223  0.00  0.00    +0.000 NA
ATOM     15  H   UNL     1       8.354   5.539  17.800  0.00  0.00    +0.000 HD
ENDBRANCH   1  14
BRANCH   1  16
ATOM     16  C   UNL     1       2.524   4.789  19.969  0.00  0.00    +0.000 C 
ATOM     17  S   UNL     1       1.273   3.715  19.720  0.00  0.00    +0.000 S 
BRANCH  16  18
ATOM     18  N   UNL     1       2.490   6.053  20.520  0.00  0.00    +0.000 N 
ATOM     19  H   UNL     1       2.743   6.021  21.502  0.00  0.00    +0.000 HD
BRANCH  18  20
ATOM     20  C   UNL     1       2.066   7.296  20.020  0.00  0.00    +0.000 A 
ATOM     21  C   UNL     1       2.222   7.694  18.698  0.00  0.00    +0.000 A 
ATOM     22  C   UNL     1       1.645   8.885  18.239  0.00  0.00    +0.000 A 
ATOM     23  C   UNL     1       0.895   9.691  19.096  0.00  0.00    +0.000 A 
ATOM     24  C   UNL     1       0.787   9.333  20.438  0.00  0.00    +0.000 A 
ATOM     25  C   UNL     1       1.348   8.132  20.888  0.00  0.00    +0.000 A 
BRANCH  23  26
ATOM     26  O   UNL     1       0.395  10.826  18.539  0.00  0.00    +0.000 OA
BRANCH  26  27
ATOM     27  C   UNL     1      -0.953  10.835  18.083  0.00  0.00    +0.000 C 
ATOM     28  F   UNL     1      -1.367  12.014  17.573  0.00  0.00    +0.000 F 
ATOM     29  F   UNL     1      -1.098   9.885  17.134  0.00  0.00    +0.000 F 
ATOM     30  F   UNL     1      -1.765  10.520  19.117  0.00  0.00    +0.000 F 
ENDBRANCH  26  27
ENDBRANCH  23  26
ENDBRANCH  18  20
ENDBRANCH  16  18
ENDBRANCH   1  16
TORSDOF 6
ENDMDL
MODEL 4
REMARK VINA RESULT:      -8.1      1.945      2.509
REMARK  Name = 
REMARK  6 active torsions:
REMARK  status: ('A' for Active; 'I' for Inactive)
REMARK    1  A    between atoms: N_12  and  N_13
REMARK    2  A    between atoms: N_13  and  C_14
REMARK    3  A    between atoms: C_14  and  N_16
REMARK    4  A    between atoms: N_16  and  C_17
REMARK    5  A    between atoms: C_20  and  O_21
REMARK    6  A    between atoms: O_21  and  C_22
REMARK                            x       y       z     vdW  Elec       q    Type
REMARK                         _______ _______ _______ _____ _____    ______ ____
ROOT
ATOM      1  N   UNL     1       5.041   3.758  17.913  0.00  0.00    +0.000 N 
ATOM      2  H   UNL     1       5.732   4.350  18.384  0.00  0.00    +0.000 HD
ENDROOT
BRANCH   1  14
ATOM      3  O   UNL     1       6.932   5.795  17.489  0.00  0.00    +0.000 OA
ATOM      4  C   UNL     1       6.905   5.341  16.364  0.00  0.00    +0.000 C 
ATOM      5  N   UNL     1       7.623   5.721  15.248  0.00  0.00    +0.000 N 
ATOM      6  C   UNL     1       7.230   4.978  14.136  0.00  0.00    +0.000 A 
ATOM      7  C   UNL     1       7.692   5.090  12.840  0.00  0.00    +0.000 A 
ATOM      8  C   UNL     1       7.110   4.254  11.878  0.00  0.00    +0.000 A 
ATOM      9  C   UNL     1       6.091   3.349  12.233  0.00  0.00    +0.000 A 
ATOM     10  F   UNL     1       5.546   2.580  11.282  0.00  0.00    +0.000 F 
ATOM     11  C   UNL     1       5.637   3.233  13.541  0.00  0.00    +0.000 A 
ATOM     12  C   UNL     1       6.240   4.054  14.470  0.00  0.00    +0.000 A 
ATOM     13  C   UNL     1       6.009   4.189  15.902  0.00  0.00    +0.000 C 
ATOM     14  N   UNL     1       5.212   3.437  16.592  0.00  0.00    +0.000 NA
ATOM     15  H   UNL     1       8.303   6.464  15.255  0.00  0.00    +0.000 HD
ENDBRANCH   1  14
BRANCH   1  16
ATOM     16  C   UNL     1       3.780   3.650  18.485  0.00  0.00    +0.000 C 
ATOM     17  S   UNL     1       3.435   2.309  19.414  0.00  0.00    +0.000 S 
BRANCH  16  18
ATOM     18  N   UNL     1       2.963   4.709  18.147  0.00  0.00    +0.000 N 
ATOM     19  H   UNL     1       2.810   4.735  17.144  0.00  0.00    +0.000 HD
BRANCH  18  20
ATOM     20  C   UNL     1       2.433   5.777  18.892  0.00  0.00    +0.000 A 
ATOM     21  C   UNL     1       1.978   5.659  20.199  0.00  0.00    +0.000 A 
ATOM     22  C   UNL     1       1.600   6.795  20.926  0.00  0.00    +0.000 A 
ATOM     23  C   UNL     1       1.682   8.066  20.358  0.00  0.00    +0.000 A 
ATOM     24  C   UNL     1       2.076   8.187  19.028  0.00  0.00    +0.000 A 
ATOM     25  C   UNL     1       2.472   7.053  18.310  0.00  0.00    +0.000 A 
BRANCH  23  26
ATOM     26  O   UNL     1       1.278   9.089  21.158  0.00  0.00    +0.000 OA
BRANCH  26  27
ATOM     27  C   UNL     1      -0.115   9.345  21.301  0.00  0.00    +0.000 C 
ATOM     28  F   UNL     1      -0.793   8.400  21.987  0.00  0.00    +0.000 F 
ATOM     29  F   UNL     1      -0.277  10.529  21.931  0.00  0.00    +0.000 F 
ATOM     30  F   UNL     1      -0.668   9.445  20.072  0.00  0.00    +0.000 F 
ENDBRANCH  26  27
ENDBRANCH  23  26
ENDBRANCH  18  20
ENDBRANCH  16  18
ENDBRANCH   1  16
TORSDOF 6
ENDMDL
MODEL 5
REMARK VINA RESULT:      -8.1      2.397      8.420
REMARK  Name = 
REMARK  6 active torsions:
REMARK  status: ('A' for Active; 'I' for Inactive)
REMARK    1  A    between atoms: N_12  and  N_13
REMARK    2  A    between atoms: N_13  and  C_14
REMARK    3  A    between atoms: C_14  and  N_16
REMARK    4  A    between atoms: N_16  and  C_17
REMARK    5  A    between atoms: C_20  and  O_21
REMARK    6  A    between atoms: O_21  and  C_22
REMARK                            x       y       z     vdW  Elec       q    Type
REMARK                         _______ _______ _______ _____ _____    ______ ____
ROOT
ATOM      1  N   UNL     1       2.637   6.875  19.538  0.00  0.00    +0.000 N 
ATOM      2  H   UNL     1       3.305   7.281  18.876  0.00  0.00    +0.000 HD
ENDROOT
BRANCH   1  14
ATOM      3  O   UNL     1       2.225   8.653  17.399  0.00  0.00    +0.000 OA
ATOM      4  C   UNL     1       1.560   9.224  18.237  0.00  0.00    +0.000 C 
ATOM      5  N   UNL     1       0.816  10.382  18.125  0.00  0.00    +0.000 N 
ATOM      6  C   UNL     1       0.262  10.730  19.356  0.00  0.00    +0.000 A 
ATOM      7  C   UNL     1      -0.512  11.835  19.651  0.00  0.00    +0.000 A 
ATOM      8  C   UNL     1      -0.921  11.992  20.982  0.00  0.00    +0.000 A 
ATOM      9  C   UNL     1      -0.543  11.060  21.967  0.00  0.00    +0.000 A 
ATOM     10  F   UNL     1      -0.938  11.255  23.230  0.00  0.00    +0.000 F 
ATOM     11  C   UNL     1       0.228   9.945  21.662  0.00  0.00    +0.000 A 
ATOM     12  C   UNL     1       0.601   9.804  20.342  0.00  0.00    +0.000 A 
ATOM     13  C   UNL     1       1.396   8.772  19.690  0.00  0.00    +0.000 C 
ATOM     14  N   UNL     1       1.826   7.698  20.272  0.00  0.00    +0.000 NA
ATOM     15  H   UNL     1       0.735  10.906  17.268  0.00  0.00    +0.000 HD
ENDBRANCH   1  14
BRANCH   1  16
ATOM     16  C   UNL     1       2.858   5.572  19.968  0.00  0.00    +0.000 C 
ATOM     17  S   UNL     1       1.559   4.676  20.506  0.00  0.00    +0.000 S 
BRANCH  16  18
ATOM     18  N   UNL     1       4.192   5.224  19.908  0.00  0.00    +0.000 N 
ATOM     19  H   UNL     1       4.615   5.277  20.829  0.00  0.00    +0.000 HD
BRANCH  18  20
ATOM     20  C   UNL     1       5.054   4.944  18.834  0.00  0.00    +0.000 A 
ATOM     21  C   UNL     1       4.725   4.111  17.772  0.00  0.00    +0.000 A 
ATOM     22  C   UNL     1       5.577   3.995  16.667  0.00  0.00    +0.000 A 
ATOM     23  C   UNL     1       6.767   4.719  16.604  0.00  0.00    +0.000 A 
ATOM     24  C   UNL     1       7.136   5.507  17.692  0.00  0.00    +0.000 A 
ATOM     25  C   UNL     1       6.273   5.636  18.787  0.00  0.00    +0.000 A 
BRANCH  23  26
ATOM     26  O   UNL     1       7.515   4.516  15.487  0.00  0.00    +0.000 OA
BRANCH  26  27
ATOM     27  C   UNL     1       6.942   4.789  14.214  0.00  0.00    +0.000 C 
ATOM     28  F   UNL     1       7.783   5.366  13.330  0.00  0.00    +0.000 F 
ATOM     29  F   UNL     1       6.491   3.632  13.682  0.00  0.00    +0.000 F 
ATOM     30  F   UNL     1       5.883   5.613  14.380  0.00  0.00    +0.000 F 
ENDBRANCH  26  27
ENDBRANCH  23  26
ENDBRANCH  18  20
ENDBRANCH  16  18
ENDBRANCH   1  16
TORSDOF 6
ENDMDL
MODEL 6
REMARK VINA RESULT:      -8.0      1.302      1.689
REMARK  Name = 
REMARK  6 active torsions:
REMARK  status: ('A' for Active; 'I' for Inactive)
REMARK    1  A    between atoms: N_12  and  N_13
REMARK    2  A    between atoms: N_13  and  C_14
REMARK    3  A    between atoms: C_14  and  N_16
REMARK    4  A    between atoms: N_16  and  C_17
REMARK    5  A    between atoms: C_20  and  O_21
REMARK    6  A    between atoms: O_21  and  C_22
REMARK                            x       y       z     vdW  Elec       q    Type
REMARK                         _______ _______ _______ _____ _____    ______ ____
ROOT
ATOM      1  N   UNL     1       4.470   5.202  18.002  0.00  0.00    +0.000 N 
ATOM      2  H   UNL     1       5.130   5.935  18.275  0.00  0.00    +0.000 HD
ENDROOT
BRANCH   1  14
ATOM      3  O   UNL     1       6.948   6.413  17.456  0.00  0.00    +0.000 OA
ATOM      4  C   UNL     1       6.809   5.813  16.411  0.00  0.00    +0.000 C 
ATOM      5  N   UNL     1       7.652   5.748  15.319  0.00  0.00    +0.000 N 
ATOM      6  C   UNL     1       7.072   5.000  14.296  0.00  0.00    +0.000 A 
ATOM      7  C   UNL     1       7.590   4.740  13.043  0.00  0.00    +0.000 A 
ATOM      8  C   UNL     1       6.796   3.991  12.165  0.00  0.00    +0.000 A 
ATOM      9  C   UNL     1       5.521   3.538  12.555  0.00  0.00    +0.000 A 
ATOM     10  F   UNL     1       4.784   2.842  11.681  0.00  0.00    +0.000 F 
ATOM     11  C   UNL     1       5.009   3.795  13.821  0.00  0.00    +0.000 A 
ATOM     12  C   UNL     1       5.819   4.517  14.671  0.00  0.00    +0.000 A 
ATOM     13  C   UNL     1       5.596   4.955  16.043  0.00  0.00    +0.000 C 
ATOM     14  N   UNL     1       4.570   4.628  16.762  0.00  0.00    +0.000 NA
ATOM     15  H   UNL     1       8.541   6.221  15.279  0.00  0.00    +0.000 HD
ENDBRANCH   1  14
BRANCH   1  16
ATOM     16  C   UNL     1       3.275   5.107  18.704  0.00  0.00    +0.000 C 
ATOM     17  S   UNL     1       2.301   3.777  18.452  0.00  0.00    +0.000 S 
BRANCH  16  18
ATOM     18  N   UNL     1       3.060   6.203  19.514  0.00  0.00    +0.000 N 
ATOM     19  H   UNL     1       3.482   6.061  20.426  0.00  0.00    +0.000 HD
BRANCH  18  20
ATOM     20  C   UNL     1       2.291   7.368  19.352  0.00  0.00    +0.000 A 
ATOM     21  C   UNL     1       1.621   8.005  20.388  0.00  0.00    +0.000 A 
ATOM     22  C   UNL     1       0.996   9.241  20.180  0.00  0.00    +0.000 A 
ATOM     23  C   UNL     1       1.042   9.862  18.931  0.00  0.00    +0.000 A 
ATOM     24  C   UNL     1       1.656   9.202  17.871  0.00  0.00    +0.000 A 
ATOM     25  C   UNL     1       2.297   7.976  18.087  0.00  0.00    +0.000 A 
BRANCH  23  26
ATOM     26  O   UNL     1       0.390  11.053  18.849  0.00  0.00    +0.000 OA
BRANCH  26  27
ATOM     27  C   UNL     1      -1.001  11.060  18.549  0.00  0.00    +0.000 C 
ATOM     28  F   UNL     1      -1.387  12.033  17.697  0.00  0.00    +0.000 F 
ATOM     29  F   UNL     1      -1.336   9.866  18.015  0.00  0.00    +0.000 F 
ATOM     30  F   UNL     1      -1.694  11.213  19.700  0.00  0.00    +0.000 F 
ENDBRANCH  26  27
ENDBRANCH  23  26
ENDBRANCH  18  20
ENDBRANCH  16  18
ENDBRANCH   1  16
TORSDOF 6
ENDMDL
MODEL 7
REMARK VINA RESULT:      -8.0      0.985      1.489
REMARK  Name = 
REMARK  6 active torsions:
REMARK  status: ('A' for Active; 'I' for Inactive)
REMARK    1  A    between atoms: N_12  and  N_13
REMARK    2  A    between atoms: N_13  and  C_14
REMARK    3  A    between atoms: C_14  and  N_16
REMARK    4  A    between atoms: N_16  and  C_17
REMARK    5  A    between atoms: C_20  and  O_21
REMARK    6  A    between atoms: O_21  and  C_22
REMARK                            x       y       z     vdW  Elec       q    Type
REMARK                         _______ _______ _______ _____ _____    ______ ____
ROOT
ATOM      1  N   UNL     1       3.716   4.163  19.655  0.00  0.00    +0.000 N 
ATOM      2  H   UNL     1       4.480   4.077  20.331  0.00  0.00    +0.000 HD
ENDROOT
BRANCH   1  14
ATOM      3  O   UNL     1       6.314   5.219  19.857  0.00  0.00    +0.000 OA
ATOM      4  C   UNL     1       6.304   4.996  18.664  0.00  0.00    +0.000 C 
ATOM      5  N   UNL     1       7.301   5.191  17.729  0.00  0.00    +0.000 N 
ATOM      6  C   UNL     1       6.845   4.868  16.452  0.00  0.00    +0.000 A 
ATOM      7  C   UNL     1       7.534   4.963  15.260  0.00  0.00    +0.000 A 
ATOM      8  C   UNL     1       6.844   4.616  14.091  0.00  0.00    +0.000 A 
ATOM      9  C   UNL     1       5.500   4.200  14.146  0.00  0.00    +0.000 A 
ATOM     10  F   UNL     1       4.869   3.895  13.006  0.00  0.00    +0.000 F 
ATOM     11  C   UNL     1       4.813   4.097  15.349  0.00  0.00    +0.000 A 
ATOM     12  C   UNL     1       5.523   4.425  16.485  0.00  0.00    +0.000 A 
ATOM     13  C   UNL     1       5.116   4.430  17.884  0.00  0.00    +0.000 C 
ATOM     14  N   UNL     1       3.973   4.003  18.319  0.00  0.00    +0.000 NA
ATOM     15  H   UNL     1       8.211   5.556  17.959  0.00  0.00    +0.000 HD
ENDBRANCH   1  14
BRANCH   1  16
ATOM     16  C   UNL     1       2.566   4.833  20.053  0.00  0.00    +0.000 C 
ATOM     17  S   UNL     1       1.120   4.002  20.068  0.00  0.00    +0.000 S 
BRANCH  16  18
ATOM     18  N   UNL     1       2.813   6.156  20.357  0.00  0.00    +0.000 N 
ATOM     19  H   UNL     1       3.454   6.228  21.140  0.00  0.00    +0.000 HD
BRANCH  18  20
ATOM     20  C   UNL     1       2.264   7.359  19.880  0.00  0.00    +0.000 A 
ATOM     21  C   UNL     1       2.378   7.796  18.567  0.00  0.00    +0.000 A 
ATOM     22  C   UNL     1       1.683   8.931  18.130  0.00  0.00    +0.000 A 
ATOM     23  C   UNL     1       0.855   9.639  19.002  0.00  0.00    +0.000 A 
ATOM     24  C   UNL     1       0.785   9.246  20.335  0.00  0.00    +0.000 A 
ATOM     25  C   UNL     1       1.465   8.100  20.764  0.00  0.00    +0.000 A 
BRANCH  23  26
ATOM     26  O   UNL     1       0.241  10.728  18.466  0.00  0.00    +0.000 OA
BRANCH  26  27
ATOM     27  C   UNL     1       0.550  12.017  18.981  0.00  0.00    +0.000 C 
ATOM     28  F   UNL     1      -0.086  12.331  20.130  0.00  0.00    +0.000 F 
ATOM     29  F   UNL     1       1.881  12.094  19.195  0.00  0.00    +0.000 F 
ATOM     30  F   UNL     1       0.221  12.947  18.056  0.00  0.00    +0.000 F 
ENDBRANCH  26  27
ENDBRANCH  23  26
ENDBRANCH  18  20
ENDBRANCH  16  18
ENDBRANCH   1  16
TORSDOF 6
ENDMDL
MODEL 8
REMARK VINA RESULT:      -8.0      2.464      8.250
REMARK  Name = 
REMARK  6 active torsions:
REMARK  status: ('A' for Active; 'I' for Inactive)
REMARK    1  A    between atoms: N_12  and  N_13
REMARK    2  A    between atoms: N_13  and  C_14
REMARK    3  A    between atoms: C_14  and  N_16
REMARK    4  A    between atoms: N_16  and  C_17
REMARK    5  A    between atoms: C_20  and  O_21
REMARK    6  A    between atoms: O_21  and  C_22
REMARK                            x       y       z     vdW  Elec       q    Type
REMARK                         _______ _______ _______ _____ _____    ______ ____
ROOT
ATOM      1  N   UNL     1       2.877   6.100  20.141  0.00  0.00    +0.000 N 
ATOM      2  H   UNL     1       3.817   6.455  19.942  0.00  0.00    +0.000 HD
ENDROOT
BRANCH   1  14
ATOM      3  O   UNL     1       2.732   7.975  18.051  0.00  0.00    +0.000 OA
ATOM      4  C   UNL     1       1.968   8.512  18.825  0.00  0.00    +0.000 C 
ATOM      5  N   UNL     1       1.244   9.678  18.674  0.00  0.00    +0.000 N 
ATOM      6  C   UNL     1       0.541   9.973  19.841  0.00  0.00    +0.000 A 
ATOM      7  C   UNL     1      -0.263  11.067  20.088  0.00  0.00    +0.000 A 
ATOM      8  C   UNL     1      -0.835  11.166  21.363  0.00  0.00    +0.000 A 
ATOM      9  C   UNL     1      -0.582  10.189  22.344  0.00  0.00    +0.000 A 
ATOM     10  F   UNL     1      -1.131  10.328  23.557  0.00  0.00    +0.000 F 
ATOM     11  C   UNL     1       0.221   9.084  22.087  0.00  0.00    +0.000 A 
ATOM     12  C   UNL     1       0.755   9.001  20.818  0.00  0.00    +0.000 A 
ATOM     13  C   UNL     1       1.625   7.995  20.224  0.00  0.00    +0.000 C 
ATOM     14  N   UNL     1       1.980   6.894  20.805  0.00  0.00    +0.000 NA
ATOM     15  H   UNL     1       1.270  10.240  17.839  0.00  0.00    +0.000 HD
ENDBRANCH   1  14
BRANCH   1  16
ATOM     16  C   UNL     1       2.681   4.725  20.110  0.00  0.00    +0.000 C 
ATOM     17  S   UNL     1       1.210   4.115  20.606  0.00  0.00    +0.000 S 
BRANCH  16  18
ATOM     18  N   UNL     1       3.804   4.049  19.682  0.00  0.00    +0.000 N 
ATOM     19  H   UNL     1       4.050   3.315  20.338  0.00  0.00    +0.000 HD
BRANCH  18  20
ATOM     20  C   UNL     1       4.697   4.266  18.618  0.00  0.00    +0.000 A 
ATOM     21  C   UNL     1       5.936   4.877  18.759  0.00  0.00    +0.000 A 
ATOM     22  C   UNL     1       6.832   4.929  17.683  0.00  0.00    +0.000 A 
ATOM     23  C   UNL     1       6.502   4.359  16.453  0.00  0.00    +0.000 A 
ATOM     24  C   UNL     1       5.238   3.801  16.284  0.00  0.00    +0.000 A 
ATOM     25  C   UNL     1       4.352   3.734  17.367  0.00  0.00    +0.000 A 
BRANCH  23  26
ATOM     26  O   UNL     1       7.448   4.481  15.483  0.00  0.00    +0.000 OA
BRANCH  26  27
ATOM     27  C   UNL     1       7.044   4.832  14.165  0.00  0.00    +0.000 C 
ATOM     28  F   UNL     1       8.002   5.427  13.423  0.00  0.00    +0.000 F 
ATOM     29  F   UNL     1       6.636   3.717  13.522  0.00  0.00    +0.000 F 
ATOM     30  F   UNL     1       5.992   5.679  14.243  0.00  0.00    +0.000 F 
ENDBRANCH  26  27
ENDBRANCH  23  26
ENDBRANCH  18  20
ENDBRANCH  16  18
ENDBRANCH   1  16
TORSDOF 6
ENDMDL
MODEL 9
REMARK VINA RESULT:      -7.9      2.124      8.011
REMARK  Name = 
REMARK  6 active torsions:
REMARK  status: ('A' for Active; 'I' for Inactive)
REMARK    1  A    between atoms: N_12  and  N_13
REMARK    2  A    between atoms: N_13  and  C_14
REMARK    3  A    between atoms: C_14  and  N_16
REMARK    4  A    between atoms: N_16  and  C_17
REMARK    5  A    between atoms: C_20  and  O_21
REMARK    6  A    between atoms: O_21  and  C_22
REMARK                            x       y       z     vdW  Elec       q    Type
REMARK                         _______ _______ _______ _____ _____    ______ ____
ROOT
ATOM      1  N   UNL     1       2.997   6.271  19.914  0.00  0.00    +0.000 N 
ATOM      2  H   UNL     1       3.975   6.565  19.847  0.00  0.00    +0.000 HD
ENDROOT
BRANCH   1  14
ATOM      3  O   UNL     1       3.183   7.815  17.572  0.00  0.00    +0.000 OA
ATOM      4  C   UNL     1       2.343   8.471  18.151  0.00  0.00    +0.000 C 
ATOM      5  N   UNL     1       1.681   9.610  17.737  0.00  0.00    +0.000 N 
ATOM      6  C   UNL     1       0.844  10.085  18.746  0.00  0.00    +0.000 A 
ATOM      7  C   UNL     1       0.050  11.213  18.722  0.00  0.00    +0.000 A 
ATOM      8  C   UNL     1      -0.677  11.509  19.882  0.00  0.00    +0.000 A 
ATOM      9  C   UNL     1      -0.584  10.685  21.020  0.00  0.00    +0.000 A 
ATOM     10  F   UNL     1      -1.280  11.011  22.116  0.00  0.00    +0.000 F 
ATOM     11  C   UNL     1       0.210   9.545  21.035  0.00  0.00    +0.000 A 
ATOM     12  C   UNL     1       0.900   9.267  19.874  0.00  0.00    +0.000 A 
ATOM     13  C   UNL     1       1.806   8.173  19.553  0.00  0.00    +0.000 C 
ATOM     14  N   UNL     1       2.048   7.166  20.331  0.00  0.00    +0.000 NA
ATOM     15  H   UNL     1       1.833  10.042  16.839  0.00  0.00    +0.000 HD
ENDBRANCH   1  14
BRANCH   1  16
ATOM     16  C   UNL     1       2.730   4.909  19.984  0.00  0.00    +0.000 C 
ATOM     17  S   UNL     1       1.192   4.416  20.401  0.00  0.00    +0.000 S 
BRANCH  16  18
ATOM     18  N   UNL     1       3.847   4.145  19.717  0.00  0.00    +0.000 N 
ATOM     19  H   UNL     1       4.048   3.524  20.493  0.00  0.00    +0.000 HD
BRANCH  18  20
ATOM     20  C   UNL     1       4.781   4.163  18.667  0.00  0.00    +0.000 A 
ATOM     21  C   UNL     1       4.510   3.712  17.381  0.00  0.00    +0.000 A 
ATOM     22  C   UNL     1       5.442   3.895  16.351  0.00  0.00    +0.000 A 
ATOM     23  C   UNL     1       6.654   4.542  16.592  0.00  0.00    +0.000 A 
ATOM     24  C   UNL     1       6.961   4.940  17.890  0.00  0.00    +0.000 A 
ATOM     25  C   UNL     1       6.020   4.773  18.914  0.00  0.00    +0.000 A 
BRANCH  23  26
ATOM     26  O   UNL     1       7.480   4.651  15.516  0.00  0.00    +0.000 OA
BRANCH  26  27
ATOM     27  C   UNL     1       6.910   4.793  14.221  0.00  0.00    +0.000 C 
ATOM     28  F   UNL     1       6.490   3.638  13.661  0.00  0.00    +0.000 F 
ATOM     29  F   UNL     1       5.858   5.637  14.297  0.00  0.00    +0.000 F 
ATOM     30  F   UNL     1       7.829   5.344  13.397  0.00  0.00    +0.000 F 
ENDBRANCH  26  27
ENDBRANCH  23  26
ENDBRANCH  18  20
ENDBRANCH  16  18
ENDBRANCH   1  16
TORSDOF 6
ENDMDL
