MODEL 1
REMARK VINA RESULT:      -9.5      0.000      0.000
REMARK  Name = 
REMARK  6 active torsions:
REMARK  status: ('A' for Active; 'I' for Inactive)
REMARK    1  A    between atoms: C_2  and  C_3
REMARK    2  A    between atoms: C_2  and  C_13
REMARK    3  A    between atoms: C_3  and  C_4
REMARK    4  A    between atoms: C_4  and  C_5
REMARK    5  A    between atoms: C_5  and  O_6
REMARK    6  A    between atoms: C_5  and  C_7
REMARK                            x       y       z     vdW  Elec       q    Type
REMARK                         _______ _______ _______ _____ _____    ______ ____
ROOT
ATOM      1  C   UNL     1       6.146   4.630  17.623  0.00  0.00    +0.000 C 
ATOM      2  C   UNL     1       4.742   4.853  17.099  0.00  0.00    +0.000 C 
ATOM      3  O   UNL     1       4.017   3.766  17.628  0.00  0.00    +0.000 OA
ATOM      4  C   UNL     1       3.730   4.024  19.014  0.00  0.00    +0.000 C 
ATOM      5  O   UNL     1       4.788   4.793  19.638  0.00  0.00    +0.000 OA
ATOM      6  O   UNL     1       6.131   4.427  19.060  0.00  0.00    +0.000 OA
ATOM      7  C   UNL     1       2.402   4.842  19.000  0.00  0.00    +0.000 C 
ATOM      8  C   UNL     1       1.409   4.093  18.075  0.00  0.00    +0.000 C 
ATOM      9  C   UNL     1       1.146   2.679  18.630  0.00  0.00    +0.000 C 
ATOM     10  C   UNL     1       0.477   2.849  19.998  0.00  0.00    +0.000 C 
ATOM     11  C   UNL     1       1.428   3.598  20.958  0.00  0.00    +0.000 C 
ATOM     12  C   UNL     1       1.763   4.983  20.392  0.00  0.00    +0.000 C 
ATOM     13  C   UNL     1       2.759   2.834  21.101  0.00  0.00    +0.000 C 
ATOM     14  C   UNL     1       3.434   2.666  19.718  0.00  0.00    +0.000 C 
ATOM     15  C   UNL     1       2.450   1.871  18.829  0.00  0.00    +0.000 C 
ENDROOT
BRANCH   1  17
ATOM     16  C   UNL     1       7.582   6.624  17.949  0.00  0.00    +0.000 C 
ATOM     17  C   UNL     1       7.091   5.700  17.094  0.00  0.00    +0.000 C 
BRANCH  17  18
ATOM     18  C   UNL     1       7.523   5.607  15.652  0.00  0.00    +0.000 C 
BRANCH  18  19
ATOM     19  C   UNL     1       6.845   4.518  14.796  0.00  0.00    +0.000 C 
BRANCH  19  20
ATOM     20  C   UNL     1       6.800   4.865  13.297  0.00  0.00    +0.000 C 
BRANCH  20  21
ATOM     21  C   UNL     1       6.548   3.658  12.414  0.00  0.00    +0.000 A 
ATOM     22  C   UNL     1       5.227   3.253  12.147  0.00  0.00    +0.000 A 
ATOM     23  C   UNL     1       4.970   2.144  11.337  0.00  0.00    +0.000 A 
ATOM     24  C   UNL     1       6.031   1.418  10.791  0.00  0.00    +0.000 A 
ATOM     25  C   UNL     1       7.338   1.814  11.032  0.00  0.00    +0.000 A 
ATOM     26  C   UNL     1       7.597   2.921  11.845  0.00  0.00    +0.000 A 
ENDBRANCH  20  21
BRANCH  20  27
ATOM     27  O   UNL     1       8.017   5.494  12.898  0.00  0.00    +0.000 OA
ATOM     28  H   UNL     1       8.072   6.343  13.363  0.00  0.00    +0.000 HD
ENDBRANCH  20  27
ENDBRANCH  19  20
ENDBRANCH  18  19
ENDBRANCH  17  18
ENDBRANCH   1  17
TORSDOF 6
ENDMDL
MODEL 2
REMARK VINA RESULT:      -9.4      3.667      6.707
REMARK  Name = 
REMARK  6 active torsions:
REMARK  status: ('A' for Active; 'I' for Inactive)
REMARK    1  A    between atoms: C_2  and  C_3
REMARK    2  A    between atoms: C_2  and  C_13
REMARK    3  A    between atoms: C_3  and  C_4
REMARK    4  A    between atoms: C_4  and  C_5
REMARK    5  A    between atoms: C_5  and  O_6
REMARK    6  A    between atoms: C_5  and  C_7
REMARK                            x       y       z     vdW  Elec       q    Type
REMARK                         _______ _______ _______ _____ _____    ______ ____
ROOT
ATOM      1  C   UNL     1       6.514   5.551  18.029  0.00  0.00    +0.000 C 
ATOM      2  C   UNL     1       5.161   6.104  18.426  0.00  0.00    +0.000 C 
ATOM      3  O   UNL     1       4.251   5.203  17.838  0.00  0.00    +0.000 OA
ATOM      4  C   UNL     1       4.192   4.008  18.639  0.00  0.00    +0.000 C 
ATOM      5  O   UNL     1       5.471   3.725  19.258  0.00  0.00    +0.000 OA
ATOM      6  O   UNL     1       6.608   4.140  18.361  0.00  0.00    +0.000 OA
ATOM      7  C   UNL     1       3.117   4.310  19.727  0.00  0.00    +0.000 C 
ATOM      8  C   UNL     1       1.873   4.881  19.001  0.00  0.00    +0.000 C 
ATOM      9  C   UNL     1       1.329   3.839  18.003  0.00  0.00    +0.000 C 
ATOM     10  C   UNL     1       0.878   2.624  18.823  0.00  0.00    +0.000 C 
ATOM     11  C   UNL     1       2.087   2.021  19.573  0.00  0.00    +0.000 C 
ATOM     12  C   UNL     1       2.691   3.063  20.520  0.00  0.00    +0.000 C 
ATOM     13  C   UNL     1       3.193   1.619  18.577  0.00  0.00    +0.000 C 
ATOM     14  C   UNL     1       3.647   2.847  17.754  0.00  0.00    +0.000 C 
ATOM     15  C   UNL     1       2.404   3.367  16.996  0.00  0.00    +0.000 C 
ENDROOT
BRANCH   1  17
ATOM     16  C   UNL     1       8.454   5.986  19.509  0.00  0.00    +0.000 C 
ATOM     17  C   UNL     1       7.632   6.448  18.541  0.00  0.00    +0.000 C 
BRANCH  17  18
ATOM     18  C   UNL     1       7.836   7.777  17.858  0.00  0.00    +0.000 C 
BRANCH  18  19
ATOM     19  C   UNL     1       8.497   8.891  18.696  0.00  0.00    +0.000 C 
BRANCH  19  20
ATOM     20  C   UNL     1       8.895  10.122  17.863  0.00  0.00    +0.000 C 
BRANCH  20  21
ATOM     21  C   UNL     1       9.955  10.975  18.532  0.00  0.00    +0.000 A 
ATOM     22  C   UNL     1       9.933  11.147  19.929  0.00  0.00    +0.000 A 
ATOM     23  C   UNL     1      10.899  11.929  20.568  0.00  0.00    +0.000 A 
ATOM     24  C   UNL     1      11.895  12.557  19.818  0.00  0.00    +0.000 A 
ATOM     25  C   UNL     1      11.940  12.386  18.442  0.00  0.00    +0.000 A 
ATOM     26  C   UNL     1      10.972  11.606  17.801  0.00  0.00    +0.000 A 
ENDBRANCH  20  21
BRANCH  20  27
ATOM     27  O   UNL     1       7.749  10.926  17.589  0.00  0.00    +0.000 OA
ATOM     28  H   UNL     1       7.970  11.840  17.827  0.00  0.00    +0.000 HD
ENDBRANCH  20  27
ENDBRANCH  19  20
ENDBRANCH  18  19
ENDBRANCH  17  18
ENDBRANCH   1  17
TORSDOF 6
ENDMDL
MODEL 3
REMARK VINA RESULT:      -9.3      0.945      2.267
REMARK  Name = 
REMARK  6 active torsions:
REMARK  status: ('A' for Active; 'I' for Inactive)
REMARK    1  A    between atoms: C_2  and  C_3
REMARK    2  A    between atoms: C_2  and  C_13
REMARK    3  A    between atoms: C_3  and  C_4
REMARK    4  A    between atoms: C_4  and  C_5
REMARK    5  A    between atoms: C_5  and  O_6
REMARK    6  A    between atoms: C_5  and  C_7
REMARK                            x       y       z     vdW  Elec       q    Type
REMARK                         _______ _______ _______ _____ _____    ______ ____
ROOT
ATOM      1  C   UNL     1       5.683   6.011  18.007  0.00  0.00    +0.000 C 
ATOM      2  C   UNL     1       5.788   4.947  19.080  0.00  0.00    +0.000 C 
ATOM      3  O   UNL     1       4.526   4.985  19.706  0.00  0.00    +0.000 OA
ATOM      4  C   UNL     1       3.570   4.301  18.876  0.00  0.00    +0.000 C 
ATOM      5  O   UNL     1       3.886   4.457  17.470  0.00  0.00    +0.000 OA
ATOM      6  O   UNL     1       4.491   5.810  17.202  0.00  0.00    +0.000 OA
ATOM      7  C   UNL     1       3.680   2.802  19.294  0.00  0.00    +0.000 C 
ATOM      8  C   UNL     1       3.619   2.749  20.841  0.00  0.00    +0.000 C 
ATOM      9  C   UNL     1       2.277   3.331  21.329  0.00  0.00    +0.000 C 
ATOM     10  C   UNL     1       1.169   2.424  20.783  0.00  0.00    +0.000 C 
ATOM     11  C   UNL     1       1.192   2.438  19.239  0.00  0.00    +0.000 C 
ATOM     12  C   UNL     1       2.546   1.931  18.729  0.00  0.00    +0.000 C 
ATOM     13  C   UNL     1       1.020   3.877  18.711  0.00  0.00    +0.000 C 
ATOM     14  C   UNL     1       2.142   4.789  19.262  0.00  0.00    +0.000 C 
ATOM     15  C   UNL     1       2.029   4.764  20.804  0.00  0.00    +0.000 C 
ENDROOT
BRANCH   1  17
ATOM     16  C   UNL     1       7.581   7.364  17.165  0.00  0.00    +0.000 C 
ATOM     17  C   UNL     1       6.999   6.148  17.256  0.00  0.00    +0.000 C 
BRANCH  17  18
ATOM     18  C   UNL     1       7.650   4.889  16.740  0.00  0.00    +0.000 C 
BRANCH  18  19
ATOM     19  C   UNL     1       6.869   4.094  15.674  0.00  0.00    +0.000 C 
BRANCH  19  20
ATOM     20  C   UNL     1       6.671   4.872  14.360  0.00  0.00    +0.000 C 
BRANCH  20  21
ATOM     21  C   UNL     1       6.215   3.993  13.211  0.00  0.00    +0.000 A 
ATOM     22  C   UNL     1       7.148   3.176  12.546  0.00  0.00    +0.000 A 
ATOM     23  C   UNL     1       6.752   2.359  11.484  0.00  0.00    +0.000 A 
ATOM     24  C   UNL     1       5.419   2.354  11.067  0.00  0.00    +0.000 A 
ATOM     25  C   UNL     1       4.485   3.142  11.723  0.00  0.00    +0.000 A 
ATOM     26  C   UNL     1       4.881   3.962  12.783  0.00  0.00    +0.000 A 
ENDBRANCH  20  21
BRANCH  20  27
ATOM     27  O   UNL     1       7.879   5.537  13.993  0.00  0.00    +0.000 OA
ATOM     28  H   UNL     1       8.399   4.921  13.454  0.00  0.00    +0.000 HD
ENDBRANCH  20  27
ENDBRANCH  19  20
ENDBRANCH  18  19
ENDBRANCH  17  18
ENDBRANCH   1  17
TORSDOF 6
ENDMDL
MODEL 4
REMARK VINA RESULT:      -9.3      3.374      6.613
REMARK  Name = 
REMARK  6 active torsions:
REMARK  status: ('A' for Active; 'I' for Inactive)
REMARK    1  A    between atoms: C_2  and  C_3
REMARK    2  A    between atoms: C_2  and  C_13
REMARK    3  A    between atoms: C_3  and  C_4
REMARK    4  A    between atoms: C_4  and  C_5
REMARK    5  A    between atoms: C_5  and  O_6
REMARK    6  A    between atoms: C_5  and  C_7
REMARK                            x       y       z     vdW  Elec       q    Type
REMARK                         _______ _______ _______ _____ _____    ______ ____
ROOT
ATOM      1  C   UNL     1       5.648   6.349  17.947  0.00  0.00    +0.000 C 
ATOM      2  C   UNL     1       5.695   5.307  19.045  0.00  0.00    +0.000 C 
ATOM      3  O   UNL     1       4.363   5.251  19.504  0.00  0.00    +0.000 OA
ATOM      4  C   UNL     1       3.578   4.486  18.571  0.00  0.00    +0.000 C 
ATOM      5  O   UNL     1       4.061   4.653  17.215  0.00  0.00    +0.000 OA
ATOM      6  O   UNL     1       4.589   6.047  16.999  0.00  0.00    +0.000 OA
ATOM      7  C   UNL     1       3.748   3.004  19.028  0.00  0.00    +0.000 C 
ATOM      8  C   UNL     1       3.492   2.961  20.556  0.00  0.00    +0.000 C 
ATOM      9  C   UNL     1       2.057   3.440  20.856  0.00  0.00    +0.000 C 
ATOM     10  C   UNL     1       1.102   2.443  20.191  0.00  0.00    +0.000 C 
ATOM     11  C   UNL     1       1.324   2.445  18.662  0.00  0.00    +0.000 C 
ATOM     12  C   UNL     1       2.767   2.041  18.340  0.00  0.00    +0.000 C 
ATOM     13  C   UNL     1       1.111   3.860  18.089  0.00  0.00    +0.000 C 
ATOM     14  C   UNL     1       2.079   4.864  18.761  0.00  0.00    +0.000 C 
ATOM     15  C   UNL     1       1.769   4.844  20.276  0.00  0.00    +0.000 C 
ENDROOT
BRANCH   1  17
ATOM     16  C   UNL     1       7.340   6.060  16.160  0.00  0.00    +0.000 C 
ATOM     17  C   UNL     1       7.036   6.582  17.368  0.00  0.00    +0.000 C 
BRANCH  17  18
ATOM     18  C   UNL     1       7.973   7.484  18.130  0.00  0.00    +0.000 C 
BRANCH  18  19
ATOM     19  C   UNL     1       8.121   8.928  17.608  0.00  0.00    +0.000 C 
BRANCH  19  20
ATOM     20  C   UNL     1       8.500   9.936  18.707  0.00  0.00    +0.000 C 
BRANCH  20  21
ATOM     21  C   UNL     1       9.267  11.133  18.178  0.00  0.00    +0.000 A 
ATOM     22  C   UNL     1      10.668  11.066  18.060  0.00  0.00    +0.000 A 
ATOM     23  C   UNL     1      11.396  12.156  17.577  0.00  0.00    +0.000 A 
ATOM     24  C   UNL     1      10.735  13.331  17.212  0.00  0.00    +0.000 A 
ATOM     25  C   UNL     1       9.353  13.407  17.308  0.00  0.00    +0.000 A 
ATOM     26  C   UNL     1       8.623  12.318  17.795  0.00  0.00    +0.000 A 
ENDBRANCH  20  21
BRANCH  20  27
ATOM     27  O   UNL     1       9.270   9.295  19.722  0.00  0.00    +0.000 OA
ATOM     28  H   UNL     1       9.668   9.991  20.269  0.00  0.00    +0.000 HD
ENDBRANCH  20  27
ENDBRANCH  19  20
ENDBRANCH  18  19
ENDBRANCH  17  18
ENDBRANCH   1  17
TORSDOF 6
ENDMDL
MODEL 5
REMARK VINA RESULT:      -9.2      3.714      6.822
REMARK  Name = 
REMARK  6 active torsions:
REMARK  status: ('A' for Active; 'I' for Inactive)
REMARK    1  A    between atoms: C_2  and  C_3
REMARK    2  A    between atoms: C_2  and  C_13
REMARK    3  A    between atoms: C_3  and  C_4
REMARK    4  A    between atoms: C_4  and  C_5
REMARK    5  A    between atoms: C_5  and  O_6
REMARK    6  A    between atoms: C_5  and  C_7
REMARK                            x       y       z     vdW  Elec       q    Type
REMARK                         _______ _______ _______ _____ _____    ______ ____
ROOT
ATOM      1  C   UNL     1       5.996   6.037  17.818  0.00  0.00    +0.000 C 
ATOM      2  C   UNL     1       4.982   6.231  18.926  0.00  0.00    +0.000 C 
ATOM      3  O   UNL     1       3.808   5.653  18.403  0.00  0.00    +0.000 OA
ATOM      4  C   UNL     1       3.905   4.220  18.505  0.00  0.00    +0.000 C 
ATOM      5  O   UNL     1       5.276   3.774  18.357  0.00  0.00    +0.000 OA
ATOM      6  O   UNL     1       6.026   4.650  17.388  0.00  0.00    +0.000 OA
ATOM      7  C   UNL     1       3.377   3.886  19.934  0.00  0.00    +0.000 C 
ATOM      8  C   UNL     1       2.035   4.639  20.117  0.00  0.00    +0.000 C 
ATOM      9  C   UNL     1       1.021   4.160  19.059  0.00  0.00    +0.000 C 
ATOM     10  C   UNL     1       0.765   2.671  19.323  0.00  0.00    +0.000 C 
ATOM     11  C   UNL     1       2.079   1.876  19.157  0.00  0.00    +0.000 C 
ATOM     12  C   UNL     1       3.129   2.384  20.152  0.00  0.00    +0.000 C 
ATOM     13  C   UNL     1       2.658   2.081  17.744  0.00  0.00    +0.000 C 
ATOM     14  C   UNL     1       2.918   3.584  17.482  0.00  0.00    +0.000 C 
ATOM     15  C   UNL     1       1.558   4.308  17.616  0.00  0.00    +0.000 C 
ENDROOT
BRANCH   1  17
ATOM     16  C   UNL     1       8.193   5.960  18.964  0.00  0.00    +0.000 C 
ATOM     17  C   UNL     1       7.331   6.663  18.197  0.00  0.00    +0.000 C 
BRANCH  17  18
ATOM     18  C   UNL     1       7.673   8.005  17.601  0.00  0.00    +0.000 C 
BRANCH  18  19
ATOM     19  C   UNL     1       8.434   8.992  18.509  0.00  0.00    +0.000 C 
BRANCH  19  20
ATOM     20  C   UNL     1       8.894  10.264  17.774  0.00  0.00    +0.000 C 
BRANCH  20  21
ATOM     21  C   UNL     1       9.954  11.039  18.532  0.00  0.00    +0.000 A 
ATOM     22  C   UNL     1      11.022  11.627  17.830  0.00  0.00    +0.000 A 
ATOM     23  C   UNL     1      12.012  12.346  18.506  0.00  0.00    +0.000 A 
ATOM     24  C   UNL     1      11.950  12.479  19.895  0.00  0.00    +0.000 A 
ATOM     25  C   UNL     1      10.895  11.918  20.600  0.00  0.00    +0.000 A 
ATOM     26  C   UNL     1       9.907  11.196  19.925  0.00  0.00    +0.000 A 
ENDBRANCH  20  21
BRANCH  20  27
ATOM     27  O   UNL     1       7.779  11.117  17.518  0.00  0.00    +0.000 OA
ATOM     28  H   UNL     1       8.084  11.826  16.930  0.00  0.00    +0.000 HD
ENDBRANCH  20  27
ENDBRANCH  19  20
ENDBRANCH  18  19
ENDBRANCH  17  18
ENDBRANCH   1  17
TORSDOF 6
ENDMDL
MODEL 6
REMARK VINA RESULT:      -9.1      3.628      6.542
REMARK  Name = 
REMARK  6 active torsions:
REMARK  status: ('A' for Active; 'I' for Inactive)
REMARK    1  A    between atoms: C_2  and  C_3
REMARK    2  A    between atoms: C_2  and  C_13
REMARK    3  A    between atoms: C_3  and  C_4
REMARK    4  A    between atoms: C_4  and  C_5
REMARK    5  A    between atoms: C_5  and  O_6
REMARK    6  A    between atoms: C_5  and  C_7
REMARK                            x       y       z     vdW  Elec       q    Type
REMARK                         _______ _______ _______ _____ _____    ______ ____
ROOT
ATOM      1  C   UNL     1       6.331   5.754  17.800  0.00  0.00    +0.000 C 
ATOM      2  C   UNL     1       4.947   6.229  18.191  0.00  0.00    +0.000 C 
ATOM      3  O   UNL     1       4.099   5.220  17.692  0.00  0.00    +0.000 OA
ATOM      4  C   UNL     1       4.150   4.084  18.576  0.00  0.00    +0.000 C 
ATOM      5  O   UNL     1       5.460   3.947  19.181  0.00  0.00    +0.000 OA
ATOM      6  O   UNL     1       6.542   4.382  18.227  0.00  0.00    +0.000 OA
ATOM      7  C   UNL     1       3.076   4.381  19.667  0.00  0.00    +0.000 C 
ATOM      8  C   UNL     1       1.777   4.800  18.934  0.00  0.00    +0.000 C 
ATOM      9  C   UNL     1       1.297   3.650  18.027  0.00  0.00    +0.000 C 
ATOM     10  C   UNL     1       0.960   2.466  18.941  0.00  0.00    +0.000 C 
ATOM     11  C   UNL     1       2.227   2.014  19.701  0.00  0.00    +0.000 C 
ATOM     12  C   UNL     1       2.766   3.165  20.557  0.00  0.00    +0.000 C 
ATOM     13  C   UNL     1       3.341   1.627  18.708  0.00  0.00    +0.000 C 
ATOM     14  C   UNL     1       3.681   2.825  17.789  0.00  0.00    +0.000 C 
ATOM     15  C   UNL     1       2.385   3.191  17.028  0.00  0.00    +0.000 C 
ENDROOT
BRANCH   1  17
ATOM     16  C   UNL     1       8.352   6.393  19.085  0.00  0.00    +0.000 C 
ATOM     17  C   UNL     1       7.385   6.769  18.219  0.00  0.00    +0.000 C 
BRANCH  17  18
ATOM     18  C   UNL     1       7.360   8.123  17.555  0.00  0.00    +0.000 C 
BRANCH  18  19
ATOM     19  C   UNL     1       8.671   8.935  17.592  0.00  0.00    +0.000 C 
BRANCH  19  20
ATOM     20  C   UNL     1       8.655  10.067  18.635  0.00  0.00    +0.000 C 
BRANCH  20  21
ATOM     21  C   UNL     1       9.368  11.320  18.165  0.00  0.00    +0.000 A 
ATOM     22  C   UNL     1      10.758  11.290  17.947  0.00  0.00    +0.000 A 
ATOM     23  C   UNL     1      11.438  12.432  17.514  0.00  0.00    +0.000 A 
ATOM     24  C   UNL     1      10.738  13.621  17.302  0.00  0.00    +0.000 A 
ATOM     25  C   UNL     1       9.365  13.663  17.498  0.00  0.00    +0.000 A 
ATOM     26  C   UNL     1       8.685  12.522  17.934  0.00  0.00    +0.000 A 
ENDBRANCH  20  21
BRANCH  20  27
ATOM     27  O   UNL     1       9.242   9.622  19.857  0.00  0.00    +0.000 OA
ATOM     28  H   UNL     1       8.670   9.923  20.581  0.00  0.00    +0.000 HD
ENDBRANCH  20  27
ENDBRANCH  19  20
ENDBRANCH  18  19
ENDBRANCH  17  18
ENDBRANCH   1  17
TORSDOF 6
ENDMDL
MODEL 7
REMARK VINA RESULT:      -9.0      3.818      6.833
REMARK  Name = 
REMARK  6 active torsions:
REMARK  status: ('A' for Active; 'I' for Inactive)
REMARK    1  A    between atoms: C_2  and  C_3
REMARK    2  A    between atoms: C_2  and  C_13
REMARK    3  A    between atoms: C_3  and  C_4
REMARK    4  A    between atoms: C_4  and  C_5
REMARK    5  A    between atoms: C_5  and  O_6
REMARK    6  A    between atoms: C_5  and  C_7
REMARK                            x       y       z     vdW  Elec       q    Type
REMARK                         _______ _______ _______ _____ _____    ______ ____
ROOT
ATOM      1  C   UNL     1       5.715   6.195  18.259  0.00  0.00    +0.000 C 
ATOM      2  C   UNL     1       5.562   5.241  19.425  0.00  0.00    +0.000 C 
ATOM      3  O   UNL     1       4.176   5.248  19.677  0.00  0.00    +0.000 OA
ATOM      4  C   UNL     1       3.516   4.428  18.694  0.00  0.00    +0.000 C 
ATOM      5  O   UNL     1       4.203   4.480  17.419  0.00  0.00    +0.000 OA
ATOM      6  O   UNL     1       4.802   5.842  17.186  0.00  0.00    +0.000 OA
ATOM      7  C   UNL     1       3.568   2.984  19.281  0.00  0.00    +0.000 C 
ATOM      8  C   UNL     1       3.082   3.064  20.749  0.00  0.00    +0.000 C 
ATOM      9  C   UNL     1       1.635   3.594  20.791  0.00  0.00    +0.000 C 
ATOM     10  C   UNL     1       0.759   2.568  20.062  0.00  0.00    +0.000 C 
ATOM     11  C   UNL     1       1.210   2.447  18.589  0.00  0.00    +0.000 C 
ATOM     12  C   UNL     1       2.671   1.990  18.522  0.00  0.00    +0.000 C 
ATOM     13  C   UNL     1       1.132   3.818  17.888  0.00  0.00    +0.000 C 
ATOM     14  C   UNL     1       2.019   4.850  18.624  0.00  0.00    +0.000 C 
ATOM     15  C   UNL     1       1.483   4.955  20.071  0.00  0.00    +0.000 C 
ENDROOT
BRANCH   1  17
ATOM     16  C   UNL     1       7.988   5.270  17.912  0.00  0.00    +0.000 C 
ATOM     17  C   UNL     1       7.181   6.354  17.884  0.00  0.00    +0.000 C 
BRANCH  17  18
ATOM     18  C   UNL     1       7.639   7.703  17.390  0.00  0.00    +0.000 C 
BRANCH  18  19
ATOM     19  C   UNL     1       8.398   8.588  18.399  0.00  0.00    +0.000 C 
BRANCH  19  20
ATOM     20  C   UNL     1       8.749   9.980  17.843  0.00  0.00    +0.000 C 
BRANCH  20  21
ATOM     21  C   UNL     1       9.703  10.753  18.732  0.00  0.00    +0.000 A 
ATOM     22  C   UNL     1      10.922  11.220  18.206  0.00  0.00    +0.000 A 
ATOM     23  C   UNL     1      11.818  11.934  19.006  0.00  0.00    +0.000 A 
ATOM     24  C   UNL     1      11.511  12.184  20.345  0.00  0.00    +0.000 A 
ATOM     25  C   UNL     1      10.306  11.744  20.875  0.00  0.00    +0.000 A 
ATOM     26  C   UNL     1       9.411  11.026  20.076  0.00  0.00    +0.000 A 
ENDBRANCH  20  21
BRANCH  20  27
ATOM     27  O   UNL     1       7.562  10.747  17.647  0.00  0.00    +0.000 OA
ATOM     28  H   UNL     1       7.386  10.773  16.693  0.00  0.00    +0.000 HD
ENDBRANCH  20  27
ENDBRANCH  19  20
ENDBRANCH  18  19
ENDBRANCH  17  18
ENDBRANCH   1  17
TORSDOF 6
ENDMDL
MODEL 8
REMARK VINA RESULT:      -8.8      1.002      1.972
REMARK  Name = 
REMARK  6 active torsions:
REMARK  status: ('A' for Active; 'I' for Inactive)
REMARK    1  A    between atoms: C_2  and  C_3
REMARK    2  A    between atoms: C_2  and  C_13
REMARK    3  A    between atoms: C_3  and  C_4
REMARK    4  A    between atoms: C_4  and  C_5
REMARK    5  A    between atoms: C_5  and  O_6
REMARK    6  A    between atoms: C_5  and  C_7
REMARK                            x       y       z     vdW  Elec       q    Type
REMARK                         _______ _______ _______ _____ _____    ______ ____
ROOT
ATOM      1  C   UNL     1       5.208   6.055  17.923  0.00  0.00    +0.000 C 
ATOM      2  C   UNL     1       5.382   4.671  18.514  0.00  0.00    +0.000 C 
ATOM      3  O   UNL     1       4.503   4.671  19.615  0.00  0.00    +0.000 OA
ATOM      4  C   UNL     1       3.156   4.489  19.140  0.00  0.00    +0.000 C 
ATOM      5  O   UNL     1       2.972   5.095  17.837  0.00  0.00    +0.000 OA
ATOM      6  O   UNL     1       3.802   6.345  17.702  0.00  0.00    +0.000 OA
ATOM      7  C   UNL     1       2.971   2.943  19.050  0.00  0.00    +0.000 C 
ATOM      8  C   UNL     1       3.462   2.341  20.390  0.00  0.00    +0.000 C 
ATOM      9  C   UNL     1       2.620   2.902  21.554  0.00  0.00    +0.000 C 
ATOM     10  C   UNL     1       1.177   2.436  21.330  0.00  0.00    +0.000 C 
ATOM     11  C   UNL     1       0.642   3.007  19.998  0.00  0.00    +0.000 C 
ATOM     12  C   UNL     1       1.508   2.521  18.831  0.00  0.00    +0.000 C 
ATOM     13  C   UNL     1       0.716   4.547  20.005  0.00  0.00    +0.000 C 
ATOM     14  C   UNL     1       2.174   5.015  20.228  0.00  0.00    +0.000 C 
ATOM     15  C   UNL     1       2.625   4.448  21.594  0.00  0.00    +0.000 C 
ENDROOT
BRANCH   1  17
ATOM     16  C   UNL     1       7.272   6.974  16.904  0.00  0.00    +0.000 C 
ATOM     17  C   UNL     1       6.141   6.254  16.737  0.00  0.00    +0.000 C 
BRANCH  17  18
ATOM     18  C   UNL     1       5.809   5.537  15.452  0.00  0.00    +0.000 C 
BRANCH  18  19
ATOM     19  C   UNL     1       6.979   4.845  14.724  0.00  0.00    +0.000 C 
BRANCH  19  20
ATOM     20  C   UNL     1       6.969   5.076  13.203  0.00  0.00    +0.000 C 
BRANCH  20  21
ATOM     21  C   UNL     1       6.659   3.820  12.411  0.00  0.00    +0.000 A 
ATOM     22  C   UNL     1       5.325   3.391  12.281  0.00  0.00    +0.000 A 
ATOM     23  C   UNL     1       5.014   2.236  11.557  0.00  0.00    +0.000 A 
ATOM     24  C   UNL     1       6.033   1.491  10.962  0.00  0.00    +0.000 A 
ATOM     25  C   UNL     1       7.352   1.909  11.068  0.00  0.00    +0.000 A 
ATOM     26  C   UNL     1       7.664   3.062  11.795  0.00  0.00    +0.000 A 
ENDBRANCH  20  21
BRANCH  20  27
ATOM     27  O   UNL     1       8.224   5.603  12.775  0.00  0.00    +0.000 OA
ATOM     28  H   UNL     1       8.245   5.555  11.806  0.00  0.00    +0.000 HD
ENDBRANCH  20  27
ENDBRANCH  19  20
ENDBRANCH  18  19
ENDBRANCH  17  18
ENDBRANCH   1  17
TORSDOF 6
ENDMDL
MODEL 9
REMARK VINA RESULT:      -8.8      4.962      8.211
REMARK  Name = 
REMARK  6 active torsions:
REMARK  status: ('A' for Active; 'I' for Inactive)
REMARK    1  A    between atoms: C_2  and  C_3
REMARK    2  A    between atoms: C_2  and  C_13
REMARK    3  A    between atoms: C_3  and  C_4
REMARK    4  A    between atoms: C_4  and  C_5
REMARK    5  A    between atoms: C_5  and  O_6
REMARK    6  A    between atoms: C_5  and  C_7
REMARK                            x       y       z     vdW  Elec       q    Type
REMARK                         _______ _______ _______ _____ _____    ______ ____
ROOT
ATOM      1  C   UNL     1       2.413   7.835  19.264  0.00  0.00    +0.000 C 
ATOM      2  C   UNL     1       2.489   6.989  18.009  0.00  0.00    +0.000 C 
ATOM      3  O   UNL     1       3.238   5.867  18.414  0.00  0.00    +0.000 OA
ATOM      4  C   UNL     1       2.388   4.983  19.169  0.00  0.00    +0.000 C 
ATOM      5  O   UNL     1       1.393   5.723  19.918  0.00  0.00    +0.000 OA
ATOM      6  O   UNL     1       1.944   7.044  20.387  0.00  0.00    +0.000 OA
ATOM      7  C   UNL     1       1.702   4.080  18.099  0.00  0.00    +0.000 C 
ATOM      8  C   UNL     1       2.814   3.553  17.158  0.00  0.00    +0.000 C 
ATOM      9  C   UNL     1       3.831   2.724  17.967  0.00  0.00    +0.000 C 
ATOM     10  C   UNL     1       3.078   1.513  18.529  0.00  0.00    +0.000 C 
ATOM     11  C   UNL     1       1.951   1.988  19.472  0.00  0.00    +0.000 C 
ATOM     12  C   UNL     1       0.964   2.876  18.707  0.00  0.00    +0.000 C 
ATOM     13  C   UNL     1       2.532   2.841  20.618  0.00  0.00    +0.000 C 
ATOM     14  C   UNL     1       3.289   4.064  20.048  0.00  0.00    +0.000 C 
ATOM     15  C   UNL     1       4.426   3.515  19.155  0.00  0.00    +0.000 C 
ENDROOT
BRANCH   1  17
ATOM     16  C   UNL     1       1.662   9.633  17.732  0.00  0.00    +0.000 C 
ATOM     17  C   UNL     1       1.673   9.137  18.989  0.00  0.00    +0.000 C 
BRANCH  17  18
ATOM     18  C   UNL     1       0.892   9.755  20.121  0.00  0.00    +0.000 C 
BRANCH  18  19
ATOM     19  C   UNL     1      -0.645   9.676  20.024  0.00  0.00    +0.000 C 
BRANCH  19  20
ATOM     20  C   UNL     1      -1.296  11.004  19.597  0.00  0.00    +0.000 C 
BRANCH  20  21
ATOM     21  C   UNL     1      -2.142  10.877  18.345  0.00  0.00    +0.000 A 
ATOM     22  C   UNL     1      -3.342  11.603  18.238  0.00  0.00    +0.000 A 
ATOM     23  C   UNL     1      -4.139  11.502  17.095  0.00  0.00    +0.000 A 
ATOM     24  C   UNL     1      -3.750  10.667  16.045  0.00  0.00    +0.000 A 
ATOM     25  C   UNL     1      -2.561   9.956  16.128  0.00  0.00    +0.000 A 
ATOM     26  C   UNL     1      -1.765  10.054  17.273  0.00  0.00    +0.000 A 
ENDBRANCH  20  21
BRANCH  20  27
ATOM     27  O   UNL     1      -0.296  12.000  19.391  0.00  0.00    +0.000 OA
ATOM     28  H   UNL     1       0.113  11.828  18.528  0.00  0.00    +0.000 HD
ENDBRANCH  20  27
ENDBRANCH  19  20
ENDBRANCH  18  19
ENDBRANCH  17  18
ENDBRANCH   1  17
TORSDOF 6
ENDMDL
