MODEL 1
REMARK VINA RESULT:      -8.4      0.000      0.000
REMARK  Name = 
REMARK  8 active torsions:
REMARK  status: ('A' for Active; 'I' for Inactive)
REMARK    1  A    between atoms: C_2  and  C_3
REMARK    2  A    between atoms: C_3  and  S_4
REMARK    3  A    between atoms: S_4  and  C_5
REMARK    4  A    between atoms: C_7  and  C_8
REMARK    5  A    between atoms: N_16  and  C_17
REMARK    6  A    between atoms: N_23  and  C_24
REMARK    7  A    between atoms: C_27  and  O_28
REMARK    8  A    between atoms: C_30  and  O_31
REMARK                            x       y       z     vdW  Elec       q    Type
REMARK                         _______ _______ _______ _____ _____    ______ ____
ROOT
ATOM      1  C   UNL     1       0.288  10.082  18.463  0.00  0.00    +0.000 A 
ATOM      2  N   UNL     1      -0.785   9.943  17.656  0.00  0.00    +0.000 NA
ATOM      3  C   UNL     1      -1.970  10.488  18.016  0.00  0.00    +0.000 A 
ATOM      4  N   UNL     1      -2.184  11.162  19.161  0.00  0.00    +0.000 NA
ATOM      5  C   UNL     1      -1.097  11.289  19.945  0.00  0.00    +0.000 A 
ATOM      6  C   UNL     1       0.158  10.783  19.654  0.00  0.00    +0.000 A 
ATOM      7  C   UNL     1       0.967  11.182  20.726  0.00  0.00    +0.000 A 
ATOM      8  N   UNL     1       0.309  11.907  21.629  0.00  0.00    +0.000 NA
ATOM      9  N   UNL     1      -0.979  11.960  21.162  0.00  0.00    +0.000 N 
ENDROOT
BRANCH   9  10
ATOM     10  C   UNL     1      -1.975  12.649  21.919  0.00  0.00    +0.000 A 
ATOM     11  C   UNL     1      -2.347  13.948  21.535  0.00  0.00    +0.000 A 
ATOM     12  C   UNL     1      -3.307  14.655  22.260  0.00  0.00    +0.000 A 
ATOM     13  C   UNL     1      -3.900  14.077  23.379  0.00  0.00    +0.000 A 
ATOM     14  C   UNL     1      -3.541  12.789  23.768  0.00  0.00    +0.000 A 
ATOM     15  C   UNL     1      -2.586  12.072  23.040  0.00  0.00    +0.000 A 
ENDBRANCH   9  10
BRANCH   3  16
ATOM     16  C   UNL     1      -3.131  10.359  17.054  0.00  0.00    +0.000 C 
ATOM     17  C   UNL     1      -3.139  11.146  15.762  0.00  0.00    +0.000 C 
ATOM     18  C   UNL     1      -2.932   9.662  15.726  0.00  0.00    +0.000 C 
ENDBRANCH   3  16
BRANCH   1  19
ATOM     19  S   UNL     1       1.871   9.436  17.991  0.00  0.00    +0.000 S 
BRANCH  19  20
ATOM     20  C   UNL     1       2.021   8.106  19.215  0.00  0.00    +0.000 C 
BRANCH  20  22
ATOM     21  O   UNL     1       3.555   6.906  17.858  0.00  0.00    +0.000 OA
ATOM     22  C   UNL     1       2.629   6.830  18.664  0.00  0.00    +0.000 C 
ATOM     23  N   UNL     1       2.169   5.642  19.200  0.00  0.00    +0.000 N 
ATOM     24  H   UNL     1       1.348   5.667  19.800  0.00  0.00    +0.000 HD
BRANCH  23  25
ATOM     25  C   UNL     1       2.724   4.360  18.969  0.00  0.00    +0.000 A 
ATOM     26  C   UNL     1       3.798   3.807  19.640  0.00  0.00    +0.000 A 
ATOM     27  N   UNL     1       4.262   2.552  19.426  0.00  0.00    +0.000 NA
ATOM     28  C   UNL     1       3.611   1.860  18.490  0.00  0.00    +0.000 A 
ATOM     29  N   UNL     1       2.582   2.263  17.750  0.00  0.00    +0.000 NA
ATOM     30  C   UNL     1       2.176   3.510  18.022  0.00  0.00    +0.000 A 
BRANCH  28  31
ATOM     31  O   UNL     1       4.067   0.594  18.316  0.00  0.00    +0.000 OA
ATOM     32  H   UNL     1       3.533   0.150  18.997  0.00  0.00    +0.000 HD
ENDBRANCH  28  31
BRANCH  30  33
ATOM     33  O   UNL     1       1.119   3.909  17.260  0.00  0.00    +0.000 OA
ATOM     34  H   UNL     1       0.808   4.669  17.788  0.00  0.00    +0.000 HD
ENDBRANCH  30  33
ENDBRANCH  23  25
ENDBRANCH  20  22
ENDBRANCH  19  20
ENDBRANCH   1  19
TORSDOF 8
ENDMDL
MODEL 2
REMARK VINA RESULT:      -8.0      3.711      8.911
REMARK  Name = 
REMARK  8 active torsions:
REMARK  status: ('A' for Active; 'I' for Inactive)
REMARK    1  A    between atoms: C_2  and  C_3
REMARK    2  A    between atoms: C_3  and  S_4
REMARK    3  A    between atoms: S_4  and  C_5
REMARK    4  A    between atoms: C_7  and  C_8
REMARK    5  A    between atoms: N_16  and  C_17
REMARK    6  A    between atoms: N_23  and  C_24
REMARK    7  A    between atoms: C_27  and  O_28
REMARK    8  A    between atoms: C_30  and  O_31
REMARK                            x       y       z     vdW  Elec       q    Type
REMARK                         _______ _______ _______ _____ _____    ______ ____
ROOT
ATOM      1  C   UNL     1       1.461   9.499  19.124  0.00  0.00    +0.000 A 
ATOM      2  N   UNL     1       0.668   9.635  20.208  0.00  0.00    +0.000 NA
ATOM      3  C   UNL     1       0.520   8.597  21.064  0.00  0.00    +0.000 A 
ATOM      4  N   UNL     1       1.096   7.391  20.909  0.00  0.00    +0.000 NA
ATOM      5  C   UNL     1       1.883   7.284  19.822  0.00  0.00    +0.000 A 
ATOM      6  C   UNL     1       2.111   8.293  18.902  0.00  0.00    +0.000 A 
ATOM      7  C   UNL     1       3.007   7.742  17.976  0.00  0.00    +0.000 A 
ATOM      8  N   UNL     1       3.357   6.492  18.274  0.00  0.00    +0.000 NA
ATOM      9  N   UNL     1       2.647   6.193  19.408  0.00  0.00    +0.000 N 
ENDROOT
BRANCH   9  10
ATOM     10  C   UNL     1       2.765   4.895  19.991  0.00  0.00    +0.000 A 
ATOM     11  C   UNL     1       1.867   4.518  21.005  0.00  0.00    +0.000 A 
ATOM     12  C   UNL     1       1.963   3.262  21.607  0.00  0.00    +0.000 A 
ATOM     13  C   UNL     1       2.959   2.374  21.211  0.00  0.00    +0.000 A 
ATOM     14  C   UNL     1       3.853   2.736  20.207  0.00  0.00    +0.000 A 
ATOM     15  C   UNL     1       3.757   3.989  19.592  0.00  0.00    +0.000 A 
ENDBRANCH   9  10
BRANCH   3  16
ATOM     16  C   UNL     1      -0.330   8.812  22.297  0.00  0.00    +0.000 C 
ATOM     17  C   UNL     1       0.275   9.425  23.541  0.00  0.00    +0.000 C 
ATOM     18  C   UNL     1      -0.698  10.217  22.720  0.00  0.00    +0.000 C 
ENDBRANCH   3  16
BRANCH   1  19
ATOM     19  S   UNL     1       1.729  10.859  18.018  0.00  0.00    +0.000 S 
BRANCH  19  20
ATOM     20  C   UNL     1       1.090  12.207  19.049  0.00  0.00    +0.000 C 
BRANCH  20  22
ATOM     21  O   UNL     1      -0.628  13.724  18.433  0.00  0.00    +0.000 OA
ATOM     22  C   UNL     1      -0.354  12.570  18.760  0.00  0.00    +0.000 C 
ATOM     23  N   UNL     1      -1.269  11.534  18.776  0.00  0.00    +0.000 N 
ATOM     24  H   UNL     1      -0.972  10.631  19.136  0.00  0.00    +0.000 HD
BRANCH  23  25
ATOM     25  C   UNL     1      -2.619  11.617  18.357  0.00  0.00    +0.000 A 
ATOM     26  C   UNL     1      -3.685  12.033  19.132  0.00  0.00    +0.000 A 
ATOM     27  N   UNL     1      -4.955  12.151  18.674  0.00  0.00    +0.000 NA
ATOM     28  C   UNL     1      -5.128  11.821  17.394  0.00  0.00    +0.000 A 
ATOM     29  N   UNL     1      -4.210  11.387  16.535  0.00  0.00    +0.000 NA
ATOM     30  C   UNL     1      -2.979  11.301  17.058  0.00  0.00    +0.000 A 
BRANCH  28  31
ATOM     31  O   UNL     1      -6.399  11.983  16.944  0.00  0.00    +0.000 OA
ATOM     32  H   UNL     1      -6.333  12.905  16.643  0.00  0.00    +0.000 HD
ENDBRANCH  28  31
BRANCH  30  33
ATOM     33  O   UNL     1      -2.048  10.858  16.167  0.00  0.00    +0.000 OA
ATOM     34  H   UNL     1      -1.268  10.805  16.752  0.00  0.00    +0.000 HD
ENDBRANCH  30  33
ENDBRANCH  23  25
ENDBRANCH  20  22
ENDBRANCH  19  20
ENDBRANCH   1  19
TORSDOF 8
ENDMDL
MODEL 3
REMARK VINA RESULT:      -7.9      0.416      1.029
REMARK  Name = 
REMARK  8 active torsions:
REMARK  status: ('A' for Active; 'I' for Inactive)
REMARK    1  A    between atoms: C_2  and  C_3
REMARK    2  A    between atoms: C_3  and  S_4
REMARK    3  A    between atoms: S_4  and  C_5
REMARK    4  A    between atoms: C_7  and  C_8
REMARK    5  A    between atoms: N_16  and  C_17
REMARK    6  A    between atoms: N_23  and  C_24
REMARK    7  A    between atoms: C_27  and  O_28
REMARK    8  A    between atoms: C_30  and  O_31
REMARK                            x       y       z     vdW  Elec       q    Type
REMARK                         _______ _______ _______ _____ _____    ______ ____
ROOT
ATOM      1  C   UNL     1       0.429  10.194  18.549  0.00  0.00    +0.000 A 
ATOM      2  N   UNL     1      -0.512  10.297  17.586  0.00  0.00    +0.000 NA
ATOM      3  C   UNL     1      -1.689  10.905  17.863  0.00  0.00    +0.000 A 
ATOM      4  N   UNL     1      -2.024  11.412  19.063  0.00  0.00    +0.000 NA
ATOM      5  C   UNL     1      -1.066  11.300  20.002  0.00  0.00    +0.000 A 
ATOM      6  C   UNL     1       0.173  10.712  19.811  0.00  0.00    +0.000 A 
ATOM      7  C   UNL     1       0.833  10.853  21.038  0.00  0.00    +0.000 A 
ATOM      8  N   UNL     1       0.104  11.496  21.949  0.00  0.00    +0.000 NA
ATOM      9  N   UNL     1      -1.086  11.758  21.320  0.00  0.00    +0.000 N 
ENDROOT
BRANCH   9  10
ATOM     10  C   UNL     1      -2.128  12.425  22.033  0.00  0.00    +0.000 A 
ATOM     11  C   UNL     1      -2.548  11.907  23.270  0.00  0.00    +0.000 A 
ATOM     12  C   UNL     1      -3.573  12.526  23.987  0.00  0.00    +0.000 A 
ATOM     13  C   UNL     1      -4.196  13.660  23.475  0.00  0.00    +0.000 A 
ATOM     14  C   UNL     1      -3.787  14.183  22.250  0.00  0.00    +0.000 A 
ATOM     15  C   UNL     1      -2.754  13.574  21.531  0.00  0.00    +0.000 A 
ENDBRANCH   9  10
BRANCH   3  16
ATOM     16  C   UNL     1      -2.691  11.051  16.738  0.00  0.00    +0.000 C 
ATOM     17  C   UNL     1      -3.409   9.833  16.196  0.00  0.00    +0.000 C 
ATOM     18  C   UNL     1      -4.164  10.838  17.013  0.00  0.00    +0.000 C 
ENDBRANCH   3  16
BRANCH   1  19
ATOM     19  S   UNL     1       2.007   9.462  18.204  0.00  0.00    +0.000 S 
BRANCH  19  20
ATOM     20  C   UNL     1       1.912   8.025  19.307  0.00  0.00    +0.000 C 
BRANCH  20  22
ATOM     21  O   UNL     1       3.331   6.845  17.815  0.00  0.00    +0.000 OA
ATOM     22  C   UNL     1       2.500   6.758  18.718  0.00  0.00    +0.000 C 
ATOM     23  N   UNL     1       2.140   5.568  19.322  0.00  0.00    +0.000 N 
ATOM     24  H   UNL     1       1.387   5.580  20.005  0.00  0.00    +0.000 HD
BRANCH  23  25
ATOM     25  C   UNL     1       2.710   4.299  19.056  0.00  0.00    +0.000 A 
ATOM     26  C   UNL     1       3.786   3.738  19.717  0.00  0.00    +0.000 A 
ATOM     27  N   UNL     1       4.265   2.495  19.468  0.00  0.00    +0.000 NA
ATOM     28  C   UNL     1       3.628   1.825  18.508  0.00  0.00    +0.000 A 
ATOM     29  N   UNL     1       2.598   2.239  17.774  0.00  0.00    +0.000 NA
ATOM     30  C   UNL     1       2.177   3.472  18.081  0.00  0.00    +0.000 A 
BRANCH  28  31
ATOM     31  O   UNL     1       4.098   0.569  18.299  0.00  0.00    +0.000 OA
ATOM     32  H   UNL     1       4.394   0.673  17.378  0.00  0.00    +0.000 HD
ENDBRANCH  28  31
BRANCH  30  33
ATOM     33  O   UNL     1       1.120   3.882  17.324  0.00  0.00    +0.000 OA
ATOM     34  H   UNL     1       0.500   3.146  17.489  0.00  0.00    +0.000 HD
ENDBRANCH  30  33
ENDBRANCH  23  25
ENDBRANCH  20  22
ENDBRANCH  19  20
ENDBRANCH   1  19
TORSDOF 8
ENDMDL
MODEL 4
REMARK VINA RESULT:      -7.9      1.312      1.615
REMARK  Name = 
REMARK  8 active torsions:
REMARK  status: ('A' for Active; 'I' for Inactive)
REMARK    1  A    between atoms: C_2  and  C_3
REMARK    2  A    between atoms: C_3  and  S_4
REMARK    3  A    between atoms: S_4  and  C_5
REMARK    4  A    between atoms: C_7  and  C_8
REMARK    5  A    between atoms: N_16  and  C_17
REMARK    6  A    between atoms: N_23  and  C_24
REMARK    7  A    between atoms: C_27  and  O_28
REMARK    8  A    between atoms: C_30  and  O_31
REMARK                            x       y       z     vdW  Elec       q    Type
REMARK                         _______ _______ _______ _____ _____    ______ ____
ROOT
ATOM      1  C   UNL     1       0.430  10.482  18.620  0.00  0.00    +0.000 A 
ATOM      2  N   UNL     1      -0.580  10.160  17.784  0.00  0.00    +0.000 NA
ATOM      3  C   UNL     1      -1.851  10.491  18.111  0.00  0.00    +0.000 A 
ATOM      4  N   UNL     1      -2.210  11.115  19.248  0.00  0.00    +0.000 NA
ATOM      5  C   UNL     1      -1.183  11.428  20.060  0.00  0.00    +0.000 A 
ATOM      6  C   UNL     1       0.149  11.147  19.805  0.00  0.00    +0.000 A 
ATOM      7  C   UNL     1       0.846  11.679  20.897  0.00  0.00    +0.000 A 
ATOM      8  N   UNL     1       0.049  12.278  21.780  0.00  0.00    +0.000 NA
ATOM      9  N   UNL     1      -1.216  12.107  21.279  0.00  0.00    +0.000 N 
ENDROOT
BRANCH   9  10
ATOM     10  C   UNL     1      -2.337  12.611  22.006  0.00  0.00    +0.000 A 
ATOM     11  C   UNL     1      -3.103  13.648  21.447  0.00  0.00    +0.000 A 
ATOM     12  C   UNL     1      -4.197  14.174  22.137  0.00  0.00    +0.000 A 
ATOM     13  C   UNL     1      -4.532  13.677  23.393  0.00  0.00    +0.000 A 
ATOM     14  C   UNL     1      -3.782  12.648  23.956  0.00  0.00    +0.000 A 
ATOM     15  C   UNL     1      -2.690  12.110  23.266  0.00  0.00    +0.000 A 
ENDBRANCH   9  10
BRANCH   3  16
ATOM     16  C   UNL     1      -2.946  10.164  17.119  0.00  0.00    +0.000 C 
ATOM     17  C   UNL     1      -3.873  11.252  16.622  0.00  0.00    +0.000 C 
ATOM     18  C   UNL     1      -2.846  10.670  15.697  0.00  0.00    +0.000 C 
ENDBRANCH   3  16
BRANCH   1  19
ATOM     19  S   UNL     1       2.113  10.121  18.193  0.00  0.00    +0.000 S 
BRANCH  19  20
ATOM     20  C   UNL     1       1.905   8.423  17.591  0.00  0.00    +0.000 C 
BRANCH  20  22
ATOM     21  O   UNL     1       2.388   7.480  19.715  0.00  0.00    +0.000 OA
ATOM     22  C   UNL     1       2.516   7.370  18.497  0.00  0.00    +0.000 C 
ATOM     23  N   UNL     1       3.092   6.278  17.876  0.00  0.00    +0.000 N 
ATOM     24  H   UNL     1       3.227   6.308  16.869  0.00  0.00    +0.000 HD
BRANCH  23  25
ATOM     25  C   UNL     1       3.548   5.104  18.525  0.00  0.00    +0.000 A 
ATOM     26  C   UNL     1       2.755   4.068  18.982  0.00  0.00    +0.000 A 
ATOM     27  N   UNL     1       3.238   2.936  19.547  0.00  0.00    +0.000 NA
ATOM     28  C   UNL     1       4.566   2.878  19.654  0.00  0.00    +0.000 A 
ATOM     29  N   UNL     1       5.452   3.798  19.282  0.00  0.00    +0.000 NA
ATOM     30  C   UNL     1       4.901   4.886  18.727  0.00  0.00    +0.000 A 
BRANCH  28  31
ATOM     31  O   UNL     1       5.033   1.720  20.187  0.00  0.00    +0.000 OA
ATOM     32  H   UNL     1       5.107   1.200  19.369  0.00  0.00    +0.000 HD
ENDBRANCH  28  31
BRANCH  30  33
ATOM     33  O   UNL     1       5.819   5.819  18.348  0.00  0.00    +0.000 OA
ATOM     34  H   UNL     1       5.483   6.032  17.457  0.00  0.00    +0.000 HD
ENDBRANCH  30  33
ENDBRANCH  23  25
ENDBRANCH  20  22
ENDBRANCH  19  20
ENDBRANCH   1  19
TORSDOF 8
ENDMDL
MODEL 5
REMARK VINA RESULT:      -7.9      1.762      3.814
REMARK  Name = 
REMARK  8 active torsions:
REMARK  status: ('A' for Active; 'I' for Inactive)
REMARK    1  A    between atoms: C_2  and  C_3
REMARK    2  A    between atoms: C_3  and  S_4
REMARK    3  A    between atoms: S_4  and  C_5
REMARK    4  A    between atoms: C_7  and  C_8
REMARK    5  A    between atoms: N_16  and  C_17
REMARK    6  A    between atoms: N_23  and  C_24
REMARK    7  A    between atoms: C_27  and  O_28
REMARK    8  A    between atoms: C_30  and  O_31
REMARK                            x       y       z     vdW  Elec       q    Type
REMARK                         _______ _______ _______ _____ _____    ______ ____
ROOT
ATOM      1  C   UNL     1       0.090  10.246  18.628  0.00  0.00    +0.000 A 
ATOM      2  N   UNL     1       0.144  10.821  19.848  0.00  0.00    +0.000 NA
ATOM      3  C   UNL     1      -0.972  11.371  20.380  0.00  0.00    +0.000 A 
ATOM      4  N   UNL     1      -2.168  11.418  19.764  0.00  0.00    +0.000 NA
ATOM      5  C   UNL     1      -2.194  10.835  18.552  0.00  0.00    +0.000 A 
ATOM      6  C   UNL     1      -1.112  10.231  17.934  0.00  0.00    +0.000 A 
ATOM      7  C   UNL     1      -1.614   9.744  16.720  0.00  0.00    +0.000 A 
ATOM      8  N   UNL     1      -2.914   9.983  16.563  0.00  0.00    +0.000 NA
ATOM      9  N   UNL     1      -3.278  10.680  17.687  0.00  0.00    +0.000 N 
ENDROOT
BRANCH   9  10
ATOM     10  C   UNL     1      -4.626  11.128  17.833  0.00  0.00    +0.000 A 
ATOM     11  C   UNL     1      -5.076  12.204  17.048  0.00  0.00    +0.000 A 
ATOM     12  C   UNL     1      -6.383  12.677  17.175  0.00  0.00    +0.000 A 
ATOM     13  C   UNL     1      -7.251  12.089  18.090  0.00  0.00    +0.000 A 
ATOM     14  C   UNL     1      -6.817  11.022  18.872  0.00  0.00    +0.000 A 
ATOM     15  C   UNL     1      -5.511  10.536  18.743  0.00  0.00    +0.000 A 
ENDBRANCH   9  10
BRANCH   3  16
ATOM     16  C   UNL     1      -0.881  11.951  21.774  0.00  0.00    +0.000 C 
ATOM     17  C   UNL     1      -2.092  11.943  22.683  0.00  0.00    +0.000 C 
ATOM     18  C   UNL     1      -0.937  11.032  22.975  0.00  0.00    +0.000 C 
ENDBRANCH   3  16
BRANCH   1  19
ATOM     19  S   UNL     1       1.517   9.459  17.929  0.00  0.00    +0.000 S 
BRANCH  19  20
ATOM     20  C   UNL     1       1.835   8.228  19.222  0.00  0.00    +0.000 C 
BRANCH  20  22
ATOM     21  O   UNL     1       3.492   7.070  17.977  0.00  0.00    +0.000 OA
ATOM     22  C   UNL     1       2.515   6.969  18.718  0.00  0.00    +0.000 C 
ATOM     23  N   UNL     1       2.051   5.769  19.223  0.00  0.00    +0.000 N 
ATOM     24  H   UNL     1       1.190   5.772  19.764  0.00  0.00    +0.000 HD
BRANCH  23  25
ATOM     25  C   UNL     1       2.656   4.502  19.034  0.00  0.00    +0.000 A 
ATOM     26  C   UNL     1       3.713   3.991  19.763  0.00  0.00    +0.000 A 
ATOM     27  N   UNL     1       4.225   2.749  19.585  0.00  0.00    +0.000 NA
ATOM     28  C   UNL     1       3.643   2.027  18.628  0.00  0.00    +0.000 A 
ATOM     29  N   UNL     1       2.638   2.390  17.835  0.00  0.00    +0.000 NA
ATOM     30  C   UNL     1       2.181   3.626  18.072  0.00  0.00    +0.000 A 
BRANCH  28  31
ATOM     31  O   UNL     1       4.145   0.774  18.491  0.00  0.00    +0.000 OA
ATOM     32  H   UNL     1       4.885   0.841  19.119  0.00  0.00    +0.000 HD
ENDBRANCH  28  31
BRANCH  30  33
ATOM     33  O   UNL     1       1.150   3.983  17.255  0.00  0.00    +0.000 OA
ATOM     34  H   UNL     1       0.441   3.424  17.627  0.00  0.00    +0.000 HD
ENDBRANCH  30  33
ENDBRANCH  23  25
ENDBRANCH  20  22
ENDBRANCH  19  20
ENDBRANCH   1  19
TORSDOF 8
ENDMDL
MODEL 6
REMARK VINA RESULT:      -7.9      4.269     10.408
REMARK  Name = 
REMARK  8 active torsions:
REMARK  status: ('A' for Active; 'I' for Inactive)
REMARK    1  A    between atoms: C_2  and  C_3
REMARK    2  A    between atoms: C_3  and  S_4
REMARK    3  A    between atoms: S_4  and  C_5
REMARK    4  A    between atoms: C_7  and  C_8
REMARK    5  A    between atoms: N_16  and  C_17
REMARK    6  A    between atoms: N_23  and  C_24
REMARK    7  A    between atoms: C_27  and  O_28
REMARK    8  A    between atoms: C_30  and  O_31
REMARK                            x       y       z     vdW  Elec       q    Type
REMARK                         _______ _______ _______ _____ _____    ______ ____
ROOT
ATOM      1  C   UNL     1       1.555   7.380  19.985  0.00  0.00    +0.000 A 
ATOM      2  N   UNL     1       1.484   6.285  20.772  0.00  0.00    +0.000 NA
ATOM      3  C   UNL     1       2.307   5.237  20.536  0.00  0.00    +0.000 A 
ATOM      4  N   UNL     1       3.206   5.182  19.535  0.00  0.00    +0.000 NA
ATOM      5  C   UNL     1       3.257   6.288  18.770  0.00  0.00    +0.000 A 
ATOM      6  C   UNL     1       2.471   7.414  18.944  0.00  0.00    +0.000 A 
ATOM      7  C   UNL     1       2.891   8.306  17.949  0.00  0.00    +0.000 A 
ATOM      8  N   UNL     1       3.882   7.821  17.203  0.00  0.00    +0.000 NA
ATOM      9  N   UNL     1       4.101   6.559  17.693  0.00  0.00    +0.000 N 
ENDROOT
BRANCH   9  10
ATOM     10  C   UNL     1       5.097   5.732  17.090  0.00  0.00    +0.000 A 
ATOM     11  C   UNL     1       6.293   5.487  17.785  0.00  0.00    +0.000 A 
ATOM     12  C   UNL     1       7.294   4.695  17.220  0.00  0.00    +0.000 A 
ATOM     13  C   UNL     1       7.115   4.145  15.954  0.00  0.00    +0.000 A 
ATOM     14  C   UNL     1       5.932   4.380  15.256  0.00  0.00    +0.000 A 
ATOM     15  C   UNL     1       4.922   5.165  15.821  0.00  0.00    +0.000 A 
ENDBRANCH   9  10
BRANCH   3  16
ATOM     16  C   UNL     1       2.236   4.054  21.477  0.00  0.00    +0.000 C 
ATOM     17  C   UNL     1       1.268   2.923  21.204  0.00  0.00    +0.000 C 
ATOM     18  C   UNL     1       2.740   2.702  21.023  0.00  0.00    +0.000 C 
ENDBRANCH   3  16
BRANCH   1  19
ATOM     19  S   UNL     1       0.536   8.796  20.306  0.00  0.00    +0.000 S 
BRANCH  19  20
ATOM     20  C   UNL     1       1.154   9.236  21.954  0.00  0.00    +0.000 C 
BRANCH  20  22
ATOM     21  O   UNL     1       0.083   9.750  24.008  0.00  0.00    +0.000 OA
ATOM     22  C   UNL     1       0.152   9.993  22.804  0.00  0.00    +0.000 C 
ATOM     23  N   UNL     1      -0.553  11.004  22.179  0.00  0.00    +0.000 N 
ATOM     24  H   UNL     1      -0.494  11.082  21.167  0.00  0.00    +0.000 HD
BRANCH  23  25
ATOM     25  C   UNL     1      -1.391  11.948  22.822  0.00  0.00    +0.000 A 
ATOM     26  C   UNL     1      -2.649  11.698  23.336  0.00  0.00    +0.000 A 
ATOM     27  N   UNL     1      -3.395  12.617  23.995  0.00  0.00    +0.000 NA
ATOM     28  C   UNL     1      -2.836  13.821  24.114  0.00  0.00    +0.000 A 
ATOM     29  N   UNL     1      -1.650  14.215  23.655  0.00  0.00    +0.000 NA
ATOM     30  C   UNL     1      -0.969  13.252  23.021  0.00  0.00    +0.000 A 
BRANCH  28  31
ATOM     31  O   UNL     1      -3.582  14.717  24.809  0.00  0.00    +0.000 OA
ATOM     32  H   UNL     1      -2.928  15.434  24.875  0.00  0.00    +0.000 HD
ENDBRANCH  28  31
BRANCH  30  33
ATOM     33  O   UNL     1       0.244  13.668  22.559  0.00  0.00    +0.000 OA
ATOM     34  H   UNL     1       0.728  12.820  22.575  0.00  0.00    +0.000 HD
ENDBRANCH  30  33
ENDBRANCH  23  25
ENDBRANCH  20  22
ENDBRANCH  19  20
ENDBRANCH   1  19
TORSDOF 8
ENDMDL
MODEL 7
REMARK VINA RESULT:      -7.8      0.833      1.561
REMARK  Name = 
REMARK  8 active torsions:
REMARK  status: ('A' for Active; 'I' for Inactive)
REMARK    1  A    between atoms: C_2  and  C_3
REMARK    2  A    between atoms: C_3  and  S_4
REMARK    3  A    between atoms: S_4  and  C_5
REMARK    4  A    between atoms: C_7  and  C_8
REMARK    5  A    between atoms: N_16  and  C_17
REMARK    6  A    between atoms: N_23  and  C_24
REMARK    7  A    between atoms: C_27  and  O_28
REMARK    8  A    between atoms: C_30  and  O_31
REMARK                            x       y       z     vdW  Elec       q    Type
REMARK                         _______ _______ _______ _____ _____    ______ ____
ROOT
ATOM      1  C   UNL     1       0.294  10.042  18.544  0.00  0.00    +0.000 A 
ATOM      2  N   UNL     1      -0.759   9.827  17.727  0.00  0.00    +0.000 NA
ATOM      3  C   UNL     1      -1.966  10.353  18.040  0.00  0.00    +0.000 A 
ATOM      4  N   UNL     1      -2.221  11.077  19.145  0.00  0.00    +0.000 NA
ATOM      5  C   UNL     1      -1.153  11.278  19.938  0.00  0.00    +0.000 A 
ATOM      6  C   UNL     1       0.123  10.797  19.694  0.00  0.00    +0.000 A 
ATOM      7  C   UNL     1       0.899  11.276  20.757  0.00  0.00    +0.000 A 
ATOM      8  N   UNL     1       0.204  12.025  21.611  0.00  0.00    +0.000 NA
ATOM      9  N   UNL     1      -1.077  12.014  21.121  0.00  0.00    +0.000 N 
ENDROOT
BRANCH   9  10
ATOM     10  C   UNL     1      -2.107  12.708  21.825  0.00  0.00    +0.000 A 
ATOM     11  C   UNL     1      -2.628  12.145  23.003  0.00  0.00    +0.000 A 
ATOM     12  C   UNL     1      -3.645  12.790  23.708  0.00  0.00    +0.000 A 
ATOM     13  C   UNL     1      -4.159  13.997  23.243  0.00  0.00    +0.000 A 
ATOM     14  C   UNL     1      -3.650  14.565  22.077  0.00  0.00    +0.000 A 
ATOM     15  C   UNL     1      -2.624  13.929  21.371  0.00  0.00    +0.000 A 
ENDBRANCH   9  10
BRANCH   3  16
ATOM     16  C   UNL     1      -3.106  10.138  17.067  0.00  0.00    +0.000 C 
ATOM     17  C   UNL     1      -3.545  11.260  16.150  0.00  0.00    +0.000 C 
ATOM     18  C   UNL     1      -2.823  10.075  15.582  0.00  0.00    +0.000 C 
ENDBRANCH   3  16
BRANCH   1  19
ATOM     19  S   UNL     1       1.904   9.422  18.131  0.00  0.00    +0.000 S 
BRANCH  19  20
ATOM     20  C   UNL     1       2.108   8.218  19.473  0.00  0.00    +0.000 C 
BRANCH  20  22
ATOM     21  O   UNL     1       2.490   6.590  17.787  0.00  0.00    +0.000 OA
ATOM     22  C   UNL     1       2.381   6.805  18.994  0.00  0.00    +0.000 C 
ATOM     23  N   UNL     1       2.605   5.852  19.970  0.00  0.00    +0.000 N 
ATOM     24  H   UNL     1       2.415   6.097  20.939  0.00  0.00    +0.000 HD
BRANCH  23  25
ATOM     25  C   UNL     1       3.056   4.529  19.746  0.00  0.00    +0.000 A 
ATOM     26  C   UNL     1       2.258   3.405  19.644  0.00  0.00    +0.000 A 
ATOM     27  N   UNL     1       2.727   2.164  19.372  0.00  0.00    +0.000 NA
ATOM     28  C   UNL     1       4.049   2.079  19.216  0.00  0.00    +0.000 A 
ATOM     29  N   UNL     1       4.941   3.061  19.306  0.00  0.00    +0.000 NA
ATOM     30  C   UNL     1       4.403   4.259  19.571  0.00  0.00    +0.000 A 
BRANCH  28  31
ATOM     31  O   UNL     1       4.495   0.835  18.907  0.00  0.00    +0.000 OA
ATOM     32  H   UNL     1       4.101   0.752  18.022  0.00  0.00    +0.000 HD
ENDBRANCH  28  31
BRANCH  30  33
ATOM     33  O   UNL     1       5.329   5.256  19.657  0.00  0.00    +0.000 OA
ATOM     34  H   UNL     1       4.799   6.005  19.323  0.00  0.00    +0.000 HD
ENDBRANCH  30  33
ENDBRANCH  23  25
ENDBRANCH  20  22
ENDBRANCH  19  20
ENDBRANCH   1  19
TORSDOF 8
ENDMDL
MODEL 8
REMARK VINA RESULT:      -7.8      2.050      2.368
REMARK  Name = 
REMARK  8 active torsions:
REMARK  status: ('A' for Active; 'I' for Inactive)
REMARK    1  A    between atoms: C_2  and  C_3
REMARK    2  A    between atoms: C_3  and  S_4
REMARK    3  A    between atoms: S_4  and  C_5
REMARK    4  A    between atoms: C_7  and  C_8
REMARK    5  A    between atoms: N_16  and  C_17
REMARK    6  A    between atoms: N_23  and  C_24
REMARK    7  A    between atoms: C_27  and  O_28
REMARK    8  A    between atoms: C_30  and  O_31
REMARK                            x       y       z     vdW  Elec       q    Type
REMARK                         _______ _______ _______ _____ _____    ______ ____
ROOT
ATOM      1  C   UNL     1       0.404   9.946  18.514  0.00  0.00    +0.000 A 
ATOM      2  N   UNL     1      -0.665   9.867  17.693  0.00  0.00    +0.000 NA
ATOM      3  C   UNL     1      -1.826  10.465  18.047  0.00  0.00    +0.000 A 
ATOM      4  N   UNL     1      -2.021  11.134  19.198  0.00  0.00    +0.000 NA
ATOM      5  C   UNL     1      -0.938  11.200  19.995  0.00  0.00    +0.000 A 
ATOM      6  C   UNL     1       0.295  10.638  19.712  0.00  0.00    +0.000 A 
ATOM      7  C   UNL     1       1.108  10.986  20.798  0.00  0.00    +0.000 A 
ATOM      8  N   UNL     1       0.476  11.731  21.702  0.00  0.00    +0.000 NA
ATOM      9  N   UNL     1      -0.803  11.851  21.222  0.00  0.00    +0.000 N 
ENDROOT
BRANCH   9  10
ATOM     10  C   UNL     1      -1.774  12.578  21.975  0.00  0.00    +0.000 A 
ATOM     11  C   UNL     1      -2.042  13.914  21.634  0.00  0.00    +0.000 A 
ATOM     12  C   UNL     1      -2.975  14.658  22.359  0.00  0.00    +0.000 A 
ATOM     13  C   UNL     1      -3.643  14.080  23.434  0.00  0.00    +0.000 A 
ATOM     14  C   UNL     1      -3.387  12.756  23.780  0.00  0.00    +0.000 A 
ATOM     15  C   UNL     1      -2.460  12.002  23.053  0.00  0.00    +0.000 A 
ENDBRANCH   9  10
BRANCH   3  16
ATOM     16  C   UNL     1      -2.981  10.402  17.071  0.00  0.00    +0.000 C 
ATOM     17  C   UNL     1      -2.883  11.100  15.732  0.00  0.00    +0.000 C 
ATOM     18  C   UNL     1      -2.842   9.603  15.794  0.00  0.00    +0.000 C 
ENDBRANCH   3  16
BRANCH   1  19
ATOM     19  S   UNL     1       1.959   9.229  18.052  0.00  0.00    +0.000 S 
BRANCH  19  20
ATOM     20  C   UNL     1       1.440   7.503  17.852  0.00  0.00    +0.000 C 
BRANCH  20  22
ATOM     21  O   UNL     1       2.305   5.298  18.004  0.00  0.00    +0.000 OA
ATOM     22  C   UNL     1       2.568   6.500  18.004  0.00  0.00    +0.000 C 
ATOM     23  N   UNL     1       3.852   7.010  18.022  0.00  0.00    +0.000 N 
ATOM     24  H   UNL     1       3.973   8.016  18.100  0.00  0.00    +0.000 HD
BRANCH  23  25
ATOM     25  C   UNL     1       5.045   6.247  17.969  0.00  0.00    +0.000 A 
ATOM     26  C   UNL     1       5.609   5.548  19.019  0.00  0.00    +0.000 A 
ATOM     27  N   UNL     1       6.722   4.784  18.910  0.00  0.00    +0.000 NA
ATOM     28  C   UNL     1       7.271   4.753  17.696  0.00  0.00    +0.000 A 
ATOM     29  N   UNL     1       6.858   5.386  16.601  0.00  0.00    +0.000 NA
ATOM     30  C   UNL     1       5.751   6.116  16.784  0.00  0.00    +0.000 A 
BRANCH  28  31
ATOM     31  O   UNL     1       8.363   3.953  17.598  0.00  0.00    +0.000 OA
ATOM     32  H   UNL     1       8.712   4.068  18.499  0.00  0.00    +0.000 HD
ENDBRANCH  28  31
BRANCH  30  33
ATOM     33  O   UNL     1       5.337   6.756  15.654  0.00  0.00    +0.000 OA
ATOM     34  H   UNL     1       4.516   7.167  15.986  0.00  0.00    +0.000 HD
ENDBRANCH  30  33
ENDBRANCH  23  25
ENDBRANCH  20  22
ENDBRANCH  19  20
ENDBRANCH   1  19
TORSDOF 8
ENDMDL
MODEL 9
REMARK VINA RESULT:      -7.8      4.137      8.948
REMARK  Name = 
REMARK  8 active torsions:
REMARK  status: ('A' for Active; 'I' for Inactive)
REMARK    1  A    between atoms: C_2  and  C_3
REMARK    2  A    between atoms: C_3  and  S_4
REMARK    3  A    between atoms: S_4  and  C_5
REMARK    4  A    between atoms: C_7  and  C_8
REMARK    5  A    between atoms: N_16  and  C_17
REMARK    6  A    between atoms: N_23  and  C_24
REMARK    7  A    between atoms: C_27  and  O_28
REMARK    8  A    between atoms: C_30  and  O_31
REMARK                            x       y       z     vdW  Elec       q    Type
REMARK                         _______ _______ _______ _____ _____    ______ ____
ROOT
ATOM      1  C   UNL     1       1.473   9.612  19.153  0.00  0.00    +0.000 A 
ATOM      2  N   UNL     1       0.678   9.780  20.232  0.00  0.00    +0.000 NA
ATOM      3  C   UNL     1       0.452   8.738  21.065  0.00  0.00    +0.000 A 
ATOM      4  N   UNL     1       0.950   7.500  20.893  0.00  0.00    +0.000 NA
ATOM      5  C   UNL     1       1.741   7.362  19.813  0.00  0.00    +0.000 A 
ATOM      6  C   UNL     1       2.045   8.370  18.914  0.00  0.00    +0.000 A 
ATOM      7  C   UNL     1       2.913   7.779  17.987  0.00  0.00    +0.000 A 
ATOM      8  N   UNL     1       3.177   6.503  18.264  0.00  0.00    +0.000 NA
ATOM      9  N   UNL     1       2.435   6.230  19.385  0.00  0.00    +0.000 N 
ENDROOT
BRANCH   9  10
ATOM     10  C   UNL     1       2.462   4.916  19.944  0.00  0.00    +0.000 A 
ATOM     11  C   UNL     1       3.608   4.123  19.769  0.00  0.00    +0.000 A 
ATOM     12  C   UNL     1       3.662   2.829  20.291  0.00  0.00    +0.000 A 
ATOM     13  C   UNL     1       2.572   2.311  20.984  0.00  0.00    +0.000 A 
ATOM     14  C   UNL     1       1.431   3.089  21.165  0.00  0.00    +0.000 A 
ATOM     15  C   UNL     1       1.374   4.390  20.654  0.00  0.00    +0.000 A 
ENDBRANCH   9  10
BRANCH   3  16
ATOM     16  C   UNL     1      -0.396   8.985  22.294  0.00  0.00    +0.000 C 
ATOM     17  C   UNL     1       0.240   9.507  23.565  0.00  0.00    +0.000 C 
ATOM     18  C   UNL     1      -0.651  10.403  22.757  0.00  0.00    +0.000 C 
ENDBRANCH   3  16
BRANCH   1  19
ATOM     19  S   UNL     1       1.842  10.971  18.076  0.00  0.00    +0.000 S 
BRANCH  19  20
ATOM     20  C   UNL     1       1.125  12.322  19.051  0.00  0.00    +0.000 C 
BRANCH  20  22
ATOM     21  O   UNL     1      -0.546  13.778  18.203  0.00  0.00    +0.000 OA
ATOM     22  C   UNL     1      -0.302  12.666  18.669  0.00  0.00    +0.000 C 
ATOM     23  N   UNL     1      -1.232  11.650  18.768  0.00  0.00    +0.000 N 
ATOM     24  H   UNL     1      -0.963  10.790  19.239  0.00  0.00    +0.000 HD
BRANCH  23  25
ATOM     25  C   UNL     1      -2.566  11.700  18.292  0.00  0.00    +0.000 A 
ATOM     26  C   UNL     1      -2.990  11.334  17.029  0.00  0.00    +0.000 A 
ATOM     27  N   UNL     1      -4.285  11.344  16.632  0.00  0.00    +0.000 NA
ATOM     28  C   UNL     1      -5.158  11.751  17.555  0.00  0.00    +0.000 A 
ATOM     29  N   UNL     1      -4.898  12.152  18.797  0.00  0.00    +0.000 NA
ATOM     30  C   UNL     1      -3.599  12.109  19.118  0.00  0.00    +0.000 A 
BRANCH  28  31
ATOM     31  O   UNL     1      -6.453  11.718  17.151  0.00  0.00    +0.000 OA
ATOM     32  H   UNL     1      -6.433  10.880  16.658  0.00  0.00    +0.000 HD
ENDBRANCH  28  31
BRANCH  30  33
ATOM     33  O   UNL     1      -3.348  12.519  20.394  0.00  0.00    +0.000 OA
ATOM     34  H   UNL     1      -4.263  12.627  20.718  0.00  0.00    +0.000 HD
ENDBRANCH  30  33
ENDBRANCH  23  25
ENDBRANCH  20  22
ENDBRANCH  19  20
ENDBRANCH   1  19
TORSDOF 8
ENDMDL
