MODEL 1
REMARK VINA RESULT:      -5.4      0.000      0.000
REMARK  Name = 
REMARK  11 active torsions:
REMARK  status: ('A' for Active; 'I' for Inactive)
REMARK    1  A    between atoms: C_1  and  C_2
REMARK    2  A    between atoms: C_2  and  C_3
REMARK    3  A    between atoms: C_3  and  C_4
REMARK    4  A    between atoms: C_4  and  C_5
REMARK    5  A    between atoms: C_5  and  C_6
REMARK    6  A    between atoms: C_6  and  C_7
REMARK    7  A    between atoms: C_7  and  O_8
REMARK    8  A    between atoms: O_8  and  C_9
REMARK    9  A    between atoms: C_9  and  C_11
REMARK   10  A    between atoms: C_11  and  C_12
REMARK   11  A    between atoms: C_12  and  C_13
REMARK                            x       y       z     vdW  Elec       q    Type
REMARK                         _______ _______ _______ _____ _____    ______ ____
ROOT
ATOM      1  C   UNL     1       5.418   5.213  19.081  0.00  0.00    +0.000 C 
ENDROOT
BRANCH   1   2
ATOM      2  C   UNL     1       4.209   5.264  18.155  0.00  0.00    +0.000 C 
BRANCH   2   3
ATOM      3  C   UNL     1       4.145   4.023  17.271  0.00  0.00    +0.000 C 
BRANCH   3   4
ATOM      4  C   UNL     1       2.711   3.518  17.122  0.00  0.00    +0.000 C 
BRANCH   4   5
ATOM      5  C   UNL     1       1.770   4.233  18.091  0.00  0.00    +0.000 C 
BRANCH   5   7
ATOM      6  C   UNL     1       0.982   3.991  20.469  0.00  0.00    +0.000 C 
ATOM      7  C   UNL     1       1.231   3.274  19.152  0.00  0.00    +0.000 C 
ENDBRANCH   5   7
ENDBRANCH   4   5
ENDBRANCH   3   4
ENDBRANCH   2   3
ENDBRANCH   1   2
BRANCH   1   8
ATOM      8  O   UNL     1       6.365   4.251  18.601  0.00  0.00    +0.000 OA
BRANCH   8   9
ATOM      9  C   UNL     1       7.452   4.811  18.005  0.00  0.00    +0.000 C 
ATOM     10  O   UNL     1       8.116   4.284  17.113  0.00  0.00    +0.000 OA
BRANCH   9  11
ATOM     11  C   UNL     1       7.726   6.188  18.545  0.00  0.00    +0.000 C 
BRANCH  11  12
ATOM     12  C   UNL     1       7.614   7.248  17.451  0.00  0.00    +0.000 C 
ATOM     13  C   UNL     1       8.196   8.587  17.878  0.00  0.00    +0.000 C 
ENDBRANCH  11  12
ENDBRANCH   9  11
ENDBRANCH   8   9
ENDBRANCH   1   8
TORSDOF 9
ENDMDL
MODEL 2
REMARK VINA RESULT:      -5.3      1.574      2.289
REMARK  Name = 
REMARK  11 active torsions:
REMARK  status: ('A' for Active; 'I' for Inactive)
REMARK    1  A    between atoms: C_1  and  C_2
REMARK    2  A    between atoms: C_2  and  C_3
REMARK    3  A    between atoms: C_3  and  C_4
REMARK    4  A    between atoms: C_4  and  C_5
REMARK    5  A    between atoms: C_5  and  C_6
REMARK    6  A    between atoms: C_6  and  C_7
REMARK    7  A    between atoms: C_7  and  O_8
REMARK    8  A    between atoms: O_8  and  C_9
REMARK    9  A    between atoms: C_9  and  C_11
REMARK   10  A    between atoms: C_11  and  C_12
REMARK   11  A    between atoms: C_12  and  C_13
REMARK                            x       y       z     vdW  Elec       q    Type
REMARK                         _______ _______ _______ _____ _____    ______ ____
ROOT
ATOM      1  C   UNL     1       4.452   4.267  19.173  0.00  0.00    +0.000 C 
ENDROOT
BRANCH   1   2
ATOM      2  C   UNL     1       3.588   4.949  18.119  0.00  0.00    +0.000 C 
BRANCH   2   3
ATOM      3  C   UNL     1       2.113   4.899  18.505  0.00  0.00    +0.000 C 
BRANCH   3   4
ATOM      4  C   UNL     1       1.460   3.598  18.044  0.00  0.00    +0.000 C 
BRANCH   4   5
ATOM      5  C   UNL     1       0.800   2.867  19.212  0.00  0.00    +0.000 C 
BRANCH   5   7
ATOM      6  C   UNL     1       1.700   2.681  21.554  0.00  0.00    +0.000 C 
ATOM      7  C   UNL     1       1.043   3.595  20.533  0.00  0.00    +0.000 C 
ENDBRANCH   5   7
ENDBRANCH   4   5
ENDBRANCH   3   4
ENDBRANCH   2   3
ENDBRANCH   1   2
BRANCH   1   8
ATOM      8  O   UNL     1       5.759   4.009  18.646  0.00  0.00    +0.000 OA
BRANCH   8   9
ATOM      9  C   UNL     1       6.624   5.046  18.810  0.00  0.00    +0.000 C 
ATOM     10  O   UNL     1       6.973   5.507  19.896  0.00  0.00    +0.000 OA
BRANCH   9  11
ATOM     11  C   UNL     1       7.141   5.543  17.488  0.00  0.00    +0.000 C 
BRANCH  11  12
ATOM     12  C   UNL     1       6.922   4.515  16.380  0.00  0.00    +0.000 C 
ATOM     13  C   UNL     1       6.025   5.038  15.269  0.00  0.00    +0.000 C 
ENDBRANCH  11  12
ENDBRANCH   9  11
ENDBRANCH   8   9
ENDBRANCH   1   8
TORSDOF 9
ENDMDL
MODEL 3
REMARK VINA RESULT:      -5.2      1.531      2.181
REMARK  Name = 
REMARK  11 active torsions:
REMARK  status: ('A' for Active; 'I' for Inactive)
REMARK    1  A    between atoms: C_1  and  C_2
REMARK    2  A    between atoms: C_2  and  C_3
REMARK    3  A    between atoms: C_3  and  C_4
REMARK    4  A    between atoms: C_4  and  C_5
REMARK    5  A    between atoms: C_5  and  C_6
REMARK    6  A    between atoms: C_6  and  C_7
REMARK    7  A    between atoms: C_7  and  O_8
REMARK    8  A    between atoms: O_8  and  C_9
REMARK    9  A    between atoms: C_9  and  C_11
REMARK   10  A    between atoms: C_11  and  C_12
REMARK   11  A    between atoms: C_12  and  C_13
REMARK                            x       y       z     vdW  Elec       q    Type
REMARK                         _______ _______ _______ _____ _____    ______ ____
ROOT
ATOM      1  C   UNL     1       5.185   4.891  19.154  0.00  0.00    +0.000 C 
ENDROOT
BRANCH   1   2
ATOM      2  C   UNL     1       4.678   3.471  19.375  0.00  0.00    +0.000 C 
BRANCH   2   3
ATOM      3  C   UNL     1       3.858   2.992  18.182  0.00  0.00    +0.000 C 
BRANCH   3   4
ATOM      4  C   UNL     1       3.219   4.163  17.439  0.00  0.00    +0.000 C 
BRANCH   4   5
ATOM      5  C   UNL     1       1.753   4.334  17.834  0.00  0.00    +0.000 C 
BRANCH   5   7
ATOM      6  C   UNL     1       0.828   3.457  20.004  0.00  0.00    +0.000 C 
ATOM      7  C   UNL     1       1.231   3.107  18.580  0.00  0.00    +0.000 C 
ENDBRANCH   5   7
ENDBRANCH   4   5
ENDBRANCH   3   4
ENDBRANCH   2   3
ENDBRANCH   1   2
BRANCH   1   8
ATOM      8  O   UNL     1       6.584   4.967  19.454  0.00  0.00    +0.000 OA
BRANCH   8   9
ATOM      9  C   UNL     1       7.324   5.516  18.454  0.00  0.00    +0.000 C 
ATOM     10  O   UNL     1       7.833   6.635  18.488  0.00  0.00    +0.000 OA
BRANCH   9  11
ATOM     11  C   UNL     1       7.482   4.562  17.302  0.00  0.00    +0.000 C 
BRANCH  11  12
ATOM     12  C   UNL     1       6.836   5.111  16.031  0.00  0.00    +0.000 C 
ATOM     13  C   UNL     1       6.203   4.019  15.183  0.00  0.00    +0.000 C 
ENDBRANCH  11  12
ENDBRANCH   9  11
ENDBRANCH   8   9
ENDBRANCH   1   8
TORSDOF 9
ENDMDL
MODEL 4
REMARK VINA RESULT:      -5.1      1.976      2.725
REMARK  Name = 
REMARK  11 active torsions:
REMARK  status: ('A' for Active; 'I' for Inactive)
REMARK    1  A    between atoms: C_1  and  C_2
REMARK    2  A    between atoms: C_2  and  C_3
REMARK    3  A    between atoms: C_3  and  C_4
REMARK    4  A    between atoms: C_4  and  C_5
REMARK    5  A    between atoms: C_5  and  C_6
REMARK    6  A    between atoms: C_6  and  C_7
REMARK    7  A    between atoms: C_7  and  O_8
REMARK    8  A    between atoms: O_8  and  C_9
REMARK    9  A    between atoms: C_9  and  C_11
REMARK   10  A    between atoms: C_11  and  C_12
REMARK   11  A    between atoms: C_12  and  C_13
REMARK                            x       y       z     vdW  Elec       q    Type
REMARK                         _______ _______ _______ _____ _____    ______ ____
ROOT
ATOM      1  C   UNL     1       5.109   6.095  17.710  0.00  0.00    +0.000 C 
ENDROOT
BRANCH   1   2
ATOM      2  C   UNL     1       4.736   5.334  18.977  0.00  0.00    +0.000 C 
BRANCH   2   3
ATOM      3  C   UNL     1       4.262   3.922  18.646  0.00  0.00    +0.000 C 
BRANCH   3   4
ATOM      4  C   UNL     1       3.272   3.926  17.482  0.00  0.00    +0.000 C 
BRANCH   4   5
ATOM      5  C   UNL     1       1.873   4.327  17.947  0.00  0.00    +0.000 C 
BRANCH   5   7
ATOM      6  C   UNL     1       0.896   3.719  20.185  0.00  0.00    +0.000 C 
ATOM      7  C   UNL     1       1.229   3.224  18.786  0.00  0.00    +0.000 C 
ENDBRANCH   5   7
ENDBRANCH   4   5
ENDBRANCH   3   4
ENDBRANCH   2   3
ENDBRANCH   1   2
BRANCH   1   8
ATOM      8  O   UNL     1       6.532   6.103  17.542  0.00  0.00    +0.000 OA
BRANCH   8   9
ATOM      9  C   UNL     1       6.975   5.193  16.635  0.00  0.00    +0.000 C 
ATOM     10  O   UNL     1       7.925   4.429  16.809  0.00  0.00    +0.000 OA
BRANCH   9  11
ATOM     11  C   UNL     1       6.131   5.202  15.390  0.00  0.00    +0.000 C 
BRANCH  11  12
ATOM     12  C   UNL     1       6.020   3.806  14.780  0.00  0.00    +0.000 C 
ATOM     13  C   UNL     1       6.194   3.816  13.270  0.00  0.00    +0.000 C 
ENDBRANCH  11  12
ENDBRANCH   9  11
ENDBRANCH   8   9
ENDBRANCH   1   8
TORSDOF 9
ENDMDL
MODEL 5
REMARK VINA RESULT:      -5.1      2.935      3.967
REMARK  Name = 
REMARK  11 active torsions:
REMARK  status: ('A' for Active; 'I' for Inactive)
REMARK    1  A    between atoms: C_1  and  C_2
REMARK    2  A    between atoms: C_2  and  C_3
REMARK    3  A    between atoms: C_3  and  C_4
REMARK    4  A    between atoms: C_4  and  C_5
REMARK    5  A    between atoms: C_5  and  C_6
REMARK    6  A    between atoms: C_6  and  C_7
REMARK    7  A    between atoms: C_7  and  O_8
REMARK    8  A    between atoms: O_8  and  C_9
REMARK    9  A    between atoms: C_9  and  C_11
REMARK   10  A    between atoms: C_11  and  C_12
REMARK   11  A    between atoms: C_12  and  C_13
REMARK                            x       y       z     vdW  Elec       q    Type
REMARK                         _______ _______ _______ _____ _____    ______ ____
ROOT
ATOM      1  C   UNL     1       5.217   6.476  16.319  0.00  0.00    +0.000 C 
ENDROOT
BRANCH   1   2
ATOM      2  C   UNL     1       4.617   5.374  17.184  0.00  0.00    +0.000 C 
BRANCH   2   3
ATOM      3  C   UNL     1       3.401   5.883  17.951  0.00  0.00    +0.000 C 
BRANCH   3   4
ATOM      4  C   UNL     1       2.291   4.834  17.993  0.00  0.00    +0.000 C 
BRANCH   4   5
ATOM      5  C   UNL     1       2.638   3.627  17.123  0.00  0.00    +0.000 C 
BRANCH   5   7
ATOM      6  C   UNL     1       3.577   1.698  18.437  0.00  0.00    +0.000 C 
ATOM      7  C   UNL     1       2.323   2.315  17.840  0.00  0.00    +0.000 C 
ENDBRANCH   5   7
ENDBRANCH   4   5
ENDBRANCH   3   4
ENDBRANCH   2   3
ENDBRANCH   1   2
BRANCH   1   8
ATOM      8  O   UNL     1       5.448   5.987  14.991  0.00  0.00    +0.000 OA
BRANCH   8   9
ATOM      9  C   UNL     1       6.500   5.130  14.904  0.00  0.00    +0.000 C 
ATOM     10  O   UNL     1       7.648   5.384  15.267  0.00  0.00    +0.000 OA
BRANCH   9  11
ATOM     11  C   UNL     1       6.078   3.800  14.341  0.00  0.00    +0.000 C 
BRANCH  11  12
ATOM     12  C   UNL     1       6.324   3.729  12.836  0.00  0.00    +0.000 C 
ATOM     13  C   UNL     1       5.081   3.316  12.063  0.00  0.00    +0.000 C 
ENDBRANCH  11  12
ENDBRANCH   9  11
ENDBRANCH   8   9
ENDBRANCH   1   8
TORSDOF 9
ENDMDL
MODEL 6
REMARK VINA RESULT:      -5.1      3.237      4.582
REMARK  Name = 
REMARK  11 active torsions:
REMARK  status: ('A' for Active; 'I' for Inactive)
REMARK    1  A    between atoms: C_1  and  C_2
REMARK    2  A    between atoms: C_2  and  C_3
REMARK    3  A    between atoms: C_3  and  C_4
REMARK    4  A    between atoms: C_4  and  C_5
REMARK    5  A    between atoms: C_5  and  C_6
REMARK    6  A    between atoms: C_6  and  C_7
REMARK    7  A    between atoms: C_7  and  O_8
REMARK    8  A    between atoms: O_8  and  C_9
REMARK    9  A    between atoms: C_9  and  C_11
REMARK   10  A    between atoms: C_11  and  C_12
REMARK   11  A    between atoms: C_12  and  C_13
REMARK                            x       y       z     vdW  Elec       q    Type
REMARK                         _______ _______ _______ _____ _____    ______ ____
ROOT
ATOM      1  C   UNL     1       6.437   4.341  17.215  0.00  0.00    +0.000 C 
ENDROOT
BRANCH   1   2
ATOM      2  C   UNL     1       6.896   4.584  15.782  0.00  0.00    +0.000 C 
BRANCH   2   3
ATOM      3  C   UNL     1       5.808   5.277  14.969  0.00  0.00    +0.000 C 
BRANCH   3   4
ATOM      4  C   UNL     1       5.248   4.355  13.887  0.00  0.00    +0.000 C 
BRANCH   4   5
ATOM      5  C   UNL     1       6.372   3.662  13.117  0.00  0.00    +0.000 C 
BRANCH   5   7
ATOM      6  C   UNL     1       4.391   3.285  11.613  0.00  0.00    +0.000 C 
ATOM      7  C   UNL     1       5.829   2.896  11.912  0.00  0.00    +0.000 C 
ENDBRANCH   5   7
ENDBRANCH   4   5
ENDBRANCH   3   4
ENDBRANCH   2   3
ENDBRANCH   1   2
BRANCH   1   8
ATOM      8  O   UNL     1       6.200   5.591  17.874  0.00  0.00    +0.000 OA
BRANCH   8   9
ATOM      9  C   UNL     1       7.043   5.822  18.916  0.00  0.00    +0.000 C 
ATOM     10  O   UNL     1       6.951   5.299  20.026  0.00  0.00    +0.000 OA
BRANCH   9  11
ATOM     11  C   UNL     1       8.141   6.776  18.532  0.00  0.00    +0.000 C 
BRANCH  11  12
ATOM     12  C   UNL     1       7.625   7.878  17.609  0.00  0.00    +0.000 C 
ATOM     13  C   UNL     1       8.195   9.243  17.958  0.00  0.00    +0.000 C 
ENDBRANCH  11  12
ENDBRANCH   9  11
ENDBRANCH   8   9
ENDBRANCH   1   8
TORSDOF 9
ENDMDL
MODEL 7
REMARK VINA RESULT:      -5.1      1.092      1.435
REMARK  Name = 
REMARK  11 active torsions:
REMARK  status: ('A' for Active; 'I' for Inactive)
REMARK    1  A    between atoms: C_1  and  C_2
REMARK    2  A    between atoms: C_2  and  C_3
REMARK    3  A    between atoms: C_3  and  C_4
REMARK    4  A    between atoms: C_4  and  C_5
REMARK    5  A    between atoms: C_5  and  C_6
REMARK    6  A    between atoms: C_6  and  C_7
REMARK    7  A    between atoms: C_7  and  O_8
REMARK    8  A    between atoms: O_8  and  C_9
REMARK    9  A    between atoms: C_9  and  C_11
REMARK   10  A    between atoms: C_11  and  C_12
REMARK   11  A    between atoms: C_12  and  C_13
REMARK                            x       y       z     vdW  Elec       q    Type
REMARK                         _______ _______ _______ _____ _____    ______ ____
ROOT
ATOM      1  C   UNL     1       5.020   4.044  18.023  0.00  0.00    +0.000 C 
ENDROOT
BRANCH   1   2
ATOM      2  C   UNL     1       3.728   3.560  17.375  0.00  0.00    +0.000 C 
BRANCH   2   3
ATOM      3  C   UNL     1       3.321   2.195  17.922  0.00  0.00    +0.000 C 
BRANCH   3   4
ATOM      4  C   UNL     1       1.847   2.173  18.322  0.00  0.00    +0.000 C 
BRANCH   4   5
ATOM      5  C   UNL     1       1.365   3.564  18.732  0.00  0.00    +0.000 C 
BRANCH   5   7
ATOM      6  C   UNL     1       2.023   5.089  20.622  0.00  0.00    +0.000 C 
ATOM      7  C   UNL     1       1.416   3.746  20.248  0.00  0.00    +0.000 C 
ENDBRANCH   5   7
ENDBRANCH   4   5
ENDBRANCH   3   4
ENDBRANCH   2   3
ENDBRANCH   1   2
BRANCH   1   8
ATOM      8  O   UNL     1       5.989   4.356  17.014  0.00  0.00    +0.000 OA
BRANCH   8   9
ATOM      9  C   UNL     1       7.118   4.933  17.507  0.00  0.00    +0.000 C 
ATOM     10  O   UNL     1       7.985   4.344  18.151  0.00  0.00    +0.000 OA
BRANCH   9  11
ATOM     11  C   UNL     1       7.200   6.387  17.131  0.00  0.00    +0.000 C 
BRANCH  11  12
ATOM     12  C   UNL     1       7.946   7.195  18.191  0.00  0.00    +0.000 C 
ATOM     13  C   UNL     1       8.077   8.663  17.817  0.00  0.00    +0.000 C 
ENDBRANCH  11  12
ENDBRANCH   9  11
ENDBRANCH   8   9
ENDBRANCH   1   8
TORSDOF 9
ENDMDL
MODEL 8
REMARK VINA RESULT:      -5.1      3.491      5.816
REMARK  Name = 
REMARK  11 active torsions:
REMARK  status: ('A' for Active; 'I' for Inactive)
REMARK    1  A    between atoms: C_1  and  C_2
REMARK    2  A    between atoms: C_2  and  C_3
REMARK    3  A    between atoms: C_3  and  C_4
REMARK    4  A    between atoms: C_4  and  C_5
REMARK    5  A    between atoms: C_5  and  C_6
REMARK    6  A    between atoms: C_6  and  C_7
REMARK    7  A    between atoms: C_7  and  O_8
REMARK    8  A    between atoms: O_8  and  C_9
REMARK    9  A    between atoms: C_9  and  C_11
REMARK   10  A    between atoms: C_11  and  C_12
REMARK   11  A    between atoms: C_12  and  C_13
REMARK                            x       y       z     vdW  Elec       q    Type
REMARK                         _______ _______ _______ _____ _____    ______ ____
ROOT
ATOM      1  C   UNL     1       1.236   2.492  18.591  0.00  0.00    +0.000 C 
ENDROOT
BRANCH   1   2
ATOM      2  C   UNL     1       2.432   2.386  17.653  0.00  0.00    +0.000 C 
BRANCH   2   3
ATOM      3  C   UNL     1       2.874   3.765  17.174  0.00  0.00    +0.000 C 
BRANCH   3   4
ATOM      4  C   UNL     1       4.377   3.805  16.903  0.00  0.00    +0.000 C 
BRANCH   4   5
ATOM      5  C   UNL     1       4.836   5.218  16.544  0.00  0.00    +0.000 C 
BRANCH   5   7
ATOM      6  C   UNL     1       6.253   4.038  14.833  0.00  0.00    +0.000 C 
ATOM      7  C   UNL     1       5.417   5.271  15.132  0.00  0.00    +0.000 C 
ENDBRANCH   5   7
ENDBRANCH   4   5
ENDBRANCH   3   4
ENDBRANCH   2   3
ENDBRANCH   1   2
BRANCH   1   8
ATOM      8  O   UNL     1       1.577   1.974  19.883  0.00  0.00    +0.000 OA
BRANCH   8   9
ATOM      9  C   UNL     1       1.449   2.886  20.884  0.00  0.00    +0.000 C 
ATOM     10  O   UNL     1       1.661   2.659  22.075  0.00  0.00    +0.000 OA
BRANCH   9  11
ATOM     11  C   UNL     1       1.052   4.235  20.350  0.00  0.00    +0.000 C 
BRANCH  11  12
ATOM     12  C   UNL     1       1.988   5.332  20.853  0.00  0.00    +0.000 C 
ATOM     13  C   UNL     1       2.321   6.351  19.775  0.00  0.00    +0.000 C 
ENDBRANCH  11  12
ENDBRANCH   9  11
ENDBRANCH   8   9
ENDBRANCH   1   8
TORSDOF 9
ENDMDL
MODEL 9
REMARK VINA RESULT:      -5.1      1.990      2.738
REMARK  Name = 
REMARK  11 active torsions:
REMARK  status: ('A' for Active; 'I' for Inactive)
REMARK    1  A    between atoms: C_1  and  C_2
REMARK    2  A    between atoms: C_2  and  C_3
REMARK    3  A    between atoms: C_3  and  C_4
REMARK    4  A    between atoms: C_4  and  C_5
REMARK    5  A    between atoms: C_5  and  C_6
REMARK    6  A    between atoms: C_6  and  C_7
REMARK    7  A    between atoms: C_7  and  O_8
REMARK    8  A    between atoms: O_8  and  C_9
REMARK    9  A    between atoms: C_9  and  C_11
REMARK   10  A    between atoms: C_11  and  C_12
REMARK   11  A    between atoms: C_12  and  C_13
REMARK                            x       y       z     vdW  Elec       q    Type
REMARK                         _______ _______ _______ _____ _____    ______ ____
ROOT
ATOM      1  C   UNL     1       4.945   6.230  17.953  0.00  0.00    +0.000 C 
ENDROOT
BRANCH   1   2
ATOM      2  C   UNL     1       3.443   5.982  18.036  0.00  0.00    +0.000 C 
BRANCH   2   3
ATOM      3  C   UNL     1       3.095   4.574  17.565  0.00  0.00    +0.000 C 
BRANCH   3   4
ATOM      4  C   UNL     1       1.638   4.230  17.867  0.00  0.00    +0.000 C 
BRANCH   4   5
ATOM      5  C   UNL     1       1.502   2.794  18.372  0.00  0.00    +0.000 C 
BRANCH   5   7
ATOM      6  C   UNL     1       0.976   4.161  20.418  0.00  0.00    +0.000 C 
ATOM      7  C   UNL     1       1.156   2.759  19.860  0.00  0.00    +0.000 C 
ENDBRANCH   5   7
ENDBRANCH   4   5
ENDBRANCH   3   4
ENDBRANCH   2   3
ENDBRANCH   1   2
BRANCH   1   8
ATOM      8  O   UNL     1       5.372   6.212  16.585  0.00  0.00    +0.000 OA
BRANCH   8   9
ATOM      9  C   UNL     1       6.683   5.886  16.431  0.00  0.00    +0.000 C 
ATOM     10  O   UNL     1       7.608   6.695  16.379  0.00  0.00    +0.000 OA
BRANCH   9  11
ATOM     11  C   UNL     1       6.875   4.395  16.371  0.00  0.00    +0.000 C 
BRANCH  11  12
ATOM     12  C   UNL     1       5.950   3.755  15.337  0.00  0.00    +0.000 C 
ATOM     13  C   UNL     1       6.340   4.109  13.911  0.00  0.00    +0.000 C 
ENDBRANCH  11  12
ENDBRANCH   9  11
ENDBRANCH   8   9
ENDBRANCH   1   8
TORSDOF 9
ENDMDL
