MODEL 1
REMARK VINA RESULT:      -7.4      0.000      0.000
REMARK  Name = 
REMARK  8 active torsions:
REMARK  status: ('A' for Active; 'I' for Inactive)
REMARK    1  A    between atoms: C_1  and  C_2
REMARK    2  A    between atoms: C_2  and  C_3
REMARK    3  A    between atoms: C_4  and  C_5
REMARK    4  A    between atoms: C_5  and  C_7
REMARK    5  A    between atoms: N_9  and  C_10
REMARK    6  A    between atoms: C_10  and  C_11
REMARK    7  A    between atoms: C_24  and  C_25
REMARK    8  A    between atoms: C_24  and  C_26
REMARK                            x       y       z     vdW  Elec       q    Type
REMARK                         _______ _______ _______ _____ _____    ______ ____
ROOT
ATOM      1  C   UNL     1       1.978   8.172  18.686  0.00  0.00    +0.000 A 
ATOM      2  C   UNL     1       1.397   8.944  17.694  0.00  0.00    +0.000 A 
ATOM      3  N   UNL     1       0.436   9.735  18.253  0.00  0.00    +0.000 N 
ATOM      4  C   UNL     1       0.422   9.562  19.618  0.00  0.00    +0.000 A 
ATOM      5  C   UNL     1      -0.348  10.196  20.609  0.00  0.00    +0.000 A 
ATOM      6  C   UNL     1      -0.121   9.839  21.939  0.00  0.00    +0.000 A 
ATOM      7 BR   UNL     1      -1.120  10.694  23.302  0.00  0.00    +0.000 Br
ATOM      8  C   UNL     1       0.827   8.886  22.279  0.00  0.00    +0.000 A 
ATOM      9  C   UNL     1       1.587   8.257  21.283  0.00  0.00    +0.000 A 
ATOM     10  C   UNL     1       1.386   8.588  19.922  0.00  0.00    +0.000 A 
ENDROOT
BRANCH   1  11
ATOM     11  C   UNL     1       3.009   7.190  18.363  0.00  0.00    +0.000 C 
ATOM     12  O   UNL     1       3.778   7.370  17.421  0.00  0.00    +0.000 OA
BRANCH  11  16
ATOM     13  C   UNL     1       4.228   4.534  17.270  0.00  0.00    +0.000 C 
ATOM     14  C   UNL     1       3.635   4.614  18.664  0.00  0.00    +0.000 C 
ATOM     15  C   UNL     1       4.411   3.764  19.648  0.00  0.00    +0.000 C 
ATOM     16  C   UNL     1       3.024   5.925  19.161  0.00  0.00    +0.000 C 
ATOM     17  C   UNL     1       2.108   4.740  18.842  0.00  0.00    +0.000 C 
ATOM     18  C   UNL     1       1.213   4.726  17.620  0.00  0.00    +0.000 C 
ATOM     19  C   UNL     1       1.409   4.108  20.031  0.00  0.00    +0.000 C 
ENDBRANCH  11  16
ENDBRANCH   1  11
BRANCH   3  20
ATOM     20  C   UNL     1      -0.373  10.673  17.494  0.00  0.00    +0.000 C 
BRANCH  20  21
ATOM     21  C   UNL     1      -1.877  10.327  17.452  0.00  0.00    +0.000 C 
ATOM     22  C   UNL     1      -2.367  10.136  16.005  0.00  0.00    +0.000 C 
ATOM     23  C   UNL     1      -3.871  10.294  15.844  0.00  0.00    +0.000 C 
ATOM     24  O   UNL     1      -4.311  11.505  16.445  0.00  0.00    +0.000 OA
ATOM     25  C   UNL     1      -4.132  11.471  17.856  0.00  0.00    +0.000 C 
ATOM     26  C   UNL     1      -2.654  11.424  18.203  0.00  0.00    +0.000 C 
ENDBRANCH  20  21
ENDBRANCH   3  20
TORSDOF 4
ENDMDL
MODEL 2
REMARK VINA RESULT:      -7.3      0.643      1.478
REMARK  Name = 
REMARK  8 active torsions:
REMARK  status: ('A' for Active; 'I' for Inactive)
REMARK    1  A    between atoms: C_1  and  C_2
REMARK    2  A    between atoms: C_2  and  C_3
REMARK    3  A    between atoms: C_4  and  C_5
REMARK    4  A    between atoms: C_5  and  C_7
REMARK    5  A    between atoms: N_9  and  C_10
REMARK    6  A    between atoms: C_10  and  C_11
REMARK    7  A    between atoms: C_24  and  C_25
REMARK    8  A    between atoms: C_24  and  C_26
REMARK                            x       y       z     vdW  Elec       q    Type
REMARK                         _______ _______ _______ _____ _____    ______ ____
ROOT
ATOM      1  C   UNL     1       1.777   8.198  18.609  0.00  0.00    +0.000 A 
ATOM      2  C   UNL     1       1.198   8.990  17.631  0.00  0.00    +0.000 A 
ATOM      3  N   UNL     1       0.283   9.817  18.215  0.00  0.00    +0.000 N 
ATOM      4  C   UNL     1       0.301   9.647  19.581  0.00  0.00    +0.000 A 
ATOM      5  C   UNL     1      -0.417  10.311  20.590  0.00  0.00    +0.000 A 
ATOM      6  C   UNL     1      -0.167   9.948  21.915  0.00  0.00    +0.000 A 
ATOM      7 BR   UNL     1      -1.095  10.841  23.303  0.00  0.00    +0.000 Br
ATOM      8  C   UNL     1       0.754   8.960  22.230  0.00  0.00    +0.000 A 
ATOM      9  C   UNL     1       1.461   8.302  21.216  0.00  0.00    +0.000 A 
ATOM     10  C   UNL     1       1.235   8.638  19.859  0.00  0.00    +0.000 A 
ENDROOT
BRANCH   1  11
ATOM     11  C   UNL     1       2.761   7.178  18.260  0.00  0.00    +0.000 C 
ATOM     12  O   UNL     1       3.924   7.484  18.006  0.00  0.00    +0.000 OA
BRANCH  11  16
ATOM     13  C   UNL     1       2.746   5.184  20.659  0.00  0.00    +0.000 C 
ATOM     14  C   UNL     1       2.229   4.776  19.293  0.00  0.00    +0.000 C 
ATOM     15  C   UNL     1       1.036   3.850  19.402  0.00  0.00    +0.000 C 
ATOM     16  C   UNL     1       2.272   5.770  18.132  0.00  0.00    +0.000 C 
ATOM     17  C   UNL     1       3.220   4.567  18.129  0.00  0.00    +0.000 C 
ATOM     18  C   UNL     1       4.706   4.718  18.381  0.00  0.00    +0.000 C 
ATOM     19  C   UNL     1       2.957   3.522  17.061  0.00  0.00    +0.000 C 
ENDBRANCH  11  16
ENDBRANCH   1  11
BRANCH   3  20
ATOM     20  C   UNL     1      -0.511  10.784  17.477  0.00  0.00    +0.000 C 
BRANCH  20  21
ATOM     21  C   UNL     1      -2.008  10.425  17.365  0.00  0.00    +0.000 C 
ATOM     22  C   UNL     1      -2.474  10.414  15.898  0.00  0.00    +0.000 C 
ATOM     23  C   UNL     1      -3.977  10.570  15.732  0.00  0.00    +0.000 C 
ATOM     24  O   UNL     1      -4.446  11.688  16.475  0.00  0.00    +0.000 OA
ATOM     25  C   UNL     1      -4.288  11.476  17.873  0.00  0.00    +0.000 C 
ATOM     26  C   UNL     1      -2.814  11.407  18.236  0.00  0.00    +0.000 C 
ENDBRANCH  20  21
ENDBRANCH   3  20
TORSDOF 4
ENDMDL
MODEL 3
REMARK VINA RESULT:      -7.2      3.286      6.003
REMARK  Name = 
REMARK  8 active torsions:
REMARK  status: ('A' for Active; 'I' for Inactive)
REMARK    1  A    between atoms: C_1  and  C_2
REMARK    2  A    between atoms: C_2  and  C_3
REMARK    3  A    between atoms: C_4  and  C_5
REMARK    4  A    between atoms: C_5  and  C_7
REMARK    5  A    between atoms: N_9  and  C_10
REMARK    6  A    between atoms: C_10  and  C_11
REMARK    7  A    between atoms: C_24  and  C_25
REMARK    8  A    between atoms: C_24  and  C_26
REMARK                            x       y       z     vdW  Elec       q    Type
REMARK                         _______ _______ _______ _____ _____    ______ ____
ROOT
ATOM      1  C   UNL     1       3.536   6.705  18.021  0.00  0.00    +0.000 A 
ATOM      2  C   UNL     1       3.378   5.673  18.932  0.00  0.00    +0.000 A 
ATOM      3  N   UNL     1       2.547   6.087  19.933  0.00  0.00    +0.000 N 
ATOM      4  C   UNL     1       2.081   7.353  19.660  0.00  0.00    +0.000 A 
ATOM      5  C   UNL     1       1.169   8.158  20.365  0.00  0.00    +0.000 A 
ATOM      6  C   UNL     1       0.850   9.407  19.827  0.00  0.00    +0.000 A 
ATOM      7 BR   UNL     1      -0.397  10.506  20.734  0.00  0.00    +0.000 Br
ATOM      8  C   UNL     1       1.418   9.847  18.640  0.00  0.00    +0.000 A 
ATOM      9  C   UNL     1       2.330   9.039  17.949  0.00  0.00    +0.000 A 
ATOM     10  C   UNL     1       2.681   7.766  18.462  0.00  0.00    +0.000 A 
ENDROOT
BRANCH   1  11
ATOM     11  C   UNL     1       4.419   6.557  16.869  0.00  0.00    +0.000 C 
ATOM     12  O   UNL     1       4.320   7.305  15.899  0.00  0.00    +0.000 OA
BRANCH  11  16
ATOM     13  C   UNL     1       7.509   6.944  17.061  0.00  0.00    +0.000 C 
ATOM     14  C   UNL     1       6.890   5.561  16.998  0.00  0.00    +0.000 C 
ATOM     15  C   UNL     1       7.650   4.572  17.858  0.00  0.00    +0.000 C 
ATOM     16  C   UNL     1       5.374   5.406  16.881  0.00  0.00    +0.000 C 
ATOM     17  C   UNL     1       6.262   5.061  15.681  0.00  0.00    +0.000 C 
ATOM     18  C   UNL     1       6.319   5.940  14.449  0.00  0.00    +0.000 C 
ATOM     19  C   UNL     1       6.316   3.593  15.301  0.00  0.00    +0.000 C 
ENDBRANCH  11  16
ENDBRANCH   1  11
BRANCH   3  20
ATOM     20  C   UNL     1       2.165   5.251  21.057  0.00  0.00    +0.000 C 
BRANCH  20  21
ATOM     21  C   UNL     1       1.948   3.765  20.700  0.00  0.00    +0.000 C 
ATOM     22  C   UNL     1       3.250   3.113  20.200  0.00  0.00    +0.000 C 
ATOM     23  C   UNL     1       3.026   1.854  19.378  0.00  0.00    +0.000 C 
ATOM     24  O   UNL     1       2.071   2.093  18.351  0.00  0.00    +0.000 OA
ATOM     25  C   UNL     1       0.786   2.362  18.901  0.00  0.00    +0.000 C 
ATOM     26  C   UNL     1       0.803   3.669  19.676  0.00  0.00    +0.000 C 
ENDBRANCH  20  21
ENDBRANCH   3  20
TORSDOF 4
ENDMDL
MODEL 4
REMARK VINA RESULT:      -7.1      5.946      8.327
REMARK  Name = 
REMARK  8 active torsions:
REMARK  status: ('A' for Active; 'I' for Inactive)
REMARK    1  A    between atoms: C_1  and  C_2
REMARK    2  A    between atoms: C_2  and  C_3
REMARK    3  A    between atoms: C_4  and  C_5
REMARK    4  A    between atoms: C_5  and  C_7
REMARK    5  A    between atoms: N_9  and  C_10
REMARK    6  A    between atoms: C_10  and  C_11
REMARK    7  A    between atoms: C_24  and  C_25
REMARK    8  A    between atoms: C_24  and  C_26
REMARK                            x       y       z     vdW  Elec       q    Type
REMARK                         _______ _______ _______ _____ _____    ______ ____
ROOT
ATOM      1  C   UNL     1       4.454   3.400  18.062  0.00  0.00    +0.000 A 
ATOM      2  C   UNL     1       4.258   3.320  16.693  0.00  0.00    +0.000 A 
ATOM      3  N   UNL     1       4.905   4.359  16.090  0.00  0.00    +0.000 N 
ATOM      4  C   UNL     1       5.601   5.086  17.029  0.00  0.00    +0.000 A 
ATOM      5  C   UNL     1       6.448   6.197  16.876  0.00  0.00    +0.000 A 
ATOM      6  C   UNL     1       7.055   6.718  18.020  0.00  0.00    +0.000 A 
ATOM      7 BR   UNL     1       8.226   8.195  17.847  0.00  0.00    +0.000 Br
ATOM      8  C   UNL     1       6.828   6.164  19.272  0.00  0.00    +0.000 A 
ATOM      9  C   UNL     1       5.978   5.060  19.414  0.00  0.00    +0.000 A 
ATOM     10  C   UNL     1       5.341   4.504  18.279  0.00  0.00    +0.000 A 
ENDROOT
BRANCH   1  11
ATOM     11  C   UNL     1       3.828   2.440  18.964  0.00  0.00    +0.000 C 
ATOM     12  O   UNL     1       3.849   1.236  18.718  0.00  0.00    +0.000 OA
BRANCH  11  16
ATOM     13  C   UNL     1       0.772   1.973  19.383  0.00  0.00    +0.000 C 
ATOM     14  C   UNL     1       1.594   2.758  20.387  0.00  0.00    +0.000 C 
ATOM     15  C   UNL     1       1.130   2.502  21.806  0.00  0.00    +0.000 C 
ATOM     16  C   UNL     1       3.085   2.988  20.141  0.00  0.00    +0.000 C 
ATOM     17  C   UNL     1       2.111   4.165  20.023  0.00  0.00    +0.000 C 
ATOM     18  C   UNL     1       1.743   4.769  18.684  0.00  0.00    +0.000 C 
ATOM     19  C   UNL     1       2.247   5.242  21.083  0.00  0.00    +0.000 C 
ENDBRANCH  11  16
ENDBRANCH   1  11
BRANCH   3  20
ATOM     20  C   UNL     1       4.908   4.579  14.654  0.00  0.00    +0.000 C 
BRANCH  20  21
ATOM     21  C   UNL     1       6.199   4.122  13.942  0.00  0.00    +0.000 C 
ATOM     22  C   UNL     1       7.166   5.300  13.726  0.00  0.00    +0.000 C 
ATOM     23  C   UNL     1       8.189   5.056  12.627  0.00  0.00    +0.000 C 
ATOM     24  O   UNL     1       7.546   4.615  11.438  0.00  0.00    +0.000 OA
ATOM     25  C   UNL     1       6.950   3.336  11.624  0.00  0.00    +0.000 C 
ATOM     26  C   UNL     1       5.812   3.421  12.627  0.00  0.00    +0.000 C 
ENDBRANCH  20  21
ENDBRANCH   3  20
TORSDOF 4
ENDMDL
MODEL 5
REMARK VINA RESULT:      -7.0      3.183      7.603
REMARK  Name = 
REMARK  8 active torsions:
REMARK  status: ('A' for Active; 'I' for Inactive)
REMARK    1  A    between atoms: C_1  and  C_2
REMARK    2  A    between atoms: C_2  and  C_3
REMARK    3  A    between atoms: C_4  and  C_5
REMARK    4  A    between atoms: C_5  and  C_7
REMARK    5  A    between atoms: N_9  and  C_10
REMARK    6  A    between atoms: C_10  and  C_11
REMARK    7  A    between atoms: C_24  and  C_25
REMARK    8  A    between atoms: C_24  and  C_26
REMARK                            x       y       z     vdW  Elec       q    Type
REMARK                         _______ _______ _______ _____ _____    ______ ____
ROOT
ATOM      1  C   UNL     1       1.926   8.281  18.766  0.00  0.00    +0.000 A 
ATOM      2  C   UNL     1       2.822   8.362  17.712  0.00  0.00    +0.000 A 
ATOM      3  N   UNL     1       3.605   7.244  17.708  0.00  0.00    +0.000 N 
ATOM      4  C   UNL     1       3.190   6.378  18.694  0.00  0.00    +0.000 A 
ATOM      5  C   UNL     1       3.651   5.094  19.030  0.00  0.00    +0.000 A 
ATOM      6  C   UNL     1       3.010   4.422  20.073  0.00  0.00    +0.000 A 
ATOM      7 BR   UNL     1       3.585   2.678  20.534  0.00  0.00    +0.000 Br
ATOM      8  C   UNL     1       1.956   5.003  20.764  0.00  0.00    +0.000 A 
ATOM      9  C   UNL     1       1.507   6.285  20.423  0.00  0.00    +0.000 A 
ATOM     10  C   UNL     1       2.132   7.001  19.373  0.00  0.00    +0.000 A 
ENDROOT
BRANCH   1  11
ATOM     11  C   UNL     1       0.996   9.371  19.042  0.00  0.00    +0.000 C 
ATOM     12  O   UNL     1       0.242   9.794  18.168  0.00  0.00    +0.000 OA
BRANCH  11  16
ATOM     13  C   UNL     1      -0.816   8.469  21.417  0.00  0.00    +0.000 C 
ATOM     14  C   UNL     1       0.211   9.572  21.584  0.00  0.00    +0.000 C 
ATOM     15  C   UNL     1       0.854   9.531  22.956  0.00  0.00    +0.000 C 
ATOM     16  C   UNL     1       1.067  10.007  20.394  0.00  0.00    +0.000 C 
ATOM     17  C   UNL     1      -0.023  10.945  20.921  0.00  0.00    +0.000 C 
ATOM     18  C   UNL     1      -1.305  11.193  20.155  0.00  0.00    +0.000 C 
ATOM     19  C   UNL     1       0.468  12.221  21.580  0.00  0.00    +0.000 C 
ENDBRANCH  11  16
ENDBRANCH   1  11
BRANCH   3  20
ATOM     20  C   UNL     1       4.654   7.003  16.733  0.00  0.00    +0.000 C 
BRANCH  20  21
ATOM     21  C   UNL     1       5.356   5.636  16.879  0.00  0.00    +0.000 C 
ATOM     22  C   UNL     1       6.673   5.765  17.667  0.00  0.00    +0.000 C 
ATOM     23  C   UNL     1       7.642   4.617  17.428  0.00  0.00    +0.000 C 
ATOM     24  O   UNL     1       7.824   4.402  16.034  0.00  0.00    +0.000 OA
ATOM     25  C   UNL     1       6.620   3.950  15.424  0.00  0.00    +0.000 C 
ATOM     26  C   UNL     1       5.558   5.036  15.476  0.00  0.00    +0.000 C 
ENDBRANCH  20  21
ENDBRANCH   3  20
TORSDOF 4
ENDMDL
MODEL 6
REMARK VINA RESULT:      -7.0      3.614      8.269
REMARK  Name = 
REMARK  8 active torsions:
REMARK  status: ('A' for Active; 'I' for Inactive)
REMARK    1  A    between atoms: C_1  and  C_2
REMARK    2  A    between atoms: C_2  and  C_3
REMARK    3  A    between atoms: C_4  and  C_5
REMARK    4  A    between atoms: C_5  and  C_7
REMARK    5  A    between atoms: N_9  and  C_10
REMARK    6  A    between atoms: C_10  and  C_11
REMARK    7  A    between atoms: C_24  and  C_25
REMARK    8  A    between atoms: C_24  and  C_26
REMARK                            x       y       z     vdW  Elec       q    Type
REMARK                         _______ _______ _______ _____ _____    ______ ____
ROOT
ATOM      1  C   UNL     1      -1.291  12.036  20.779  0.00  0.00    +0.000 A 
ATOM      2  C   UNL     1       0.010  11.586  20.626  0.00  0.00    +0.000 A 
ATOM      3  N   UNL     1       0.116  10.931  19.433  0.00  0.00    +0.000 N 
ATOM      4  C   UNL     1      -1.075  11.010  18.748  0.00  0.00    +0.000 A 
ATOM      5  C   UNL     1      -1.423  10.540  17.470  0.00  0.00    +0.000 A 
ATOM      6  C   UNL     1      -2.717  10.795  17.011  0.00  0.00    +0.000 A 
ATOM      7 BR   UNL     1      -3.210  10.202  15.282  0.00  0.00    +0.000 Br
ATOM      8  C   UNL     1      -3.636  11.483  17.789  0.00  0.00    +0.000 A 
ATOM      9  C   UNL     1      -3.279  11.943  19.064  0.00  0.00    +0.000 A 
ATOM     10  C   UNL     1      -1.978  11.703  19.568  0.00  0.00    +0.000 A 
ENDROOT
BRANCH   1  11
ATOM     11  C   UNL     1      -1.704  12.729  21.995  0.00  0.00    +0.000 C 
ATOM     12  O   UNL     1      -0.915  13.435  22.618  0.00  0.00    +0.000 OA
BRANCH  11  16
ATOM     13  C   UNL     1      -4.078  14.683  21.465  0.00  0.00    +0.000 C 
ATOM     14  C   UNL     1      -4.278  13.391  22.233  0.00  0.00    +0.000 C 
ATOM     15  C   UNL     1      -5.623  12.764  21.928  0.00  0.00    +0.000 C 
ATOM     16  C   UNL     1      -3.089  12.466  22.496  0.00  0.00    +0.000 C 
ATOM     17  C   UNL     1      -3.706  13.249  23.659  0.00  0.00    +0.000 C 
ATOM     18  C   UNL     1      -2.997  14.427  24.296  0.00  0.00    +0.000 C 
ATOM     19  C   UNL     1      -4.423  12.419  24.707  0.00  0.00    +0.000 C 
ENDBRANCH  11  16
ENDBRANCH   1  11
BRANCH   3  20
ATOM     20  C   UNL     1       1.349  10.331  18.953  0.00  0.00    +0.000 C 
BRANCH  20  21
ATOM     21  C   UNL     1       1.327   8.788  18.901  0.00  0.00    +0.000 C 
ATOM     22  C   UNL     1       1.460   8.179  20.309  0.00  0.00    +0.000 C 
ATOM     23  C   UNL     1       1.943   6.737  20.307  0.00  0.00    +0.000 C 
ATOM     24  O   UNL     1       3.114   6.606  19.511  0.00  0.00    +0.000 OA
ATOM     25  C   UNL     1       2.832   6.861  18.140  0.00  0.00    +0.000 C 
ATOM     26  C   UNL     1       2.433   8.314  17.941  0.00  0.00    +0.000 C 
ENDBRANCH  20  21
ENDBRANCH   3  20
TORSDOF 4
ENDMDL
MODEL 7
REMARK VINA RESULT:      -7.0      4.500      9.233
REMARK  Name = 
REMARK  8 active torsions:
REMARK  status: ('A' for Active; 'I' for Inactive)
REMARK    1  A    between atoms: C_1  and  C_2
REMARK    2  A    between atoms: C_2  and  C_3
REMARK    3  A    between atoms: C_4  and  C_5
REMARK    4  A    between atoms: C_5  and  C_7
REMARK    5  A    between atoms: N_9  and  C_10
REMARK    6  A    between atoms: C_10  and  C_11
REMARK    7  A    between atoms: C_24  and  C_25
REMARK    8  A    between atoms: C_24  and  C_26
REMARK                            x       y       z     vdW  Elec       q    Type
REMARK                         _______ _______ _______ _____ _____    ______ ____
ROOT
ATOM      1  C   UNL     1      -4.209  12.495  20.731  0.00  0.00    +0.000 A 
ATOM      2  C   UNL     1      -2.889  12.713  21.092  0.00  0.00    +0.000 A 
ATOM      3  N   UNL     1      -2.076  12.291  20.081  0.00  0.00    +0.000 N 
ATOM      4  C   UNL     1      -2.836  11.870  19.013  0.00  0.00    +0.000 A 
ATOM      5  C   UNL     1      -2.446  11.409  17.744  0.00  0.00    +0.000 A 
ATOM      6  C   UNL     1      -3.451  11.077  16.833  0.00  0.00    +0.000 A 
ATOM      7 BR   UNL     1      -2.962  10.480  15.104  0.00  0.00    +0.000 Br
ATOM      8  C   UNL     1      -4.793  11.190  17.167  0.00  0.00    +0.000 A 
ATOM      9  C   UNL     1      -5.170  11.646  18.437  0.00  0.00    +0.000 A 
ATOM     10  C   UNL     1      -4.182  11.991  19.390  0.00  0.00    +0.000 A 
ENDROOT
BRANCH   1  11
ATOM     11  C   UNL     1      -5.298  12.806  21.650  0.00  0.00    +0.000 C 
ATOM     12  O   UNL     1      -6.349  12.170  21.622  0.00  0.00    +0.000 OA
BRANCH  11  16
ATOM     13  C   UNL     1      -4.312  12.526  24.597  0.00  0.00    +0.000 C 
ATOM     14  C   UNL     1      -4.613  13.884  23.993  0.00  0.00    +0.000 C 
ATOM     15  C   UNL     1      -3.651  14.941  24.494  0.00  0.00    +0.000 C 
ATOM     16  C   UNL     1      -5.116  13.985  22.553  0.00  0.00    +0.000 C 
ATOM     17  C   UNL     1      -6.073  14.291  23.710  0.00  0.00    +0.000 C 
ATOM     18  C   UNL     1      -7.196  13.348  24.091  0.00  0.00    +0.000 C 
ATOM     19  C   UNL     1      -6.516  15.737  23.834  0.00  0.00    +0.000 C 
ENDBRANCH  11  16
ENDBRANCH   1  11
BRANCH   3  20
ATOM     20  C   UNL     1      -0.627  12.374  20.128  0.00  0.00    +0.000 C 
BRANCH  20  21
ATOM     21  C   UNL     1       0.045  11.281  20.986  0.00  0.00    +0.000 C 
ATOM     22  C   UNL     1      -0.012   9.909  20.290  0.00  0.00    +0.000 C 
ATOM     23  C   UNL     1       0.158   8.734  21.240  0.00  0.00    +0.000 C 
ATOM     24  O   UNL     1      -0.730   8.856  22.344  0.00  0.00    +0.000 OA
ATOM     25  C   UNL     1      -0.395   9.982  23.148  0.00  0.00    +0.000 C 
ATOM     26  C   UNL     1      -0.618  11.271  22.375  0.00  0.00    +0.000 C 
ENDBRANCH  20  21
ENDBRANCH   3  20
TORSDOF 4
ENDMDL
MODEL 8
REMARK VINA RESULT:      -7.0      2.982      7.525
REMARK  Name = 
REMARK  8 active torsions:
REMARK  status: ('A' for Active; 'I' for Inactive)
REMARK    1  A    between atoms: C_1  and  C_2
REMARK    2  A    between atoms: C_2  and  C_3
REMARK    3  A    between atoms: C_4  and  C_5
REMARK    4  A    between atoms: C_5  and  C_7
REMARK    5  A    between atoms: N_9  and  C_10
REMARK    6  A    between atoms: C_10  and  C_11
REMARK    7  A    between atoms: C_24  and  C_25
REMARK    8  A    between atoms: C_24  and  C_26
REMARK                            x       y       z     vdW  Elec       q    Type
REMARK                         _______ _______ _______ _____ _____    ______ ____
ROOT
ATOM      1  C   UNL     1       2.592   7.994  18.247  0.00  0.00    +0.000 A 
ATOM      2  C   UNL     1       3.388   7.515  17.220  0.00  0.00    +0.000 A 
ATOM      3  N   UNL     1       3.761   6.234  17.508  0.00  0.00    +0.000 N 
ATOM      4  C   UNL     1       3.159   5.822  18.675  0.00  0.00    +0.000 A 
ATOM      5  C   UNL     1       3.199   4.579  19.330  0.00  0.00    +0.000 A 
ATOM      6  C   UNL     1       2.450   4.433  20.499  0.00  0.00    +0.000 A 
ATOM      7 BR   UNL     1       2.458   2.763  21.392  0.00  0.00    +0.000 Br
ATOM      8  C   UNL     1       1.695   5.480  21.007  0.00  0.00    +0.000 A 
ATOM      9  C   UNL     1       1.665   6.716  20.348  0.00  0.00    +0.000 A 
ATOM     10  C   UNL     1       2.413   6.906  19.161  0.00  0.00    +0.000 A 
ENDROOT
BRANCH   1  11
ATOM     11  C   UNL     1       2.090   9.364  18.228  0.00  0.00    +0.000 C 
ATOM     12  O   UNL     1       2.285  10.094  17.259  0.00  0.00    +0.000 OA
BRANCH  11  16
ATOM     13  C   UNL     1      -0.964   9.994  18.340  0.00  0.00    +0.000 C 
ATOM     14  C   UNL     1      -0.080  10.160  19.561  0.00  0.00    +0.000 C 
ATOM     15  C   UNL     1      -0.809   9.778  20.832  0.00  0.00    +0.000 C 
ATOM     16  C   UNL     1       1.418   9.865  19.466  0.00  0.00    +0.000 C 
ATOM     17  C   UNL     1       0.943  11.314  19.617  0.00  0.00    +0.000 C 
ATOM     18  C   UNL     1       1.013  12.302  18.471  0.00  0.00    +0.000 C 
ATOM     19  C   UNL     1       1.286  11.987  20.933  0.00  0.00    +0.000 C 
ENDBRANCH  11  16
ENDBRANCH   1  11
BRANCH   3  20
ATOM     20  C   UNL     1       4.602   5.428  16.640  0.00  0.00    +0.000 C 
BRANCH  20  21
ATOM     21  C   UNL     1       6.117   5.600  16.883  0.00  0.00    +0.000 C 
ATOM     22  C   UNL     1       6.610   4.680  18.015  0.00  0.00    +0.000 C 
ATOM     23  C   UNL     1       7.920   5.132  18.641  0.00  0.00    +0.000 C 
ATOM     24  O   UNL     1       7.850   6.505  19.004  0.00  0.00    +0.000 OA
ATOM     25  C   UNL     1       7.731   7.334  17.854  0.00  0.00    +0.000 C 
ATOM     26  C   UNL     1       6.404   7.087  17.157  0.00  0.00    +0.000 C 
ENDBRANCH  20  21
ENDBRANCH   3  20
TORSDOF 4
ENDMDL
MODEL 9
REMARK VINA RESULT:      -6.9      3.486      6.126
REMARK  Name = 
REMARK  8 active torsions:
REMARK  status: ('A' for Active; 'I' for Inactive)
REMARK    1  A    between atoms: C_1  and  C_2
REMARK    2  A    between atoms: C_2  and  C_3
REMARK    3  A    between atoms: C_4  and  C_5
REMARK    4  A    between atoms: C_5  and  C_7
REMARK    5  A    between atoms: N_9  and  C_10
REMARK    6  A    between atoms: C_10  and  C_11
REMARK    7  A    between atoms: C_24  and  C_25
REMARK    8  A    between atoms: C_24  and  C_26
REMARK                            x       y       z     vdW  Elec       q    Type
REMARK                         _______ _______ _______ _____ _____    ______ ____
ROOT
ATOM      1  C   UNL     1       3.877   6.590  17.708  0.00  0.00    +0.000 A 
ATOM      2  C   UNL     1       3.783   5.579  18.651  0.00  0.00    +0.000 A 
ATOM      3  N   UNL     1       2.947   5.981  19.651  0.00  0.00    +0.000 N 
ATOM      4  C   UNL     1       2.415   7.214  19.350  0.00  0.00    +0.000 A 
ATOM      5  C   UNL     1       1.474   7.994  20.045  0.00  0.00    +0.000 A 
ATOM      6  C   UNL     1       1.087   9.209  19.477  0.00  0.00    +0.000 A 
ATOM      7 BR   UNL     1      -0.201  10.271  20.371  0.00  0.00    +0.000 Br
ATOM      8  C   UNL     1       1.616   9.642  18.270  0.00  0.00    +0.000 A 
ATOM      9  C   UNL     1       2.556   8.858  17.588  0.00  0.00    +0.000 A 
ATOM     10  C   UNL     1       2.977   7.621  18.131  0.00  0.00    +0.000 A 
ENDROOT
BRANCH   1  11
ATOM     11  C   UNL     1       4.750   6.452  16.547  0.00  0.00    +0.000 C 
ATOM     12  O   UNL     1       5.335   7.426  16.078  0.00  0.00    +0.000 OA
BRANCH  11  16
ATOM     13  C   UNL     1       6.874   4.316  17.361  0.00  0.00    +0.000 C 
ATOM     14  C   UNL     1       5.836   4.028  16.294  0.00  0.00    +0.000 C 
ATOM     15  C   UNL     1       5.371   2.587  16.345  0.00  0.00    +0.000 C 
ATOM     16  C   UNL     1       4.823   5.104  15.901  0.00  0.00    +0.000 C 
ATOM     17  C   UNL     1       5.935   4.722  14.920  0.00  0.00    +0.000 C 
ATOM     18  C   UNL     1       7.103   5.643  14.634  0.00  0.00    +0.000 C 
ATOM     19  C   UNL     1       5.485   4.014  13.656  0.00  0.00    +0.000 C 
ENDBRANCH  11  16
ENDBRANCH   1  11
BRANCH   3  20
ATOM     20  C   UNL     1       2.623   5.160  20.805  0.00  0.00    +0.000 C 
BRANCH  20  21
ATOM     21  C   UNL     1       2.247   3.703  20.464  0.00  0.00    +0.000 C 
ATOM     22  C   UNL     1       3.437   2.947  19.846  0.00  0.00    +0.000 C 
ATOM     23  C   UNL     1       3.031   1.721  19.043  0.00  0.00    +0.000 C 
ATOM     24  O   UNL     1       2.013   2.054  18.108  0.00  0.00    +0.000 OA
ATOM     25  C   UNL     1       0.810   2.426  18.772  0.00  0.00    +0.000 C 
ATOM     26  C   UNL     1       1.010   3.717  19.547  0.00  0.00    +0.000 C 
ENDBRANCH  20  21
ENDBRANCH   3  20
TORSDOF 4
ENDMDL
