MODEL 1
REMARK VINA RESULT:      -8.8      0.000      0.000
REMARK  Name = 
REMARK  7 active torsions:
REMARK  status: ('A' for Active; 'I' for Inactive)
REMARK    1  A    between atoms: C_1  and  O_2
REMARK    2  A    between atoms: O_2  and  C_3
REMARK    3  A    between atoms: C_6  and  C_7
REMARK    4  A    between atoms: C_9  and  C_10
REMARK    5  A    between atoms: N_13  and  C_14
REMARK    6  A    between atoms: C_14  and  C_15
REMARK    7  A    between atoms: C_19  and  C_20
REMARK                            x       y       z     vdW  Elec       q    Type
REMARK                         _______ _______ _______ _____ _____    ______ ____
ROOT
ATOM      1  C   UNL     1       7.913   5.558  18.452  0.00  0.00    +0.000 C 
ATOM      2  C   UNL     1       7.495   4.702  17.252  0.00  0.00    +0.000 C 
ATOM      3  C   UNL     1       6.037   4.950  16.865  0.00  0.00    +0.000 C 
ATOM      4  N   UNL     1       5.079   4.810  17.966  0.00  0.00    +0.000 NA
ATOM      5  C   UNL     1       5.490   5.456  19.218  0.00  0.00    +0.000 C 
ATOM      6  C   UNL     1       6.953   5.210  19.600  0.00  0.00    +0.000 C 
ENDROOT
BRANCH   1   9
ATOM      7  C   UNL     1       8.322   9.256  18.110  0.00  0.00    +0.000 A 
ATOM      8  C   UNL     1       8.727   8.049  18.733  0.00  0.00    +0.000 A 
ATOM      9  C   UNL     1       7.968   7.043  18.172  0.00  0.00    +0.000 A 
ATOM     10  N   UNL     1       7.215   7.680  17.220  0.00  0.00    +0.000 N 
ATOM     11  N   UNL     1       7.412   9.005  17.158  0.00  0.00    +0.000 NA
ATOM     12  H   UNL     1       6.529   7.280  16.589  0.00  0.00    +0.000 HD
BRANCH   7  16
ATOM     13  C   UNL     1       9.646  13.223  18.994  0.00  0.00    +0.000 A 
ATOM     14  C   UNL     1      10.092  12.148  19.765  0.00  0.00    +0.000 A 
ATOM     15  C   UNL     1       9.670  10.845  19.478  0.00  0.00    +0.000 A 
ATOM     16  C   UNL     1       8.773  10.608  18.430  0.00  0.00    +0.000 A 
ATOM     17  C   UNL     1       8.307  11.697  17.680  0.00  0.00    +0.000 A 
ATOM     18  C   UNL     1       8.739  12.996  17.960  0.00  0.00    +0.000 A 
BRANCH  13  20
ATOM     19  C   UNL     1       9.131  15.433  19.632  0.00  0.00    +0.000 C 
ATOM     20  O   UNL     1      10.126  14.453  19.352  0.00  0.00    +0.000 OA
ENDBRANCH  13  20
ENDBRANCH   7  16
ENDBRANCH   1   9
BRANCH   4  21
ATOM     21  C   UNL     1       3.703   5.206  17.565  0.00  0.00    +0.000 C 
BRANCH  21  22
ATOM     22  C   UNL     1       2.571   4.494  18.293  0.00  0.00    +0.000 A 
ATOM     23  C   UNL     1       1.462   3.990  17.596  0.00  0.00    +0.000 A 
ATOM     24  C   UNL     1       0.519   3.192  18.244  0.00  0.00    +0.000 A 
ATOM     25  C   UNL     1       0.676   2.867  19.589  0.00  0.00    +0.000 A 
ATOM     26  C   UNL     1       1.762   3.375  20.315  0.00  0.00    +0.000 A 
ATOM     27  C   UNL     1       2.673   4.223  19.668  0.00  0.00    +0.000 A 
BRANCH  26  28
ATOM     28  C   UNL     1       2.008   2.973  21.749  0.00  0.00    +0.000 C 
ATOM     29  F   UNL     1       2.987   2.041  21.903  0.00  0.00    +0.000 F 
ATOM     30  F   UNL     1       2.370   4.033  22.527  0.00  0.00    +0.000 F 
ATOM     31  F   UNL     1       0.896   2.449  22.339  0.00  0.00    +0.000 F 
ENDBRANCH  26  28
ENDBRANCH  21  22
ENDBRANCH   4  21
TORSDOF 6
ENDMDL
MODEL 2
REMARK VINA RESULT:      -8.8      0.985      1.172
REMARK  Name = 
REMARK  7 active torsions:
REMARK  status: ('A' for Active; 'I' for Inactive)
REMARK    1  A    between atoms: C_1  and  O_2
REMARK    2  A    between atoms: O_2  and  C_3
REMARK    3  A    between atoms: C_6  and  C_7
REMARK    4  A    between atoms: C_9  and  C_10
REMARK    5  A    between atoms: N_13  and  C_14
REMARK    6  A    between atoms: C_14  and  C_15
REMARK    7  A    between atoms: C_19  and  C_20
REMARK                            x       y       z     vdW  Elec       q    Type
REMARK                         _______ _______ _______ _____ _____    ______ ____
ROOT
ATOM      1  C   UNL     1       7.286   5.811  16.586  0.00  0.00    +0.000 C 
ATOM      2  C   UNL     1       6.201   6.193  15.573  0.00  0.00    +0.000 C 
ATOM      3  C   UNL     1       4.894   6.578  16.266  0.00  0.00    +0.000 C 
ATOM      4  N   UNL     1       4.391   5.583  17.220  0.00  0.00    +0.000 NA
ATOM      5  C   UNL     1       5.412   5.029  18.117  0.00  0.00    +0.000 C 
ATOM      6  C   UNL     1       6.722   4.650  17.420  0.00  0.00    +0.000 C 
ENDROOT
BRANCH   1   9
ATOM      7  C   UNL     1       8.447   8.899  18.339  0.00  0.00    +0.000 A 
ATOM      8  C   UNL     1       7.874   8.309  17.184  0.00  0.00    +0.000 A 
ATOM      9  C   UNL     1       7.773   6.958  17.442  0.00  0.00    +0.000 A 
ATOM     10  N   UNL     1       8.218   6.827  18.732  0.00  0.00    +0.000 N 
ATOM     11  N   UNL     1       8.622   7.976  19.294  0.00  0.00    +0.000 NA
ATOM     12  H   UNL     1       8.296   5.982  19.288  0.00  0.00    +0.000 HD
BRANCH   7  16
ATOM     13  C   UNL     1       9.581  12.994  18.805  0.00  0.00    +0.000 A 
ATOM     14  C   UNL     1      10.111  12.020  19.653  0.00  0.00    +0.000 A 
ATOM     15  C   UNL     1       9.751  10.676  19.502  0.00  0.00    +0.000 A 
ATOM     16  C   UNL     1       8.834  10.297  18.516  0.00  0.00    +0.000 A 
ATOM     17  C   UNL     1       8.284  11.286  17.688  0.00  0.00    +0.000 A 
ATOM     18  C   UNL     1       8.653  12.625  17.832  0.00  0.00    +0.000 A 
BRANCH  13  20
ATOM     19  C   UNL     1       9.173  15.045  19.892  0.00  0.00    +0.000 C 
ATOM     20  O   UNL     1      10.005  14.275  19.030  0.00  0.00    +0.000 OA
ENDBRANCH  13  20
ENDBRANCH   7  16
ENDBRANCH   1   9
BRANCH   4  21
ATOM     21  C   UNL     1       3.205   6.075  17.968  0.00  0.00    +0.000 C 
BRANCH  21  22
ATOM     22  C   UNL     1       2.293   4.999  18.543  0.00  0.00    +0.000 A 
ATOM     23  C   UNL     1       1.399   4.291  17.726  0.00  0.00    +0.000 A 
ATOM     24  C   UNL     1       0.696   3.195  18.226  0.00  0.00    +0.000 A 
ATOM     25  C   UNL     1       0.887   2.775  19.540  0.00  0.00    +0.000 A 
ATOM     26  C   UNL     1       1.756   3.478  20.385  0.00  0.00    +0.000 A 
ATOM     27  C   UNL     1       2.415   4.613  19.889  0.00  0.00    +0.000 A 
BRANCH  26  28
ATOM     28  C   UNL     1       2.051   2.999  21.786  0.00  0.00    +0.000 C 
ATOM     29  F   UNL     1       3.059   2.087  21.859  0.00  0.00    +0.000 F 
ATOM     30  F   UNL     1       2.406   4.021  22.616  0.00  0.00    +0.000 F 
ATOM     31  F   UNL     1       0.971   2.409  22.372  0.00  0.00    +0.000 F 
ENDBRANCH  26  28
ENDBRANCH  21  22
ENDBRANCH   4  21
TORSDOF 6
ENDMDL
MODEL 3
REMARK VINA RESULT:      -8.7      4.798      7.030
REMARK  Name = 
REMARK  7 active torsions:
REMARK  status: ('A' for Active; 'I' for Inactive)
REMARK    1  A    between atoms: C_1  and  O_2
REMARK    2  A    between atoms: O_2  and  C_3
REMARK    3  A    between atoms: C_6  and  C_7
REMARK    4  A    between atoms: C_9  and  C_10
REMARK    5  A    between atoms: N_13  and  C_14
REMARK    6  A    between atoms: C_14  and  C_15
REMARK    7  A    between atoms: C_19  and  C_20
REMARK                            x       y       z     vdW  Elec       q    Type
REMARK                         _______ _______ _______ _____ _____    ______ ____
ROOT
ATOM      1  C   UNL     1       1.380   3.843  20.867  0.00  0.00    +0.000 C 
ATOM      2  C   UNL     1       2.637   3.045  21.230  0.00  0.00    +0.000 C 
ATOM      3  C   UNL     1       3.605   2.952  20.051  0.00  0.00    +0.000 C 
ATOM      4  N   UNL     1       3.010   2.452  18.808  0.00  0.00    +0.000 NA
ATOM      5  C   UNL     1       1.707   3.040  18.476  0.00  0.00    +0.000 C 
ATOM      6  C   UNL     1       0.741   3.137  19.661  0.00  0.00    +0.000 C 
ENDROOT
BRANCH   1   9
ATOM      7  C   UNL     1       1.572   7.545  20.401  0.00  0.00    +0.000 A 
ATOM      8  C   UNL     1       0.871   6.428  20.923  0.00  0.00    +0.000 A 
ATOM      9  C   UNL     1       1.624   5.314  20.615  0.00  0.00    +0.000 A 
ATOM     10  N   UNL     1       2.740   5.820  20.000  0.00  0.00    +0.000 N 
ATOM     11  N   UNL     1       2.736   7.154  19.865  0.00  0.00    +0.000 NA
ATOM     12  H   UNL     1       3.536   5.315  19.626  0.00  0.00    +0.000 HD
BRANCH   7  16
ATOM     13  C   UNL     1       0.327  11.634  20.358  0.00  0.00    +0.000 A 
ATOM     14  C   UNL     1       0.220  10.882  21.529  0.00  0.00    +0.000 A 
ATOM     15  C   UNL     1       0.632   9.545  21.554  0.00  0.00    +0.000 A 
ATOM     16  C   UNL     1       1.132   8.938  20.396  0.00  0.00    +0.000 A 
ATOM     17  C   UNL     1       1.209   9.692  19.217  0.00  0.00    +0.000 A 
ATOM     18  C   UNL     1       0.808  11.030  19.197  0.00  0.00    +0.000 A 
BRANCH  13  20
ATOM     19  C   UNL     1      -1.411  13.175  19.957  0.00  0.00    +0.000 C 
ATOM     20  O   UNL     1      -0.094  12.933  20.443  0.00  0.00    +0.000 OA
ENDBRANCH  13  20
ENDBRANCH   7  16
ENDBRANCH   1   9
BRANCH   4  21
ATOM     21  C   UNL     1       3.957   2.524  17.664  0.00  0.00    +0.000 C 
BRANCH  21  22
ATOM     22  C   UNL     1       4.648   3.867  17.462  0.00  0.00    +0.000 A 
ATOM     23  C   UNL     1       4.014   4.916  16.780  0.00  0.00    +0.000 A 
ATOM     24  C   UNL     1       4.582   6.189  16.750  0.00  0.00    +0.000 A 
ATOM     25  C   UNL     1       5.778   6.443  17.415  0.00  0.00    +0.000 A 
ATOM     26  C   UNL     1       6.445   5.408  18.086  0.00  0.00    +0.000 A 
ATOM     27  C   UNL     1       5.894   4.118  18.062  0.00  0.00    +0.000 A 
BRANCH  26  28
ATOM     28  C   UNL     1       7.697   5.668  18.888  0.00  0.00    +0.000 C 
ATOM     29  F   UNL     1       7.498   5.689  20.235  0.00  0.00    +0.000 F 
ATOM     30  F   UNL     1       8.658   4.727  18.664  0.00  0.00    +0.000 F 
ATOM     31  F   UNL     1       8.275   6.863  18.578  0.00  0.00    +0.000 F 
ENDBRANCH  26  28
ENDBRANCH  21  22
ENDBRANCH   4  21
TORSDOF 6
ENDMDL
MODEL 4
REMARK VINA RESULT:      -8.7      4.746      6.987
REMARK  Name = 
REMARK  7 active torsions:
REMARK  status: ('A' for Active; 'I' for Inactive)
REMARK    1  A    between atoms: C_1  and  O_2
REMARK    2  A    between atoms: O_2  and  C_3
REMARK    3  A    between atoms: C_6  and  C_7
REMARK    4  A    between atoms: C_9  and  C_10
REMARK    5  A    between atoms: N_13  and  C_14
REMARK    6  A    between atoms: C_14  and  C_15
REMARK    7  A    between atoms: C_19  and  C_20
REMARK                            x       y       z     vdW  Elec       q    Type
REMARK                         _______ _______ _______ _____ _____    ______ ____
ROOT
ATOM      1  C   UNL     1       1.351   3.782  20.834  0.00  0.00    +0.000 C 
ATOM      2  C   UNL     1       2.604   2.981  21.205  0.00  0.00    +0.000 C 
ATOM      3  C   UNL     1       3.591   2.911  20.040  0.00  0.00    +0.000 C 
ATOM      4  N   UNL     1       3.017   2.429  18.780  0.00  0.00    +0.000 NA
ATOM      5  C   UNL     1       1.718   3.019  18.436  0.00  0.00    +0.000 C 
ATOM      6  C   UNL     1       0.733   3.094  19.607  0.00  0.00    +0.000 C 
ENDROOT
BRANCH   1   9
ATOM      7  C   UNL     1       1.543   7.492  20.439  0.00  0.00    +0.000 A 
ATOM      8  C   UNL     1       0.843   6.366  20.940  0.00  0.00    +0.000 A 
ATOM      9  C   UNL     1       1.595   5.257  20.610  0.00  0.00    +0.000 A 
ATOM     10  N   UNL     1       2.710   5.775  20.003  0.00  0.00    +0.000 N 
ATOM     11  N   UNL     1       2.706   7.112  19.893  0.00  0.00    +0.000 NA
ATOM     12  H   UNL     1       3.505   5.277  19.618  0.00  0.00    +0.000 HD
BRANCH   7  16
ATOM     13  C   UNL     1       0.217  11.554  20.534  0.00  0.00    +0.000 A 
ATOM     14  C   UNL     1       0.731  11.014  19.355  0.00  0.00    +0.000 A 
ATOM     15  C   UNL     1       1.160   9.683  19.312  0.00  0.00    +0.000 A 
ATOM     16  C   UNL     1       1.104   8.885  20.461  0.00  0.00    +0.000 A 
ATOM     17  C   UNL     1       0.613   9.446  21.649  0.00  0.00    +0.000 A 
ATOM     18  C   UNL     1       0.174  10.771  21.686  0.00  0.00    +0.000 A 
BRANCH  13  20
ATOM     19  C   UNL     1       0.825  13.820  20.770  0.00  0.00    +0.000 C 
ATOM     20  O   UNL     1      -0.184  12.861  20.466  0.00  0.00    +0.000 OA
ENDBRANCH  13  20
ENDBRANCH   7  16
ENDBRANCH   1   9
BRANCH   4  21
ATOM     21  C   UNL     1       3.983   2.522  17.653  0.00  0.00    +0.000 C 
BRANCH  21  22
ATOM     22  C   UNL     1       4.656   3.876  17.469  0.00  0.00    +0.000 A 
ATOM     23  C   UNL     1       4.001   4.931  16.815  0.00  0.00    +0.000 A 
ATOM     24  C   UNL     1       4.554   6.211  16.804  0.00  0.00    +0.000 A 
ATOM     25  C   UNL     1       5.755   6.466  17.460  0.00  0.00    +0.000 A 
ATOM     26  C   UNL     1       6.442   5.426  18.102  0.00  0.00    +0.000 A 
ATOM     27  C   UNL     1       5.906   4.131  18.059  0.00  0.00    +0.000 A 
BRANCH  26  28
ATOM     28  C   UNL     1       7.700   5.685  18.895  0.00  0.00    +0.000 C 
ATOM     29  F   UNL     1       8.305   6.869  18.604  0.00  0.00    +0.000 F 
ATOM     30  F   UNL     1       7.469   5.700  20.239  0.00  0.00    +0.000 F 
ATOM     31  F   UNL     1       8.646   4.724  18.697  0.00  0.00    +0.000 F 
ENDBRANCH  26  28
ENDBRANCH  21  22
ENDBRANCH   4  21
TORSDOF 6
ENDMDL
MODEL 5
REMARK VINA RESULT:      -8.6      4.683      7.178
REMARK  Name = 
REMARK  7 active torsions:
REMARK  status: ('A' for Active; 'I' for Inactive)
REMARK    1  A    between atoms: C_1  and  O_2
REMARK    2  A    between atoms: O_2  and  C_3
REMARK    3  A    between atoms: C_6  and  C_7
REMARK    4  A    between atoms: C_9  and  C_10
REMARK    5  A    between atoms: N_13  and  C_14
REMARK    6  A    between atoms: C_14  and  C_15
REMARK    7  A    between atoms: C_19  and  C_20
REMARK                            x       y       z     vdW  Elec       q    Type
REMARK                         _______ _______ _______ _____ _____    ______ ____
ROOT
ATOM      1  C   UNL     1       1.912   3.431  20.067  0.00  0.00    +0.000 C 
ATOM      2  C   UNL     1       3.255   2.733  20.305  0.00  0.00    +0.000 C 
ATOM      3  C   UNL     1       4.217   2.950  19.137  0.00  0.00    +0.000 C 
ATOM      4  N   UNL     1       3.672   2.599  17.822  0.00  0.00    +0.000 NA
ATOM      5  C   UNL     1       2.307   3.082  17.579  0.00  0.00    +0.000 C 
ATOM      6  C   UNL     1       1.347   2.868  18.753  0.00  0.00    +0.000 C 
ENDROOT
BRANCH   1   9
ATOM      7  C   UNL     1       1.734   7.154  20.336  0.00  0.00    +0.000 A 
ATOM      8  C   UNL     1       1.278   5.888  20.782  0.00  0.00    +0.000 A 
ATOM      9  C   UNL     1       1.984   4.942  20.067  0.00  0.00    +0.000 A 
ATOM     10  N   UNL     1       2.850   5.676  19.299  0.00  0.00    +0.000 N 
ATOM     11  N   UNL     1       2.725   7.004  19.446  0.00  0.00    +0.000 NA
ATOM     12  H   UNL     1       3.540   5.342  18.635  0.00  0.00    +0.000 HD
BRANCH   7  16
ATOM     13  C   UNL     1       0.212  10.965  21.528  0.00  0.00    +0.000 A 
ATOM     14  C   UNL     1       0.457  10.701  20.180  0.00  0.00    +0.000 A 
ATOM     15  C   UNL     1       0.948   9.452  19.780  0.00  0.00    +0.000 A 
ATOM     16  C   UNL     1       1.225   8.464  20.731  0.00  0.00    +0.000 A 
ATOM     17  C   UNL     1       1.004   8.749  22.086  0.00  0.00    +0.000 A 
ATOM     18  C   UNL     1       0.502   9.991  22.482  0.00  0.00    +0.000 A 
BRANCH  13  20
ATOM     19  C   UNL     1      -1.304  12.249  22.797  0.00  0.00    +0.000 C 
ATOM     20  O   UNL     1      -0.277  12.212  21.811  0.00  0.00    +0.000 OA
ENDBRANCH  13  20
ENDBRANCH   7  16
ENDBRANCH   1   9
BRANCH   4  21
ATOM     21  C   UNL     1       4.594   2.970  16.716  0.00  0.00    +0.000 C 
BRANCH  21  22
ATOM     22  C   UNL     1       5.245   4.343  16.829  0.00  0.00    +0.000 A 
ATOM     23  C   UNL     1       4.686   5.466  16.202  0.00  0.00    +0.000 A 
ATOM     24  C   UNL     1       5.189   6.743  16.452  0.00  0.00    +0.000 A 
ATOM     25  C   UNL     1       6.242   6.923  17.345  0.00  0.00    +0.000 A 
ATOM     26  C   UNL     1       6.834   5.816  17.970  0.00  0.00    +0.000 A 
ATOM     27  C   UNL     1       6.357   4.532  17.667  0.00  0.00    +0.000 A 
BRANCH  26  28
ATOM     28  C   UNL     1       7.917   5.983  19.007  0.00  0.00    +0.000 C 
ATOM     29  F   UNL     1       8.646   7.125  18.868  0.00  0.00    +0.000 F 
ATOM     30  F   UNL     1       7.417   6.008  20.276  0.00  0.00    +0.000 F 
ATOM     31  F   UNL     1       8.817   4.960  18.988  0.00  0.00    +0.000 F 
ENDBRANCH  26  28
ENDBRANCH  21  22
ENDBRANCH   4  21
TORSDOF 6
ENDMDL
MODEL 6
REMARK VINA RESULT:      -8.5      2.473      3.102
REMARK  Name = 
REMARK  7 active torsions:
REMARK  status: ('A' for Active; 'I' for Inactive)
REMARK    1  A    between atoms: C_1  and  O_2
REMARK    2  A    between atoms: O_2  and  C_3
REMARK    3  A    between atoms: C_6  and  C_7
REMARK    4  A    between atoms: C_9  and  C_10
REMARK    5  A    between atoms: N_13  and  C_14
REMARK    6  A    between atoms: C_14  and  C_15
REMARK    7  A    between atoms: C_19  and  C_20
REMARK                            x       y       z     vdW  Elec       q    Type
REMARK                         _______ _______ _______ _____ _____    ______ ____
ROOT
ATOM      1  C   UNL     1       7.180   5.060  18.184  0.00  0.00    +0.000 C 
ATOM      2  C   UNL     1       6.534   4.317  17.010  0.00  0.00    +0.000 C 
ATOM      3  C   UNL     1       5.084   4.751  16.799  0.00  0.00    +0.000 C 
ATOM      4  N   UNL     1       4.240   4.671  17.996  0.00  0.00    +0.000 NA
ATOM      5  C   UNL     1       4.860   5.203  19.215  0.00  0.00    +0.000 C 
ATOM      6  C   UNL     1       6.315   4.771  19.421  0.00  0.00    +0.000 C 
ENDROOT
BRANCH   1   9
ATOM      7  C   UNL     1       7.959   8.707  17.959  0.00  0.00    +0.000 A 
ATOM      8  C   UNL     1       8.242   7.446  18.541  0.00  0.00    +0.000 A 
ATOM      9  C   UNL     1       7.384   6.540  17.951  0.00  0.00    +0.000 A 
ATOM     10  N   UNL     1       6.697   7.280  17.024  0.00  0.00    +0.000 N 
ATOM     11  N   UNL     1       7.027   8.580  17.004  0.00  0.00    +0.000 NA
ATOM     12  H   UNL     1       5.973   6.972  16.384  0.00  0.00    +0.000 HD
BRANCH   7  16
ATOM     13  C   UNL     1       9.681  12.488  18.963  0.00  0.00    +0.000 A 
ATOM     14  C   UNL     1       9.956  11.364  19.745  0.00  0.00    +0.000 A 
ATOM     15  C   UNL     1       9.403  10.121  19.418  0.00  0.00    +0.000 A 
ATOM     16  C   UNL     1       8.544   9.996  18.320  0.00  0.00    +0.000 A 
ATOM     17  C   UNL     1       8.250  11.136  17.559  0.00  0.00    +0.000 A 
ATOM     18  C   UNL     1       8.813  12.374  17.879  0.00  0.00    +0.000 A 
BRANCH  13  20
ATOM     19  C   UNL     1       9.399  14.627  19.915  0.00  0.00    +0.000 C 
ATOM     20  O   UNL     1      10.279  13.652  19.363  0.00  0.00    +0.000 OA
ENDBRANCH  13  20
ENDBRANCH   7  16
ENDBRANCH   1   9
BRANCH   4  21
ATOM     21  C   UNL     1       2.888   5.244  17.768  0.00  0.00    +0.000 C 
BRANCH  21  22
ATOM     22  C   UNL     1       2.687   6.677  18.245  0.00  0.00    +0.000 A 
ATOM     23  C   UNL     1       2.961   7.768  17.406  0.00  0.00    +0.000 A 
ATOM     24  C   UNL     1       2.612   9.063  17.790  0.00  0.00    +0.000 A 
ATOM     25  C   UNL     1       1.968   9.289  19.003  0.00  0.00    +0.000 A 
ATOM     26  C   UNL     1       1.702   8.221  19.871  0.00  0.00    +0.000 A 
ATOM     27  C   UNL     1       2.109   6.930  19.501  0.00  0.00    +0.000 A 
BRANCH  26  28
ATOM     28  C   UNL     1       0.930   8.420  21.152  0.00  0.00    +0.000 C 
ATOM     29  F   UNL     1       0.155   7.357  21.503  0.00  0.00    +0.000 F 
ATOM     30  F   UNL     1       1.749   8.657  22.216  0.00  0.00    +0.000 F 
ATOM     31  F   UNL     1       0.089   9.491  21.091  0.00  0.00    +0.000 F 
ENDBRANCH  26  28
ENDBRANCH  21  22
ENDBRANCH   4  21
TORSDOF 6
ENDMDL
MODEL 7
REMARK VINA RESULT:      -8.4      3.126      3.844
REMARK  Name = 
REMARK  7 active torsions:
REMARK  status: ('A' for Active; 'I' for Inactive)
REMARK    1  A    between atoms: C_1  and  O_2
REMARK    2  A    between atoms: O_2  and  C_3
REMARK    3  A    between atoms: C_6  and  C_7
REMARK    4  A    between atoms: C_9  and  C_10
REMARK    5  A    between atoms: N_13  and  C_14
REMARK    6  A    between atoms: C_14  and  C_15
REMARK    7  A    between atoms: C_19  and  C_20
REMARK                            x       y       z     vdW  Elec       q    Type
REMARK                         _______ _______ _______ _____ _____    ______ ____
ROOT
ATOM      1  C   UNL     1       6.484   6.050  16.631  0.00  0.00    +0.000 C 
ATOM      2  C   UNL     1       5.140   6.595  16.135  0.00  0.00    +0.000 C 
ATOM      3  C   UNL     1       4.162   6.816  17.288  0.00  0.00    +0.000 C 
ATOM      4  N   UNL     1       3.966   5.650  18.156  0.00  0.00    +0.000 NA
ATOM      5  C   UNL     1       5.202   4.957  18.536  0.00  0.00    +0.000 C 
ATOM      6  C   UNL     1       6.182   4.742  17.378  0.00  0.00    +0.000 C 
ENDROOT
BRANCH   1   9
ATOM      7  C   UNL     1       8.348   8.766  18.393  0.00  0.00    +0.000 A 
ATOM      8  C   UNL     1       7.443   8.392  17.368  0.00  0.00    +0.000 A 
ATOM      9  C   UNL     1       7.284   7.024  17.465  0.00  0.00    +0.000 A 
ATOM     10  N   UNL     1       8.033   6.675  18.559  0.00  0.00    +0.000 N 
ATOM     11  N   UNL     1       8.676   7.701  19.136  0.00  0.00    +0.000 NA
ATOM     12  H   UNL     1       8.172   5.753  18.958  0.00  0.00    +0.000 HD
BRANCH   7  16
ATOM     13  C   UNL     1       9.945  12.655  19.166  0.00  0.00    +0.000 A 
ATOM     14  C   UNL     1       9.250  12.407  17.981  0.00  0.00    +0.000 A 
ATOM     15  C   UNL     1       8.717  11.139  17.723  0.00  0.00    +0.000 A 
ATOM     16  C   UNL     1       8.899  10.097  18.640  0.00  0.00    +0.000 A 
ATOM     17  C   UNL     1       9.624  10.347  19.813  0.00  0.00    +0.000 A 
ATOM     18  C   UNL     1      10.145  11.617  20.074  0.00  0.00    +0.000 A 
BRANCH  13  20
ATOM     19  C   UNL     1      10.762  14.602  18.116  0.00  0.00    +0.000 C 
ATOM     20  O   UNL     1      10.416  13.930  19.324  0.00  0.00    +0.000 OA
ENDBRANCH  13  20
ENDBRANCH   7  16
ENDBRANCH   1   9
BRANCH   4  21
ATOM     21  C   UNL     1       3.124   5.969  19.340  0.00  0.00    +0.000 C 
BRANCH  21  22
ATOM     22  C   UNL     1       2.406   7.312  19.299  0.00  0.00    +0.000 A 
ATOM     23  C   UNL     1       2.253   8.019  18.097  0.00  0.00    +0.000 A 
ATOM     24  C   UNL     1       1.449   9.157  18.039  0.00  0.00    +0.000 A 
ATOM     25  C   UNL     1       0.769   9.596  19.172  0.00  0.00    +0.000 A 
ATOM     26  C   UNL     1       0.921   8.923  20.392  0.00  0.00    +0.000 A 
ATOM     27  C   UNL     1       1.777   7.813  20.451  0.00  0.00    +0.000 A 
BRANCH  26  28
ATOM     28  C   UNL     1       0.131   9.321  21.615  0.00  0.00    +0.000 C 
ATOM     29  F   UNL     1      -0.590  10.465  21.461  0.00  0.00    +0.000 F 
ATOM     30  F   UNL     1      -0.761   8.360  21.988  0.00  0.00    +0.000 F 
ATOM     31  F   UNL     1       0.927   9.524  22.703  0.00  0.00    +0.000 F 
ENDBRANCH  26  28
ENDBRANCH  21  22
ENDBRANCH   4  21
TORSDOF 6
ENDMDL
MODEL 8
REMARK VINA RESULT:      -8.4      2.965      3.533
REMARK  Name = 
REMARK  7 active torsions:
REMARK  status: ('A' for Active; 'I' for Inactive)
REMARK    1  A    between atoms: C_1  and  O_2
REMARK    2  A    between atoms: O_2  and  C_3
REMARK    3  A    between atoms: C_6  and  C_7
REMARK    4  A    between atoms: C_9  and  C_10
REMARK    5  A    between atoms: N_13  and  C_14
REMARK    6  A    between atoms: C_14  and  C_15
REMARK    7  A    between atoms: C_19  and  C_20
REMARK                            x       y       z     vdW  Elec       q    Type
REMARK                         _______ _______ _______ _____ _____    ______ ____
ROOT
ATOM      1  C   UNL     1       7.699   5.423  18.500  0.00  0.00    +0.000 C 
ATOM      2  C   UNL     1       7.294   4.590  17.278  0.00  0.00    +0.000 C 
ATOM      3  C   UNL     1       5.885   4.939  16.801  0.00  0.00    +0.000 C 
ATOM      4  N   UNL     1       4.854   4.875  17.842  0.00  0.00    +0.000 NA
ATOM      5  C   UNL     1       5.233   5.498  19.116  0.00  0.00    +0.000 C 
ATOM      6  C   UNL     1       6.649   5.151  19.587  0.00  0.00    +0.000 C 
ENDROOT
BRANCH   1   9
ATOM      7  C   UNL     1       8.364   9.086  18.192  0.00  0.00    +0.000 A 
ATOM      8  C   UNL     1       8.613   7.867  18.871  0.00  0.00    +0.000 A 
ATOM      9  C   UNL     1       7.877   6.898  18.220  0.00  0.00    +0.000 A 
ATOM     10  N   UNL     1       7.295   7.564  17.172  0.00  0.00    +0.000 N 
ATOM     11  N   UNL     1       7.576   8.875  17.129  0.00  0.00    +0.000 NA
ATOM     12  H   UNL     1       6.676   7.195  16.458  0.00  0.00    +0.000 HD
BRANCH   7  16
ATOM     13  C   UNL     1       9.791  12.982  19.219  0.00  0.00    +0.000 A 
ATOM     14  C   UNL     1      10.037  11.901  20.068  0.00  0.00    +0.000 A 
ATOM     15  C   UNL     1       9.580  10.620  19.735  0.00  0.00    +0.000 A 
ATOM     16  C   UNL     1       8.847  10.415  18.560  0.00  0.00    +0.000 A 
ATOM     17  C   UNL     1       8.579  11.512  17.730  0.00  0.00    +0.000 A 
ATOM     18  C   UNL     1       9.046  12.787  18.058  0.00  0.00    +0.000 A 
BRANCH  13  20
ATOM     19  C   UNL     1       9.415  14.953  20.457  0.00  0.00    +0.000 C 
ATOM     20  O   UNL     1      10.289  14.188  19.632  0.00  0.00    +0.000 OA
ENDBRANCH  13  20
ENDBRANCH   7  16
ENDBRANCH   1   9
BRANCH   4  21
ATOM     21  C   UNL     1       3.537   5.366  17.357  0.00  0.00    +0.000 C 
BRANCH  21  22
ATOM     22  C   UNL     1       2.730   6.191  18.352  0.00  0.00    +0.000 A 
ATOM     23  C   UNL     1       2.498   5.731  19.657  0.00  0.00    +0.000 A 
ATOM     24  C   UNL     1       1.910   6.565  20.609  0.00  0.00    +0.000 A 
ATOM     25  C   UNL     1       1.564   7.873  20.282  0.00  0.00    +0.000 A 
ATOM     26  C   UNL     1       1.764   8.351  18.980  0.00  0.00    +0.000 A 
ATOM     27  C   UNL     1       2.303   7.487  18.016  0.00  0.00    +0.000 A 
BRANCH  26  28
ATOM     28  C   UNL     1       1.481   9.789  18.616  0.00  0.00    +0.000 C 
ATOM     29  F   UNL     1       1.318  10.610  19.690  0.00  0.00    +0.000 F 
ATOM     30  F   UNL     1       2.481  10.338  17.869  0.00  0.00    +0.000 F 
ATOM     31  F   UNL     1       0.349   9.922  17.868  0.00  0.00    +0.000 F 
ENDBRANCH  26  28
ENDBRANCH  21  22
ENDBRANCH   4  21
TORSDOF 6
ENDMDL
MODEL 9
REMARK VINA RESULT:      -8.4      3.094      3.696
REMARK  Name = 
REMARK  7 active torsions:
REMARK  status: ('A' for Active; 'I' for Inactive)
REMARK    1  A    between atoms: C_1  and  O_2
REMARK    2  A    between atoms: O_2  and  C_3
REMARK    3  A    between atoms: C_6  and  C_7
REMARK    4  A    between atoms: C_9  and  C_10
REMARK    5  A    between atoms: N_13  and  C_14
REMARK    6  A    between atoms: C_14  and  C_15
REMARK    7  A    between atoms: C_19  and  C_20
REMARK                            x       y       z     vdW  Elec       q    Type
REMARK                         _______ _______ _______ _____ _____    ______ ____
ROOT
ATOM      1  C   UNL     1       6.521   5.980  16.588  0.00  0.00    +0.000 C 
ATOM      2  C   UNL     1       5.181   6.514  16.071  0.00  0.00    +0.000 C 
ATOM      3  C   UNL     1       4.183   6.726  17.209  0.00  0.00    +0.000 C 
ATOM      4  N   UNL     1       3.982   5.557  18.072  0.00  0.00    +0.000 NA
ATOM      5  C   UNL     1       5.218   4.873  18.470  0.00  0.00    +0.000 C 
ATOM      6  C   UNL     1       6.218   4.669  17.329  0.00  0.00    +0.000 C 
ENDROOT
BRANCH   1   9
ATOM      7  C   UNL     1       8.334   8.709  18.385  0.00  0.00    +0.000 A 
ATOM      8  C   UNL     1       7.449   8.328  17.345  0.00  0.00    +0.000 A 
ATOM      9  C   UNL     1       7.299   6.960  17.438  0.00  0.00    +0.000 A 
ATOM     10  N   UNL     1       8.032   6.615  18.544  0.00  0.00    +0.000 N 
ATOM     11  N   UNL     1       8.657   7.645  19.133  0.00  0.00    +0.000 NA
ATOM     12  H   UNL     1       8.171   5.693  18.944  0.00  0.00    +0.000 HD
BRANCH   7  16
ATOM     13  C   UNL     1       9.915  12.617  19.087  0.00  0.00    +0.000 A 
ATOM     14  C   UNL     1      10.152  11.592  20.004  0.00  0.00    +0.000 A 
ATOM     15  C   UNL     1       9.645  10.307  19.778  0.00  0.00    +0.000 A 
ATOM     16  C   UNL     1       8.870  10.043  18.642  0.00  0.00    +0.000 A 
ATOM     17  C   UNL     1       8.612  11.087  17.742  0.00  0.00    +0.000 A 
ATOM     18  C   UNL     1       9.130  12.365  17.964  0.00  0.00    +0.000 A 
BRANCH  13  20
ATOM     19  C   UNL     1      11.877  13.830  19.574  0.00  0.00    +0.000 C 
ATOM     20  O   UNL     1      10.463  13.832  19.398  0.00  0.00    +0.000 OA
ENDBRANCH  13  20
ENDBRANCH   7  16
ENDBRANCH   1   9
BRANCH   4  21
ATOM     21  C   UNL     1       3.119   5.867  19.242  0.00  0.00    +0.000 C 
BRANCH  21  22
ATOM     22  C   UNL     1       2.442   7.231  19.223  0.00  0.00    +0.000 A 
ATOM     23  C   UNL     1       2.283   7.947  18.026  0.00  0.00    +0.000 A 
ATOM     24  C   UNL     1       1.513   9.110  17.992  0.00  0.00    +0.000 A 
ATOM     25  C   UNL     1       0.874   9.566  19.141  0.00  0.00    +0.000 A 
ATOM     26  C   UNL     1       1.033   8.883  20.355  0.00  0.00    +0.000 A 
ATOM     27  C   UNL     1       1.856   7.748  20.391  0.00  0.00    +0.000 A 
BRANCH  26  28
ATOM     28  C   UNL     1       0.286   9.301  21.598  0.00  0.00    +0.000 C 
ATOM     29  F   UNL     1      -0.699   8.438  21.969  0.00  0.00    +0.000 F 
ATOM     30  F   UNL     1       1.109   9.421  22.679  0.00  0.00    +0.000 F 
ATOM     31  F   UNL     1      -0.315  10.517  21.458  0.00  0.00    +0.000 F 
ENDBRANCH  26  28
ENDBRANCH  21  22
ENDBRANCH   4  21
TORSDOF 6
ENDMDL
