MODEL 1
REMARK VINA RESULT:      -8.9      0.000      0.000
REMARK  Name = 
REMARK  12 active torsions:
REMARK  status: ('A' for Active; 'I' for Inactive)
REMARK    1  A    between atoms: C_1  and  O_2
REMARK    2  A    between atoms: O_2  and  C_3
REMARK    3  A    between atoms: C_7  and  C_8
REMARK    4  A    between atoms: C_8  and  N_9
REMARK    5  A    between atoms: C_10  and  C_12
REMARK    6  A    between atoms: C_14  and  C_15
REMARK    7  A    between atoms: N_20  and  C_21
REMARK    8  A    between atoms: C_24  and  C_25
REMARK    9  A    between atoms: C_25  and  N_26
REMARK   10  A    between atoms: C_27  and  C_29
REMARK   11  A    between atoms: C_29  and  C_30
REMARK   12  A    between atoms: C_29  and  N_31
REMARK                            x       y       z     vdW  Elec       q    Type
REMARK                         _______ _______ _______ _____ _____    ______ ____
ROOT
ATOM      1  C   UNL     1       2.931   5.595  18.566  0.00  0.00    +0.000 A 
ATOM      2  C   UNL     1       1.914   5.108  19.366  0.00  0.00    +0.000 A 
ATOM      3  C   UNL     1       2.074   3.702  19.388  0.00  0.00    +0.000 A 
ATOM      4  N   UNL     1       3.120   3.335  18.624  0.00  0.00    +0.000 NA
ATOM      5  N   UNL     1       3.714   4.498  18.239  0.00  0.00    +0.000 N 
ENDROOT
BRANCH   5   6
ATOM      6  C   UNL     1       5.005   4.489  17.616  0.00  0.00    +0.000 A 
ATOM      7  C   UNL     1       6.201   4.667  18.276  0.00  0.00    +0.000 A 
ATOM      8  S   UNL     1       7.533   4.663  17.206  0.00  0.00    +0.000 S 
ATOM      9  C   UNL     1       6.517   4.462  15.843  0.00  0.00    +0.000 A 
ATOM     10  C   UNL     1       5.196   4.274  16.216  0.00  0.00    +0.000 A 
BRANCH   9  11
ATOM     11  C   UNL     1       7.090   4.543  14.469  0.00  0.00    +0.000 C 
BRANCH  11  12
ATOM     12  N   UNL     1       6.318   3.727  13.569  0.00  0.00    +0.000 N 
ATOM     13  C   UNL     1       6.583   3.764  12.220  0.00  0.00    +0.000 C 
ATOM     14  O   UNL     1       7.476   4.457  11.734  0.00  0.00    +0.000 OA
ATOM     15  H   UNL     1       5.548   3.180  13.931  0.00  0.00    +0.000 HD
BRANCH  13  16
ATOM     16  C   UNL     1       5.671   2.870  11.361  0.00  0.00    +0.000 C 
ATOM     17  C   UNL     1       4.213   3.228  11.608  0.00  0.00    +0.000 C 
BRANCH  16  18
ATOM     18  N   UNL     1       5.910   1.454  11.700  0.00  0.00    +0.000 NA
ATOM     19  H   UNL     1       5.634   1.328  12.680  0.00  0.00    +0.000 HD
ATOM     20  H   UNL     1       6.920   1.300  11.719  0.00  0.00    +0.000 HD
ENDBRANCH  16  18
ENDBRANCH  13  16
ENDBRANCH  11  12
ENDBRANCH   9  11
ENDBRANCH   5   6
BRANCH   1  22
ATOM     21  N   UNL     1       2.190   7.847  18.450  0.00  0.00    +0.000 N 
ATOM     22  C   UNL     1       3.121   6.919  18.033  0.00  0.00    +0.000 C 
ATOM     23  O   UNL     1       4.017   7.213  17.249  0.00  0.00    +0.000 OA
ATOM     24  H   UNL     1       1.547   7.610  19.189  0.00  0.00    +0.000 HD
BRANCH  21  25
ATOM     25  C   UNL     1       2.254   9.223  18.013  0.00  0.00    +0.000 C 
BRANCH  25  30
ATOM     26  C   UNL     1      -1.374  10.400  18.044  0.00  0.00    +0.000 A 
ATOM     27  C   UNL     1      -1.302  11.454  18.956  0.00  0.00    +0.000 A 
ATOM     28  C   UNL     1      -0.097  11.767  19.586  0.00  0.00    +0.000 A 
ATOM     29  C   UNL     1       1.051  11.032  19.294  0.00  0.00    +0.000 A 
ATOM     30  C   UNL     1       1.003   9.983  18.366  0.00  0.00    +0.000 A 
ATOM     31  C   UNL     1      -0.225   9.657  17.763  0.00  0.00    +0.000 A 
BRANCH  26  33
ATOM     32  C   UNL     1      -2.754  10.511  16.108  0.00  0.00    +0.000 C 
ATOM     33  O   UNL     1      -2.610  10.209  17.489  0.00  0.00    +0.000 OA
ENDBRANCH  26  33
ENDBRANCH  25  30
ENDBRANCH  21  25
ENDBRANCH   1  22
BRANCH   3  34
ATOM     34  C   UNL     1       1.199   2.711  20.114  0.00  0.00    +0.000 C 
ATOM     35  F   UNL     1       1.643   1.435  19.935  0.00  0.00    +0.000 F 
ATOM     36  F   UNL     1       1.163   2.920  21.455  0.00  0.00    +0.000 F 
ATOM     37  F   UNL     1      -0.083   2.733  19.664  0.00  0.00    +0.000 F 
ENDBRANCH   3  34
TORSDOF 10
ENDMDL
MODEL 2
REMARK VINA RESULT:      -8.8      1.444      1.755
REMARK  Name = 
REMARK  12 active torsions:
REMARK  status: ('A' for Active; 'I' for Inactive)
REMARK    1  A    between atoms: C_1  and  O_2
REMARK    2  A    between atoms: O_2  and  C_3
REMARK    3  A    between atoms: C_7  and  C_8
REMARK    4  A    between atoms: C_8  and  N_9
REMARK    5  A    between atoms: C_10  and  C_12
REMARK    6  A    between atoms: C_14  and  C_15
REMARK    7  A    between atoms: N_20  and  C_21
REMARK    8  A    between atoms: C_24  and  C_25
REMARK    9  A    between atoms: C_25  and  N_26
REMARK   10  A    between atoms: C_27  and  C_29
REMARK   11  A    between atoms: C_29  and  C_30
REMARK   12  A    between atoms: C_29  and  N_31
REMARK                            x       y       z     vdW  Elec       q    Type
REMARK                         _______ _______ _______ _____ _____    ______ ____
ROOT
ATOM      1  C   UNL     1       2.919   5.624  18.602  0.00  0.00    +0.000 A 
ATOM      2  C   UNL     1       1.902   5.140  19.405  0.00  0.00    +0.000 A 
ATOM      3  C   UNL     1       2.035   3.732  19.396  0.00  0.00    +0.000 A 
ATOM      4  N   UNL     1       3.065   3.361  18.612  0.00  0.00    +0.000 NA
ATOM      5  N   UNL     1       3.677   4.520  18.244  0.00  0.00    +0.000 N 
ENDROOT
BRANCH   5   6
ATOM      6  C   UNL     1       4.960   4.499  17.606  0.00  0.00    +0.000 A 
ATOM      7  C   UNL     1       6.167   4.626  18.257  0.00  0.00    +0.000 A 
ATOM      8  S   UNL     1       7.487   4.624  17.172  0.00  0.00    +0.000 S 
ATOM      9  C   UNL     1       6.451   4.494  15.815  0.00  0.00    +0.000 A 
ATOM     10  C   UNL     1       5.130   4.326  16.198  0.00  0.00    +0.000 A 
BRANCH   9  11
ATOM     11  C   UNL     1       7.011   4.606  14.438  0.00  0.00    +0.000 C 
BRANCH  11  12
ATOM     12  N   UNL     1       6.278   3.751  13.542  0.00  0.00    +0.000 N 
ATOM     13  C   UNL     1       6.567   3.766  12.197  0.00  0.00    +0.000 C 
ATOM     14  O   UNL     1       7.450   4.472  11.713  0.00  0.00    +0.000 OA
ATOM     15  H   UNL     1       5.516   3.191  13.901  0.00  0.00    +0.000 HD
BRANCH  13  16
ATOM     16  C   UNL     1       5.696   2.829  11.341  0.00  0.00    +0.000 C 
ATOM     17  C   UNL     1       4.224   3.151  11.558  0.00  0.00    +0.000 C 
BRANCH  16  18
ATOM     18  N   UNL     1       5.969   1.428  11.712  0.00  0.00    +0.000 NA
ATOM     19  H   UNL     1       6.684   1.079  11.065  0.00  0.00    +0.000 HD
ATOM     20  H   UNL     1       5.145   0.872  11.473  0.00  0.00    +0.000 HD
ENDBRANCH  16  18
ENDBRANCH  13  16
ENDBRANCH  11  12
ENDBRANCH   9  11
ENDBRANCH   5   6
BRANCH   1  22
ATOM     21  N   UNL     1       2.019   7.774  18.152  0.00  0.00    +0.000 N 
ATOM     22  C   UNL     1       3.127   6.956  18.094  0.00  0.00    +0.000 C 
ATOM     23  O   UNL     1       4.190   7.341  17.619  0.00  0.00    +0.000 OA
ATOM     24  H   UNL     1       1.203   7.474  18.661  0.00  0.00    +0.000 HD
BRANCH  21  25
ATOM     25  C   UNL     1       2.074   9.144  17.693  0.00  0.00    +0.000 C 
BRANCH  25  30
ATOM     26  C   UNL     1       0.174  10.513  20.703  0.00  0.00    +0.000 A 
ATOM     27  C   UNL     1       0.380  11.885  20.544  0.00  0.00    +0.000 A 
ATOM     28  C   UNL     1       1.156  12.368  19.490  0.00  0.00    +0.000 A 
ATOM     29  C   UNL     1       1.720  11.479  18.577  0.00  0.00    +0.000 A 
ATOM     30  C   UNL     1       1.507  10.100  18.708  0.00  0.00    +0.000 A 
ATOM     31  C   UNL     1       0.751   9.624  19.793  0.00  0.00    +0.000 A 
BRANCH  26  33
ATOM     32  C   UNL     1       0.034   9.657  22.920  0.00  0.00    +0.000 C 
ATOM     33  O   UNL     1      -0.617  10.175  21.767  0.00  0.00    +0.000 OA
ENDBRANCH  26  33
ENDBRANCH  25  30
ENDBRANCH  21  25
ENDBRANCH   1  22
BRANCH   3  34
ATOM     34  C   UNL     1       1.150   2.742  20.111  0.00  0.00    +0.000 C 
ATOM     35  F   UNL     1       1.765   1.533  20.243  0.00  0.00    +0.000 F 
ATOM     36  F   UNL     1       0.816   3.141  21.365  0.00  0.00    +0.000 F 
ATOM     37  F   UNL     1      -0.008   2.509  19.439  0.00  0.00    +0.000 F 
ENDBRANCH   3  34
TORSDOF 10
ENDMDL
MODEL 3
REMARK VINA RESULT:      -8.8      1.150      1.866
REMARK  Name = 
REMARK  12 active torsions:
REMARK  status: ('A' for Active; 'I' for Inactive)
REMARK    1  A    between atoms: C_1  and  O_2
REMARK    2  A    between atoms: O_2  and  C_3
REMARK    3  A    between atoms: C_7  and  C_8
REMARK    4  A    between atoms: C_8  and  N_9
REMARK    5  A    between atoms: C_10  and  C_12
REMARK    6  A    between atoms: C_14  and  C_15
REMARK    7  A    between atoms: N_20  and  C_21
REMARK    8  A    between atoms: C_24  and  C_25
REMARK    9  A    between atoms: C_25  and  N_26
REMARK   10  A    between atoms: C_27  and  C_29
REMARK   11  A    between atoms: C_29  and  C_30
REMARK   12  A    between atoms: C_29  and  N_31
REMARK                            x       y       z     vdW  Elec       q    Type
REMARK                         _______ _______ _______ _____ _____    ______ ____
ROOT
ATOM      1  C   UNL     1       2.866   5.573  18.540  0.00  0.00    +0.000 A 
ATOM      2  C   UNL     1       1.845   5.048  19.310  0.00  0.00    +0.000 A 
ATOM      3  C   UNL     1       2.024   3.644  19.291  0.00  0.00    +0.000 A 
ATOM      4  N   UNL     1       3.085   3.315  18.530  0.00  0.00    +0.000 NA
ATOM      5  N   UNL     1       3.669   4.497  18.190  0.00  0.00    +0.000 N 
ENDROOT
BRANCH   5   6
ATOM      6  C   UNL     1       4.967   4.525  17.585  0.00  0.00    +0.000 A 
ATOM      7  C   UNL     1       6.145   4.776  18.255  0.00  0.00    +0.000 A 
ATOM      8  S   UNL     1       7.492   4.796  17.204  0.00  0.00    +0.000 S 
ATOM      9  C   UNL     1       6.505   4.507  15.834  0.00  0.00    +0.000 A 
ATOM     10  C   UNL     1       5.189   4.274  16.196  0.00  0.00    +0.000 A 
BRANCH   9  11
ATOM     11  C   UNL     1       7.095   4.569  14.467  0.00  0.00    +0.000 C 
BRANCH  11  12
ATOM     12  N   UNL     1       6.336   3.737  13.570  0.00  0.00    +0.000 N 
ATOM     13  C   UNL     1       6.610   3.761  12.222  0.00  0.00    +0.000 C 
ATOM     14  O   UNL     1       7.502   4.456  11.735  0.00  0.00    +0.000 OA
ATOM     15  H   UNL     1       5.568   3.188  13.931  0.00  0.00    +0.000 HD
BRANCH  13  16
ATOM     16  C   UNL     1       5.712   2.851  11.366  0.00  0.00    +0.000 C 
ATOM     17  C   UNL     1       4.249   3.189  11.611  0.00  0.00    +0.000 C 
BRANCH  16  18
ATOM     18  N   UNL     1       5.971   1.440  11.711  0.00  0.00    +0.000 NA
ATOM     19  H   UNL     1       5.830   0.890  10.857  0.00  0.00    +0.000 HD
ATOM     20  H   UNL     1       5.217   1.121  12.322  0.00  0.00    +0.000 HD
ENDBRANCH  16  18
ENDBRANCH  13  16
ENDBRANCH  11  12
ENDBRANCH   9  11
ENDBRANCH   5   6
BRANCH   1  22
ATOM     21  N   UNL     1       2.018   7.782  18.359  0.00  0.00    +0.000 N 
ATOM     22  C   UNL     1       3.045   6.916  18.051  0.00  0.00    +0.000 C 
ATOM     23  O   UNL     1       4.013   7.273  17.389  0.00  0.00    +0.000 OA
ATOM     24  H   UNL     1       1.302   7.497  19.009  0.00  0.00    +0.000 HD
BRANCH  21  25
ATOM     25  C   UNL     1       2.057   9.168  17.950  0.00  0.00    +0.000 C 
BRANCH  25  30
ATOM     26  C   UNL     1       0.285  11.324  20.550  0.00  0.00    +0.000 A 
ATOM     27  C   UNL     1      -0.984  11.439  19.977  0.00  0.00    +0.000 A 
ATOM     28  C   UNL     1      -1.261  10.853  18.742  0.00  0.00    +0.000 A 
ATOM     29  C   UNL     1      -0.270  10.133  18.076  0.00  0.00    +0.000 A 
ATOM     30  C   UNL     1       1.003   9.989  18.645  0.00  0.00    +0.000 A 
ATOM     31  C   UNL     1       1.279  10.612  19.874  0.00  0.00    +0.000 A 
BRANCH  26  33
ATOM     32  C   UNL     1      -0.530  12.938  22.098  0.00  0.00    +0.000 C 
ATOM     33  O   UNL     1       0.418  11.932  21.768  0.00  0.00    +0.000 OA
ENDBRANCH  26  33
ENDBRANCH  25  30
ENDBRANCH  21  25
ENDBRANCH   1  22
BRANCH   3  34
ATOM     34  C   UNL     1       1.153   2.620  19.973  0.00  0.00    +0.000 C 
ATOM     35  F   UNL     1       0.000   2.408  19.277  0.00  0.00    +0.000 F 
ATOM     36  F   UNL     1       1.755   1.409  20.095  0.00  0.00    +0.000 F 
ATOM     37  F   UNL     1       0.777   3.013  21.219  0.00  0.00    +0.000 F 
ENDBRANCH   3  34
TORSDOF 10
ENDMDL
MODEL 4
REMARK VINA RESULT:      -8.7      1.460      2.041
REMARK  Name = 
REMARK  12 active torsions:
REMARK  status: ('A' for Active; 'I' for Inactive)
REMARK    1  A    between atoms: C_1  and  O_2
REMARK    2  A    between atoms: O_2  and  C_3
REMARK    3  A    between atoms: C_7  and  C_8
REMARK    4  A    between atoms: C_8  and  N_9
REMARK    5  A    between atoms: C_10  and  C_12
REMARK    6  A    between atoms: C_14  and  C_15
REMARK    7  A    between atoms: N_20  and  C_21
REMARK    8  A    between atoms: C_24  and  C_25
REMARK    9  A    between atoms: C_25  and  N_26
REMARK   10  A    between atoms: C_27  and  C_29
REMARK   11  A    between atoms: C_29  and  C_30
REMARK   12  A    between atoms: C_29  and  N_31
REMARK                            x       y       z     vdW  Elec       q    Type
REMARK                         _______ _______ _______ _____ _____    ______ ____
ROOT
ATOM      1  C   UNL     1       3.058   5.623  19.005  0.00  0.00    +0.000 A 
ATOM      2  C   UNL     1       2.190   5.092  19.941  0.00  0.00    +0.000 A 
ATOM      3  C   UNL     1       2.492   3.712  20.015  0.00  0.00    +0.000 A 
ATOM      4  N   UNL     1       3.478   3.399  19.154  0.00  0.00    +0.000 NA
ATOM      5  N   UNL     1       3.907   4.586  18.645  0.00  0.00    +0.000 N 
ENDROOT
BRANCH   5   6
ATOM      6  C   UNL     1       5.115   4.661  17.878  0.00  0.00    +0.000 A 
ATOM      7  C   UNL     1       6.348   5.016  18.381  0.00  0.00    +0.000 A 
ATOM      8  S   UNL     1       7.549   5.063  17.166  0.00  0.00    +0.000 S 
ATOM      9  C   UNL     1       6.420   4.647  15.947  0.00  0.00    +0.000 A 
ATOM     10  C   UNL     1       5.177   4.353  16.484  0.00  0.00    +0.000 A 
BRANCH   9  11
ATOM     11  C   UNL     1       6.828   4.675  14.514  0.00  0.00    +0.000 C 
BRANCH  11  12
ATOM     12  N   UNL     1       6.189   3.598  13.803  0.00  0.00    +0.000 N 
ATOM     13  C   UNL     1       6.425   3.435  12.458  0.00  0.00    +0.000 C 
ATOM     14  O   UNL     1       7.185   4.164  11.821  0.00  0.00    +0.000 OA
ATOM     15  H   UNL     1       5.524   3.009  14.287  0.00  0.00    +0.000 HD
BRANCH  13  16
ATOM     16  C   UNL     1       5.661   2.268  11.807  0.00  0.00    +0.000 C 
ATOM     17  C   UNL     1       6.562   1.553  10.811  0.00  0.00    +0.000 C 
BRANCH  16  18
ATOM     18  N   UNL     1       4.460   2.786  11.126  0.00  0.00    +0.000 NA
ATOM     19  H   UNL     1       4.027   3.469  11.756  0.00  0.00    +0.000 HD
ATOM     20  H   UNL     1       3.770   2.033  11.087  0.00  0.00    +0.000 HD
ENDBRANCH  16  18
ENDBRANCH  13  16
ENDBRANCH  11  12
ENDBRANCH   9  11
ENDBRANCH   5   6
BRANCH   1  22
ATOM     21  N   UNL     1       1.875   7.625  18.531  0.00  0.00    +0.000 N 
ATOM     22  C   UNL     1       3.054   6.924  18.387  0.00  0.00    +0.000 C 
ATOM     23  O   UNL     1       4.002   7.378  17.757  0.00  0.00    +0.000 OA
ATOM     24  H   UNL     1       1.164   7.283  19.158  0.00  0.00    +0.000 HD
BRANCH  21  25
ATOM     25  C   UNL     1       1.720   8.952  17.978  0.00  0.00    +0.000 C 
BRANCH  25  30
ATOM     26  C   UNL     1       0.034  10.685  20.929  0.00  0.00    +0.000 A 
ATOM     27  C   UNL     1      -1.068  11.267  20.299  0.00  0.00    +0.000 A 
ATOM     28  C   UNL     1      -1.252  11.131  18.923  0.00  0.00    +0.000 A 
ATOM     29  C   UNL     1      -0.339  10.397  18.168  0.00  0.00    +0.000 A 
ATOM     30  C   UNL     1       0.762   9.788  18.786  0.00  0.00    +0.000 A 
ATOM     31  C   UNL     1       0.954   9.959  20.167  0.00  0.00    +0.000 A 
BRANCH  26  33
ATOM     32  C   UNL     1      -0.173   9.757  23.111  0.00  0.00    +0.000 C 
ATOM     33  O   UNL     1       0.088  10.881  22.281  0.00  0.00    +0.000 OA
ENDBRANCH  26  33
ENDBRANCH  25  30
ENDBRANCH  21  25
ENDBRANCH   1  22
BRANCH   3  34
ATOM     34  C   UNL     1       1.807   2.690  20.886  0.00  0.00    +0.000 C 
ATOM     35  F   UNL     1       1.494   1.567  20.179  0.00  0.00    +0.000 F 
ATOM     36  F   UNL     1       2.574   2.283  21.930  0.00  0.00    +0.000 F 
ATOM     37  F   UNL     1       0.637   3.153  21.399  0.00  0.00    +0.000 F 
ENDBRANCH   3  34
TORSDOF 10
ENDMDL
MODEL 5
REMARK VINA RESULT:      -8.6      1.554      1.798
REMARK  Name = 
REMARK  12 active torsions:
REMARK  status: ('A' for Active; 'I' for Inactive)
REMARK    1  A    between atoms: C_1  and  O_2
REMARK    2  A    between atoms: O_2  and  C_3
REMARK    3  A    between atoms: C_7  and  C_8
REMARK    4  A    between atoms: C_8  and  N_9
REMARK    5  A    between atoms: C_10  and  C_12
REMARK    6  A    between atoms: C_14  and  C_15
REMARK    7  A    between atoms: N_20  and  C_21
REMARK    8  A    between atoms: C_24  and  C_25
REMARK    9  A    between atoms: C_25  and  N_26
REMARK   10  A    between atoms: C_27  and  C_29
REMARK   11  A    between atoms: C_29  and  C_30
REMARK   12  A    between atoms: C_29  and  N_31
REMARK                            x       y       z     vdW  Elec       q    Type
REMARK                         _______ _______ _______ _____ _____    ______ ____
ROOT
ATOM      1  C   UNL     1       2.922   5.580  18.581  0.00  0.00    +0.000 A 
ATOM      2  C   UNL     1       1.900   5.075  19.365  0.00  0.00    +0.000 A 
ATOM      3  C   UNL     1       2.056   3.669  19.350  0.00  0.00    +0.000 A 
ATOM      4  N   UNL     1       3.103   3.319  18.580  0.00  0.00    +0.000 NA
ATOM      5  N   UNL     1       3.703   4.490  18.229  0.00  0.00    +0.000 N 
ENDROOT
BRANCH   5   6
ATOM      6  C   UNL     1       4.996   4.494  17.610  0.00  0.00    +0.000 A 
ATOM      7  C   UNL     1       6.187   4.696  18.273  0.00  0.00    +0.000 A 
ATOM      8  S   UNL     1       7.523   4.700  17.208  0.00  0.00    +0.000 S 
ATOM      9  C   UNL     1       6.515   4.471  15.843  0.00  0.00    +0.000 A 
ATOM     10  C   UNL     1       5.196   4.268  16.214  0.00  0.00    +0.000 A 
BRANCH   9  11
ATOM     11  C   UNL     1       7.092   4.547  14.471  0.00  0.00    +0.000 C 
BRANCH  11  12
ATOM     12  N   UNL     1       6.332   3.716  13.575  0.00  0.00    +0.000 N 
ATOM     13  C   UNL     1       6.593   3.753  12.225  0.00  0.00    +0.000 C 
ATOM     14  O   UNL     1       7.473   4.460  11.735  0.00  0.00    +0.000 OA
ATOM     15  H   UNL     1       5.573   3.156  13.940  0.00  0.00    +0.000 HD
BRANCH  13  16
ATOM     16  C   UNL     1       5.695   2.841  11.371  0.00  0.00    +0.000 C 
ATOM     17  C   UNL     1       4.231   3.171  11.625  0.00  0.00    +0.000 C 
BRANCH  16  18
ATOM     18  N   UNL     1       5.963   1.430  11.709  0.00  0.00    +0.000 NA
ATOM     19  H   UNL     1       5.347   1.186  12.493  0.00  0.00    +0.000 HD
ATOM     20  H   UNL     1       6.897   1.376  12.120  0.00  0.00    +0.000 HD
ENDBRANCH  16  18
ENDBRANCH  13  16
ENDBRANCH  11  12
ENDBRANCH   9  11
ENDBRANCH   5   6
BRANCH   1  22
ATOM     21  N   UNL     1       2.006   7.730  18.165  0.00  0.00    +0.000 N 
ATOM     22  C   UNL     1       3.117   6.918  18.084  0.00  0.00    +0.000 C 
ATOM     23  O   UNL     1       4.172   7.313  17.600  0.00  0.00    +0.000 OA
ATOM     24  H   UNL     1       1.198   7.421  18.681  0.00  0.00    +0.000 HD
BRANCH  21  25
ATOM     25  C   UNL     1       2.048   9.105  17.719  0.00  0.00    +0.000 C 
BRANCH  25  30
ATOM     26  C   UNL     1       1.161  12.309  19.588  0.00  0.00    +0.000 A 
ATOM     27  C   UNL     1       0.510  11.790  20.708  0.00  0.00    +0.000 A 
ATOM     28  C   UNL     1       0.325  10.415  20.847  0.00  0.00    +0.000 A 
ATOM     29  C   UNL     1       0.807   9.545  19.870  0.00  0.00    +0.000 A 
ATOM     30  C   UNL     1       1.483  10.047  18.748  0.00  0.00    +0.000 A 
ATOM     31  C   UNL     1       1.633  11.437  18.604  0.00  0.00    +0.000 A 
BRANCH  26  33
ATOM     32  C   UNL     1       1.940  14.257  18.463  0.00  0.00    +0.000 C 
ATOM     33  O   UNL     1       1.289  13.671  19.582  0.00  0.00    +0.000 OA
ENDBRANCH  26  33
ENDBRANCH  25  30
ENDBRANCH  21  25
ENDBRANCH   1  22
BRANCH   3  34
ATOM     34  C   UNL     1       1.175   2.662  20.046  0.00  0.00    +0.000 C 
ATOM     35  F   UNL     1       1.447   1.394  19.626  0.00  0.00    +0.000 F 
ATOM     36  F   UNL     1       1.334   2.662  21.394  0.00  0.00    +0.000 F 
ATOM     37  F   UNL     1      -0.143   2.871  19.792  0.00  0.00    +0.000 F 
ENDBRANCH   3  34
TORSDOF 10
ENDMDL
MODEL 6
REMARK VINA RESULT:      -8.5      1.183      1.788
REMARK  Name = 
REMARK  12 active torsions:
REMARK  status: ('A' for Active; 'I' for Inactive)
REMARK    1  A    between atoms: C_1  and  O_2
REMARK    2  A    between atoms: O_2  and  C_3
REMARK    3  A    between atoms: C_7  and  C_8
REMARK    4  A    between atoms: C_8  and  N_9
REMARK    5  A    between atoms: C_10  and  C_12
REMARK    6  A    between atoms: C_14  and  C_15
REMARK    7  A    between atoms: N_20  and  C_21
REMARK    8  A    between atoms: C_24  and  C_25
REMARK    9  A    between atoms: C_25  and  N_26
REMARK   10  A    between atoms: C_27  and  C_29
REMARK   11  A    between atoms: C_29  and  C_30
REMARK   12  A    between atoms: C_29  and  N_31
REMARK                            x       y       z     vdW  Elec       q    Type
REMARK                         _______ _______ _______ _____ _____    ______ ____
ROOT
ATOM      1  C   UNL     1       2.915   5.852  18.820  0.00  0.00    +0.000 A 
ATOM      2  C   UNL     1       1.946   5.385  19.688  0.00  0.00    +0.000 A 
ATOM      3  C   UNL     1       2.149   3.988  19.784  0.00  0.00    +0.000 A 
ATOM      4  N   UNL     1       3.173   3.606  18.999  0.00  0.00    +0.000 NA
ATOM      5  N   UNL     1       3.717   4.760  18.524  0.00  0.00    +0.000 N 
ENDROOT
BRANCH   5   6
ATOM      6  C   UNL     1       4.981   4.751  17.849  0.00  0.00    +0.000 A 
ATOM      7  C   UNL     1       6.186   5.086  18.426  0.00  0.00    +0.000 A 
ATOM      8  S   UNL     1       7.475   5.026  17.306  0.00  0.00    +0.000 S 
ATOM      9  C   UNL     1       6.424   4.589  16.027  0.00  0.00    +0.000 A 
ATOM     10  C   UNL     1       5.134   4.369  16.481  0.00  0.00    +0.000 A 
BRANCH   9  11
ATOM     11  C   UNL     1       6.940   4.527  14.629  0.00  0.00    +0.000 C 
BRANCH  11  12
ATOM     12  N   UNL     1       6.239   3.506  13.895  0.00  0.00    +0.000 N 
ATOM     13  C   UNL     1       6.377   3.434  12.529  0.00  0.00    +0.000 C 
ATOM     14  O   UNL     1       7.099   4.199  11.890  0.00  0.00    +0.000 OA
ATOM     15  H   UNL     1       5.604   2.890  14.384  0.00  0.00    +0.000 HD
BRANCH  13  16
ATOM     16  C   UNL     1       5.556   2.319  11.857  0.00  0.00    +0.000 C 
ATOM     17  C   UNL     1       6.449   1.503  10.934  0.00  0.00    +0.000 C 
BRANCH  16  18
ATOM     18  N   UNL     1       4.447   2.919  11.091  0.00  0.00    +0.000 NA
ATOM     19  H   UNL     1       4.867   3.470  10.335  0.00  0.00    +0.000 HD
ATOM     20  H   UNL     1       4.004   3.628  11.679  0.00  0.00    +0.000 HD
ENDBRANCH  16  18
ENDBRANCH  13  16
ENDBRANCH  11  12
ENDBRANCH   9  11
ENDBRANCH   5   6
BRANCH   1  22
ATOM     21  N   UNL     1       2.013   8.022  18.483  0.00  0.00    +0.000 N 
ATOM     22  C   UNL     1       3.042   7.148  18.204  0.00  0.00    +0.000 C 
ATOM     23  O   UNL     1       3.971   7.459  17.467  0.00  0.00    +0.000 OA
ATOM     24  H   UNL     1       1.335   7.785  19.189  0.00  0.00    +0.000 HD
BRANCH  21  25
ATOM     25  C   UNL     1       2.005   9.366  17.949  0.00  0.00    +0.000 C 
BRANCH  25  30
ATOM     26  C   UNL     1      -0.044  11.888  19.946  0.00  0.00    +0.000 A 
ATOM     27  C   UNL     1      -1.333  11.597  19.496  0.00  0.00    +0.000 A 
ATOM     28  C   UNL     1      -1.542  10.616  18.527  0.00  0.00    +0.000 A 
ATOM     29  C   UNL     1      -0.459   9.905  18.012  0.00  0.00    +0.000 A 
ATOM     30  C   UNL     1       0.841  10.168  18.468  0.00  0.00    +0.000 A 
ATOM     31  C   UNL     1       1.041  11.183  19.420  0.00  0.00    +0.000 A 
BRANCH  26  33
ATOM     32  C   UNL     1      -1.169  13.597  21.162  0.00  0.00    +0.000 C 
ATOM     33  O   UNL     1       0.019  12.861  20.906  0.00  0.00    +0.000 OA
ENDBRANCH  26  33
ENDBRANCH  25  30
ENDBRANCH  21  25
ENDBRANCH   1  22
BRANCH   3  34
ATOM     34  C   UNL     1       1.334   3.017  20.601  0.00  0.00    +0.000 C 
ATOM     35  F   UNL     1       1.648   1.726  20.294  0.00  0.00    +0.000 F 
ATOM     36  F   UNL     1       1.532   3.153  21.937  0.00  0.00    +0.000 F 
ATOM     37  F   UNL     1      -0.000   3.147  20.373  0.00  0.00    +0.000 F 
ENDBRANCH   3  34
TORSDOF 10
ENDMDL
MODEL 7
REMARK VINA RESULT:      -8.0      1.250      1.621
REMARK  Name = 
REMARK  12 active torsions:
REMARK  status: ('A' for Active; 'I' for Inactive)
REMARK    1  A    between atoms: C_1  and  O_2
REMARK    2  A    between atoms: O_2  and  C_3
REMARK    3  A    between atoms: C_7  and  C_8
REMARK    4  A    between atoms: C_8  and  N_9
REMARK    5  A    between atoms: C_10  and  C_12
REMARK    6  A    between atoms: C_14  and  C_15
REMARK    7  A    between atoms: N_20  and  C_21
REMARK    8  A    between atoms: C_24  and  C_25
REMARK    9  A    between atoms: C_25  and  N_26
REMARK   10  A    between atoms: C_27  and  C_29
REMARK   11  A    between atoms: C_29  and  C_30
REMARK   12  A    between atoms: C_29  and  N_31
REMARK                            x       y       z     vdW  Elec       q    Type
REMARK                         _______ _______ _______ _____ _____    ______ ____
ROOT
ATOM      1  C   UNL     1       2.655   5.697  18.345  0.00  0.00    +0.000 A 
ATOM      2  C   UNL     1       1.649   5.052  19.042  0.00  0.00    +0.000 A 
ATOM      3  C   UNL     1       1.921   3.668  18.926  0.00  0.00    +0.000 A 
ATOM      4  N   UNL     1       3.022   3.465  18.179  0.00  0.00    +0.000 NA
ATOM      5  N   UNL     1       3.536   4.703  17.945  0.00  0.00    +0.000 N 
ENDROOT
BRANCH   5   6
ATOM      6  C   UNL     1       4.847   4.859  17.387  0.00  0.00    +0.000 A 
ATOM      7  C   UNL     1       5.889   5.525  17.995  0.00  0.00    +0.000 A 
ATOM      8  S   UNL     1       7.285   5.569  17.010  0.00  0.00    +0.000 S 
ATOM      9  C   UNL     1       6.494   4.731  15.744  0.00  0.00    +0.000 A 
ATOM     10  C   UNL     1       5.228   4.315  16.122  0.00  0.00    +0.000 A 
BRANCH   9  11
ATOM     11  C   UNL     1       7.169   4.569  14.425  0.00  0.00    +0.000 C 
BRANCH  11  12
ATOM     12  N   UNL     1       6.356   3.757  13.558  0.00  0.00    +0.000 N 
ATOM     13  C   UNL     1       6.587   3.766  12.202  0.00  0.00    +0.000 C 
ATOM     14  O   UNL     1       7.484   4.430  11.682  0.00  0.00    +0.000 OA
ATOM     15  H   UNL     1       5.583   3.234  13.947  0.00  0.00    +0.000 HD
BRANCH  13  16
ATOM     16  C   UNL     1       5.634   2.880  11.380  0.00  0.00    +0.000 C 
ATOM     17  C   UNL     1       4.190   3.220  11.720  0.00  0.00    +0.000 C 
BRANCH  16  18
ATOM     18  N   UNL     1       5.904   1.460  11.676  0.00  0.00    +0.000 NA
ATOM     19  H   UNL     1       6.670   1.435  12.358  0.00  0.00    +0.000 HD
ATOM     20  H   UNL     1       6.318   1.037  10.843  0.00  0.00    +0.000 HD
ENDBRANCH  16  18
ENDBRANCH  13  16
ENDBRANCH  11  12
ENDBRANCH   9  11
ENDBRANCH   5   6
BRANCH   1  22
ATOM     21  N   UNL     1       2.082   7.958  18.782  0.00  0.00    +0.000 N 
ATOM     22  C   UNL     1       2.758   7.081  17.961  0.00  0.00    +0.000 C 
ATOM     23  O   UNL     1       3.371   7.466  16.972  0.00  0.00    +0.000 OA
ATOM     24  H   UNL     1       1.697   7.630  19.654  0.00  0.00    +0.000 HD
BRANCH  21  25
ATOM     25  C   UNL     1       2.102   9.383  18.536  0.00  0.00    +0.000 C 
BRANCH  25  30
ATOM     26  C   UNL     1      -0.476  12.011  19.533  0.00  0.00    +0.000 A 
ATOM     27  C   UNL     1      -0.963  11.466  20.723  0.00  0.00    +0.000 A 
ATOM     28  C   UNL     1      -0.488  10.239  21.188  0.00  0.00    +0.000 A 
ATOM     29  C   UNL     1       0.491   9.555  20.470  0.00  0.00    +0.000 A 
ATOM     30  C   UNL     1       1.008  10.097  19.284  0.00  0.00    +0.000 A 
ATOM     31  C   UNL     1       0.497  11.317  18.809  0.00  0.00    +0.000 A 
BRANCH  26  33
ATOM     32  C   UNL     1      -0.144  14.179  18.609  0.00  0.00    +0.000 C 
ATOM     33  O   UNL     1      -1.014  13.223  19.199  0.00  0.00    +0.000 OA
ENDBRANCH  26  33
ENDBRANCH  25  30
ENDBRANCH  21  25
ENDBRANCH   1  22
BRANCH   3  34
ATOM     34  C   UNL     1       1.100   2.542  19.503  0.00  0.00    +0.000 C 
ATOM     35  F   UNL     1       0.681   2.832  20.767  0.00  0.00    +0.000 F 
ATOM     36  F   UNL     1      -0.017   2.277  18.779  0.00  0.00    +0.000 F 
ATOM     37  F   UNL     1       1.808   1.385  19.595  0.00  0.00    +0.000 F 
ENDBRANCH   3  34
TORSDOF 10
ENDMDL
MODEL 8
REMARK VINA RESULT:      -8.0      4.956      7.162
REMARK  Name = 
REMARK  12 active torsions:
REMARK  status: ('A' for Active; 'I' for Inactive)
REMARK    1  A    between atoms: C_1  and  O_2
REMARK    2  A    between atoms: O_2  and  C_3
REMARK    3  A    between atoms: C_7  and  C_8
REMARK    4  A    between atoms: C_8  and  N_9
REMARK    5  A    between atoms: C_10  and  C_12
REMARK    6  A    between atoms: C_14  and  C_15
REMARK    7  A    between atoms: N_20  and  C_21
REMARK    8  A    between atoms: C_24  and  C_25
REMARK    9  A    between atoms: C_25  and  N_26
REMARK   10  A    between atoms: C_27  and  C_29
REMARK   11  A    between atoms: C_29  and  C_30
REMARK   12  A    between atoms: C_29  and  N_31
REMARK                            x       y       z     vdW  Elec       q    Type
REMARK                         _______ _______ _______ _____ _____    ______ ____
ROOT
ATOM      1  C   UNL     1       5.516   4.062  16.032  0.00  0.00    +0.000 A 
ATOM      2  C   UNL     1       5.418   3.363  14.843  0.00  0.00    +0.000 A 
ATOM      3  C   UNL     1       6.221   4.064  13.912  0.00  0.00    +0.000 A 
ATOM      4  N   UNL     1       6.768   5.151  14.486  0.00  0.00    +0.000 NA
ATOM      5  N   UNL     1       6.444   5.067  15.806  0.00  0.00    +0.000 N 
ENDROOT
BRANCH   5   6
ATOM      6  C   UNL     1       7.066   5.927  16.769  0.00  0.00    +0.000 A 
ATOM      7  C   UNL     1       7.590   5.513  17.974  0.00  0.00    +0.000 A 
ATOM      8  S   UNL     1       8.191   6.820  18.897  0.00  0.00    +0.000 S 
ATOM      9  C   UNL     1       7.720   7.957  17.707  0.00  0.00    +0.000 A 
ATOM     10  C   UNL     1       7.229   7.333  16.572  0.00  0.00    +0.000 A 
BRANCH   9  11
ATOM     11  C   UNL     1       7.830   9.417  17.989  0.00  0.00    +0.000 C 
BRANCH  11  12
ATOM     12  N   UNL     1       9.158   9.726  18.450  0.00  0.00    +0.000 N 
ATOM     13  C   UNL     1       9.592  11.031  18.450  0.00  0.00    +0.000 C 
ATOM     14  O   UNL     1       8.885  11.970  18.088  0.00  0.00    +0.000 OA
ATOM     15  H   UNL     1       9.781   8.973  18.713  0.00  0.00    +0.000 HD
BRANCH  13  16
ATOM     16  C   UNL     1      11.039  11.228  18.939  0.00  0.00    +0.000 C 
ATOM     17  C   UNL     1      11.077  12.291  20.027  0.00  0.00    +0.000 C 
BRANCH  16  18
ATOM     18  N   UNL     1      11.890  11.631  17.804  0.00  0.00    +0.000 NA
ATOM     19  H   UNL     1      12.273  12.556  18.028  0.00  0.00    +0.000 HD
ATOM     20  H   UNL     1      11.282  11.818  17.003  0.00  0.00    +0.000 HD
ENDBRANCH  16  18
ENDBRANCH  13  16
ENDBRANCH  11  12
ENDBRANCH   9  11
ENDBRANCH   5   6
BRANCH   1  22
ATOM     21  N   UNL     1       3.422   4.279  17.129  0.00  0.00    +0.000 N 
ATOM     22  C   UNL     1       4.748   3.919  17.242  0.00  0.00    +0.000 C 
ATOM     23  O   UNL     1       5.223   3.535  18.305  0.00  0.00    +0.000 OA
ATOM     24  H   UNL     1       3.032   4.468  16.220  0.00  0.00    +0.000 HD
BRANCH  21  25
ATOM     25  C   UNL     1       2.519   4.179  18.254  0.00  0.00    +0.000 C 
BRANCH  25  30
ATOM     26  C   UNL     1       2.173   7.949  18.716  0.00  0.00    +0.000 A 
ATOM     27  C   UNL     1       1.845   8.020  20.071  0.00  0.00    +0.000 A 
ATOM     28  C   UNL     1       1.701   6.858  20.828  0.00  0.00    +0.000 A 
ATOM     29  C   UNL     1       1.901   5.612  20.235  0.00  0.00    +0.000 A 
ATOM     30  C   UNL     1       2.253   5.522  18.881  0.00  0.00    +0.000 A 
ATOM     31  C   UNL     1       2.362   6.699  18.121  0.00  0.00    +0.000 A 
BRANCH  26  33
ATOM     32  C   UNL     1       1.301  10.137  18.371  0.00  0.00    +0.000 C 
ATOM     33  O   UNL     1       2.297   9.162  18.095  0.00  0.00    +0.000 OA
ENDBRANCH  26  33
ENDBRANCH  25  30
ENDBRANCH  21  25
ENDBRANCH   1  22
BRANCH   3  34
ATOM     34  C   UNL     1       6.430   3.707  12.462  0.00  0.00    +0.000 C 
ATOM     35  F   UNL     1       6.911   2.438  12.329  0.00  0.00    +0.000 F 
ATOM     36  F   UNL     1       5.287   3.762  11.733  0.00  0.00    +0.000 F 
ATOM     37  F   UNL     1       7.336   4.521  11.858  0.00  0.00    +0.000 F 
ENDBRANCH   3  34
TORSDOF 10
ENDMDL
MODEL 9
REMARK VINA RESULT:      -7.9      5.172      8.351
REMARK  Name = 
REMARK  12 active torsions:
REMARK  status: ('A' for Active; 'I' for Inactive)
REMARK    1  A    between atoms: C_1  and  O_2
REMARK    2  A    between atoms: O_2  and  C_3
REMARK    3  A    between atoms: C_7  and  C_8
REMARK    4  A    between atoms: C_8  and  N_9
REMARK    5  A    between atoms: C_10  and  C_12
REMARK    6  A    between atoms: C_14  and  C_15
REMARK    7  A    between atoms: N_20  and  C_21
REMARK    8  A    between atoms: C_24  and  C_25
REMARK    9  A    between atoms: C_25  and  N_26
REMARK   10  A    between atoms: C_27  and  C_29
REMARK   11  A    between atoms: C_29  and  C_30
REMARK   12  A    between atoms: C_29  and  N_31
REMARK                            x       y       z     vdW  Elec       q    Type
REMARK                         _______ _______ _______ _____ _____    ______ ____
ROOT
ATOM      1  C   UNL     1       6.645   5.928  16.526  0.00  0.00    +0.000 A 
ATOM      2  C   UNL     1       7.164   5.305  15.406  0.00  0.00    +0.000 A 
ATOM      3  C   UNL     1       6.055   4.775  14.706  0.00  0.00    +0.000 A 
ATOM      4  N   UNL     1       4.912   5.034  15.368  0.00  0.00    +0.000 NA
ATOM      5  N   UNL     1       5.266   5.849  16.399  0.00  0.00    +0.000 N 
ENDROOT
BRANCH   5   6
ATOM      6  C   UNL     1       4.268   6.526  17.173  0.00  0.00    +0.000 A 
ATOM      7  C   UNL     1       3.871   7.832  16.980  0.00  0.00    +0.000 A 
ATOM      8  S   UNL     1       2.709   8.327  18.131  0.00  0.00    +0.000 S 
ATOM      9  C   UNL     1       2.755   6.810  18.922  0.00  0.00    +0.000 A 
ATOM     10  C   UNL     1       3.550   5.904  18.240  0.00  0.00    +0.000 A 
BRANCH   9  11
ATOM     11  C   UNL     1       2.025   6.619  20.208  0.00  0.00    +0.000 C 
BRANCH  11  12
ATOM     12  N   UNL     1       2.535   5.460  20.892  0.00  0.00    +0.000 N 
ATOM     13  C   UNL     1       1.791   4.304  20.921  0.00  0.00    +0.000 C 
ATOM     14  O   UNL     1       0.698   4.199  20.365  0.00  0.00    +0.000 OA
ATOM     15  H   UNL     1       3.409   5.525  21.396  0.00  0.00    +0.000 HD
BRANCH  13  16
ATOM     16  C   UNL     1       2.431   3.146  21.707  0.00  0.00    +0.000 C 
ATOM     17  C   UNL     1       3.403   2.388  20.813  0.00  0.00    +0.000 C 
BRANCH  16  18
ATOM     18  N   UNL     1       1.375   2.237  22.192  0.00  0.00    +0.000 NA
ATOM     19  H   UNL     1       0.574   2.342  21.560  0.00  0.00    +0.000 HD
ATOM     20  H   UNL     1       1.023   2.607  23.078  0.00  0.00    +0.000 HD
ENDBRANCH  16  18
ENDBRANCH  13  16
ENDBRANCH  11  12
ENDBRANCH   9  11
ENDBRANCH   5   6
BRANCH   1  22
ATOM     21  N   UNL     1       7.752   7.753  17.565  0.00  0.00    +0.000 N 
ATOM     22  C   UNL     1       7.328   6.446  17.683  0.00  0.00    +0.000 C 
ATOM     23  O   UNL     1       7.549   5.786  18.692  0.00  0.00    +0.000 OA
ATOM     24  H   UNL     1       7.446   8.308  16.781  0.00  0.00    +0.000 HD
BRANCH  21  25
ATOM     25  C   UNL     1       8.441   8.419  18.647  0.00  0.00    +0.000 C 
BRANCH  25  30
ATOM     26  C   UNL     1      10.015  11.894  18.640  0.00  0.00    +0.000 A 
ATOM     27  C   UNL     1       9.102  12.596  17.851  0.00  0.00    +0.000 A 
ATOM     28  C   UNL     1       7.999  11.948  17.294  0.00  0.00    +0.000 A 
ATOM     29  C   UNL     1       7.795  10.590  17.537  0.00  0.00    +0.000 A 
ATOM     30  C   UNL     1       8.690   9.873  18.343  0.00  0.00    +0.000 A 
ATOM     31  C   UNL     1       9.814  10.531  18.871  0.00  0.00    +0.000 A 
BRANCH  26  33
ATOM     32  C   UNL     1      12.085  11.964  19.812  0.00  0.00    +0.000 C 
ATOM     33  O   UNL     1      11.041  12.651  19.135  0.00  0.00    +0.000 OA
ENDBRANCH  26  33
ENDBRANCH  25  30
ENDBRANCH  21  25
ENDBRANCH   1  22
BRANCH   3  34
ATOM     34  C   UNL     1       6.100   3.987  13.421  0.00  0.00    +0.000 C 
ATOM     35  F   UNL     1       6.489   2.699  13.642  0.00  0.00    +0.000 F 
ATOM     36  F   UNL     1       4.895   3.922  12.798  0.00  0.00    +0.000 F 
ATOM     37  F   UNL     1       6.989   4.504  12.532  0.00  0.00    +0.000 F 
ENDBRANCH   3  34
TORSDOF 10
ENDMDL
