MODEL 1
REMARK VINA RESULT:      -7.9      0.000      0.000
REMARK  Name = 
REMARK  8 active torsions:
REMARK  status: ('A' for Active; 'I' for Inactive)
REMARK    1  A    between atoms: C_1  and  C_2
REMARK    2  A    between atoms: C_2  and  C_3
REMARK    3  A    between atoms: C_2  and  N_4
REMARK    4  A    between atoms: N_9  and  C_10
REMARK    5  A    between atoms: C_10  and  C_11
REMARK    6  A    between atoms: C_18  and  C_19
REMARK    7  A    between atoms: C_20  and  C_21
REMARK    8  A    between atoms: C_21  and  O_22
REMARK                            x       y       z     vdW  Elec       q    Type
REMARK                         _______ _______ _______ _____ _____    ______ ____
ROOT
ATOM      1  N   UNL     1       6.387   3.811  13.168  0.00  0.00    +0.000 N 
ATOM      2  C   UNL     1       7.410   4.661  12.827  0.00  0.00    +0.000 A 
ATOM      3  N   UNL     1       7.685   5.516  13.793  0.00  0.00    +0.000 NA
ATOM      4  C   UNL     1       6.790   5.214  14.796  0.00  0.00    +0.000 A 
ATOM      5  C   UNL     1       6.595   5.779  16.074  0.00  0.00    +0.000 A 
ATOM      6  N   UNL     1       7.337   6.887  16.482  0.00  0.00    +0.000 N 
ATOM      7  N   UNL     1       5.615   5.247  16.856  0.00  0.00    +0.000 NA
ATOM      8  C   UNL     1       4.871   4.231  16.354  0.00  0.00    +0.000 A 
ATOM      9  N   UNL     1       4.978   3.617  15.156  0.00  0.00    +0.000 NA
ATOM     10  C   UNL     1       5.967   4.160  14.424  0.00  0.00    +0.000 A 
ATOM     11  H   UNL     1       8.107   7.063  15.839  0.00  0.00    +0.000 HD
ENDROOT
BRANCH   1  13
ATOM     12  C   UNL     1       4.611   3.132  11.580  0.00  0.00    +0.000 C 
ATOM     13  C   UNL     1       5.887   2.736  12.323  0.00  0.00    +0.000 C 
ATOM     14  C   UNL     1       6.951   2.192  11.370  0.00  0.00    +0.000 C 
ENDBRANCH   1  13
BRANCH   8  15
ATOM     15  C   UNL     1       3.814   3.751  17.194  0.00  0.00    +0.000 C 
ATOM     16  C   UNL     1       2.846   3.319  17.953  0.00  0.00    +0.000 C 
BRANCH  16  17
ATOM     17  C   UNL     1       1.717   2.816  18.837  0.00  0.00    +0.000 C 
ATOM     18  C   UNL     1       2.418   2.072  19.999  0.00  0.00    +0.000 C 
ATOM     19  C   UNL     1       3.353   3.004  20.789  0.00  0.00    +0.000 C 
ATOM     20  C   UNL     1       2.630   4.252  21.294  0.00  0.00    +0.000 C 
ATOM     21  C   UNL     1       1.790   4.954  20.225  0.00  0.00    +0.000 C 
ATOM     22  C   UNL     1       0.916   3.988  19.415  0.00  0.00    +0.000 C 
BRANCH  17  23
ATOM     23  O   UNL     1       0.873   1.939  18.115  0.00  0.00    +0.000 OA
ATOM     24  H   UNL     1       0.427   1.374  18.770  0.00  0.00    +0.000 HD
ENDBRANCH  17  23
ENDBRANCH  16  17
ENDBRANCH   8  15
BRANCH   6  25
ATOM     25  C   UNL     1       7.696   6.986  17.884  0.00  0.00    +0.000 C 
BRANCH  25  26
ATOM     26  C   UNL     1       8.136   8.405  18.191  0.00  0.00    +0.000 A 
ATOM     27  C   UNL     1       8.972   8.653  19.291  0.00  0.00    +0.000 A 
ATOM     28  C   UNL     1       9.426   9.944  19.571  0.00  0.00    +0.000 A 
ATOM     29  C   UNL     1       9.051  11.005  18.752  0.00  0.00    +0.000 A 
ATOM     30  C   UNL     1       8.220  10.777  17.655  0.00  0.00    +0.000 A 
ATOM     31  C   UNL     1       7.764   9.484  17.375  0.00  0.00    +0.000 A 
ENDBRANCH  25  26
ENDBRANCH   6  25
TORSDOF 6
ENDMDL
MODEL 2
REMARK VINA RESULT:      -7.5      3.594      6.204
REMARK  Name = 
REMARK  8 active torsions:
REMARK  status: ('A' for Active; 'I' for Inactive)
REMARK    1  A    between atoms: C_1  and  C_2
REMARK    2  A    between atoms: C_2  and  C_3
REMARK    3  A    between atoms: C_2  and  N_4
REMARK    4  A    between atoms: N_9  and  C_10
REMARK    5  A    between atoms: C_10  and  C_11
REMARK    6  A    between atoms: C_18  and  C_19
REMARK    7  A    between atoms: C_20  and  C_21
REMARK    8  A    between atoms: C_21  and  O_22
REMARK                            x       y       z     vdW  Elec       q    Type
REMARK                         _______ _______ _______ _____ _____    ______ ____
ROOT
ATOM      1  N   UNL     1       2.578   2.975  19.289  0.00  0.00    +0.000 N 
ATOM      2  C   UNL     1       3.302   1.972  18.694  0.00  0.00    +0.000 A 
ATOM      3  N   UNL     1       4.065   2.425  17.718  0.00  0.00    +0.000 NA
ATOM      4  C   UNL     1       3.810   3.779  17.672  0.00  0.00    +0.000 A 
ATOM      5  C   UNL     1       4.324   4.797  16.841  0.00  0.00    +0.000 A 
ATOM      6  N   UNL     1       5.204   4.491  15.804  0.00  0.00    +0.000 N 
ATOM      7  N   UNL     1       3.875   6.066  17.047  0.00  0.00    +0.000 NA
ATOM      8  C   UNL     1       2.947   6.271  18.014  0.00  0.00    +0.000 A 
ATOM      9  N   UNL     1       2.398   5.376  18.863  0.00  0.00    +0.000 NA
ATOM     10  C   UNL     1       2.882   4.140  18.637  0.00  0.00    +0.000 A 
ATOM     11  H   UNL     1       5.534   3.531  15.880  0.00  0.00    +0.000 HD
ENDROOT
BRANCH   1  13
ATOM     12  C   UNL     1       2.214   3.439  21.695  0.00  0.00    +0.000 C 
ATOM     13  C   UNL     1       1.679   2.788  20.419  0.00  0.00    +0.000 C 
ATOM     14  C   UNL     1       0.248   3.231  20.115  0.00  0.00    +0.000 C 
ENDBRANCH   1  13
BRANCH   8  15
ATOM     15  C   UNL     1       2.465   7.614  18.148  0.00  0.00    +0.000 C 
ATOM     16  C   UNL     1       2.028   8.837  18.259  0.00  0.00    +0.000 C 
BRANCH  16  17
ATOM     17  C   UNL     1       1.520  10.264  18.388  0.00  0.00    +0.000 C 
ATOM     18  C   UNL     1       0.008  10.182  18.066  0.00  0.00    +0.000 C 
ATOM     19  C   UNL     1      -0.731   9.250  19.042  0.00  0.00    +0.000 C 
ATOM     20  C   UNL     1      -0.502   9.643  20.500  0.00  0.00    +0.000 C 
ATOM     21  C   UNL     1       0.968   9.890  20.850  0.00  0.00    +0.000 C 
ATOM     22  C   UNL     1       1.690  10.772  19.824  0.00  0.00    +0.000 C 
BRANCH  17  23
ATOM     23  O   UNL     1       2.184  11.114  17.473  0.00  0.00    +0.000 OA
ATOM     24  H   UNL     1       3.080  11.261  17.825  0.00  0.00    +0.000 HD
ENDBRANCH  17  23
ENDBRANCH  16  17
ENDBRANCH   8  15
BRANCH   6  25
ATOM     25  C   UNL     1       6.241   5.454  15.485  0.00  0.00    +0.000 C 
BRANCH  25  26
ATOM     26  C   UNL     1       6.988   5.827  16.751  0.00  0.00    +0.000 A 
ATOM     27  C   UNL     1       7.268   7.176  17.024  0.00  0.00    +0.000 A 
ATOM     28  C   UNL     1       7.917   7.550  18.202  0.00  0.00    +0.000 A 
ATOM     29  C   UNL     1       8.294   6.579  19.126  0.00  0.00    +0.000 A 
ATOM     30  C   UNL     1       8.024   5.234  18.871  0.00  0.00    +0.000 A 
ATOM     31  C   UNL     1       7.374   4.859  17.689  0.00  0.00    +0.000 A 
ENDBRANCH  25  26
ENDBRANCH   6  25
TORSDOF 6
ENDMDL
MODEL 3
REMARK VINA RESULT:      -7.2      6.653      8.686
REMARK  Name = 
REMARK  8 active torsions:
REMARK  status: ('A' for Active; 'I' for Inactive)
REMARK    1  A    between atoms: C_1  and  C_2
REMARK    2  A    between atoms: C_2  and  C_3
REMARK    3  A    between atoms: C_2  and  N_4
REMARK    4  A    between atoms: N_9  and  C_10
REMARK    5  A    between atoms: C_10  and  C_11
REMARK    6  A    between atoms: C_18  and  C_19
REMARK    7  A    between atoms: C_20  and  C_21
REMARK    8  A    between atoms: C_21  and  O_22
REMARK                            x       y       z     vdW  Elec       q    Type
REMARK                         _______ _______ _______ _____ _____    ______ ____
ROOT
ATOM      1  N   UNL     1      -2.205  10.794  18.001  0.00  0.00    +0.000 N 
ATOM      2  C   UNL     1      -2.547  12.038  18.470  0.00  0.00    +0.000 A 
ATOM      3  N   UNL     1      -1.544  12.623  19.097  0.00  0.00    +0.000 NA
ATOM      4  C   UNL     1      -0.514  11.710  19.041  0.00  0.00    +0.000 A 
ATOM      5  C   UNL     1       0.808  11.764  19.533  0.00  0.00    +0.000 A 
ATOM      6  N   UNL     1       1.244  12.857  20.281  0.00  0.00    +0.000 N 
ATOM      7  N   UNL     1       1.607  10.684  19.311  0.00  0.00    +0.000 NA
ATOM      8  C   UNL     1       1.083   9.618  18.658  0.00  0.00    +0.000 A 
ATOM      9  N   UNL     1      -0.156   9.467  18.144  0.00  0.00    +0.000 NA
ATOM     10  C   UNL     1      -0.906  10.561  18.370  0.00  0.00    +0.000 A 
ATOM     11  H   UNL     1       0.571  13.620  20.233  0.00  0.00    +0.000 HD
ENDROOT
BRANCH   1  13
ATOM     12  C   UNL     1      -4.563  10.227  17.502  0.00  0.00    +0.000 C 
ATOM     13  C   UNL     1      -3.089   9.926  17.236  0.00  0.00    +0.000 C 
ATOM     14  C   UNL     1      -2.770   9.929  15.741  0.00  0.00    +0.000 C 
ENDBRANCH   1  13
BRANCH   8  15
ATOM     15  C   UNL     1       1.949   8.487  18.505  0.00  0.00    +0.000 C 
ATOM     16  C   UNL     1       2.729   7.451  18.368  0.00  0.00    +0.000 C 
BRANCH  16  17
ATOM     17  C   UNL     1       3.638   6.243  18.207  0.00  0.00    +0.000 C 
ATOM     18  C   UNL     1       3.821   5.686  19.639  0.00  0.00    +0.000 C 
ATOM     19  C   UNL     1       2.477   5.274  20.265  0.00  0.00    +0.000 C 
ATOM     20  C   UNL     1       1.709   4.288  19.387  0.00  0.00    +0.000 C 
ATOM     21  C   UNL     1       1.622   4.708  17.917  0.00  0.00    +0.000 C 
ATOM     22  C   UNL     1       2.967   5.170  17.343  0.00  0.00    +0.000 C 
BRANCH  17  23
ATOM     23  O   UNL     1       4.882   6.628  17.654  0.00  0.00    +0.000 OA
ATOM     24  H   UNL     1       5.546   6.002  17.992  0.00  0.00    +0.000 HD
ENDBRANCH  17  23
ENDBRANCH  16  17
ENDBRANCH   8  15
BRANCH   6  25
ATOM     25  C   UNL     1       2.626  13.271  20.137  0.00  0.00    +0.000 C 
BRANCH  25  26
ATOM     26  C   UNL     1       2.702  14.449  19.185  0.00  0.00    +0.000 A 
ATOM     27  C   UNL     1       1.813  15.525  19.335  0.00  0.00    +0.000 A 
ATOM     28  C   UNL     1       1.888  16.641  18.499  0.00  0.00    +0.000 A 
ATOM     29  C   UNL     1       2.857  16.697  17.500  0.00  0.00    +0.000 A 
ATOM     30  C   UNL     1       3.748  15.636  17.336  0.00  0.00    +0.000 A 
ATOM     31  C   UNL     1       3.672  14.517  18.173  0.00  0.00    +0.000 A 
ENDBRANCH  25  26
ENDBRANCH   6  25
TORSDOF 6
ENDMDL
MODEL 4
REMARK VINA RESULT:      -7.1      3.626      7.000
REMARK  Name = 
REMARK  8 active torsions:
REMARK  status: ('A' for Active; 'I' for Inactive)
REMARK    1  A    between atoms: C_1  and  C_2
REMARK    2  A    between atoms: C_2  and  C_3
REMARK    3  A    between atoms: C_2  and  N_4
REMARK    4  A    between atoms: N_9  and  C_10
REMARK    5  A    between atoms: C_10  and  C_11
REMARK    6  A    between atoms: C_18  and  C_19
REMARK    7  A    between atoms: C_20  and  C_21
REMARK    8  A    between atoms: C_21  and  O_22
REMARK                            x       y       z     vdW  Elec       q    Type
REMARK                         _______ _______ _______ _____ _____    ______ ____
ROOT
ATOM      1  N   UNL     1       2.437   2.842  19.503  0.00  0.00    +0.000 N 
ATOM      2  C   UNL     1       3.144   1.796  18.965  0.00  0.00    +0.000 A 
ATOM      3  N   UNL     1       3.941   2.187  17.989  0.00  0.00    +0.000 NA
ATOM      4  C   UNL     1       3.727   3.545  17.884  0.00  0.00    +0.000 A 
ATOM      5  C   UNL     1       4.288   4.514  17.025  0.00  0.00    +0.000 A 
ATOM      6  N   UNL     1       5.180   4.141  16.021  0.00  0.00    +0.000 N 
ATOM      7  N   UNL     1       3.871   5.802  17.171  0.00  0.00    +0.000 NA
ATOM      8  C   UNL     1       2.929   6.072  18.107  0.00  0.00    +0.000 A 
ATOM      9  N   UNL     1       2.336   5.227  18.978  0.00  0.00    +0.000 NA
ATOM     10  C   UNL     1       2.789   3.971  18.812  0.00  0.00    +0.000 A 
ATOM     11  H   UNL     1       5.481   3.176  16.143  0.00  0.00    +0.000 HD
ENDROOT
BRANCH   1  13
ATOM     12  C   UNL     1       2.206   2.902  21.969  0.00  0.00    +0.000 C 
ATOM     13  C   UNL     1       1.510   2.726  20.620  0.00  0.00    +0.000 C 
ATOM     14  C   UNL     1       0.302   3.652  20.481  0.00  0.00    +0.000 C 
ENDBRANCH   1  13
BRANCH   8  15
ATOM     15  C   UNL     1       2.483   7.432  18.176  0.00  0.00    +0.000 C 
ATOM     16  C   UNL     1       2.072   8.668  18.230  0.00  0.00    +0.000 C 
BRANCH  16  17
ATOM     17  C   UNL     1       1.592  10.109  18.293  0.00  0.00    +0.000 C 
ATOM     18  C   UNL     1       0.080  10.042  17.971  0.00  0.00    +0.000 C 
ATOM     19  C   UNL     1      -0.680   9.172  18.987  0.00  0.00    +0.000 C 
ATOM     20  C   UNL     1      -0.446   9.627  20.426  0.00  0.00    +0.000 C 
ATOM     21  C   UNL     1       1.028   9.859  20.768  0.00  0.00    +0.000 C 
ATOM     22  C   UNL     1       1.771  10.678  19.705  0.00  0.00    +0.000 C 
BRANCH  17  23
ATOM     23  O   UNL     1       2.275  10.902  17.342  0.00  0.00    +0.000 OA
ATOM     24  H   UNL     1       2.892  10.312  16.875  0.00  0.00    +0.000 HD
ENDBRANCH  17  23
ENDBRANCH  16  17
ENDBRANCH   8  15
BRANCH   6  25
ATOM     25  C   UNL     1       6.251   5.061  15.687  0.00  0.00    +0.000 C 
BRANCH  25  26
ATOM     26  C   UNL     1       6.701   4.814  14.260  0.00  0.00    +0.000 A 
ATOM     27  C   UNL     1       6.093   3.800  13.503  0.00  0.00    +0.000 A 
ATOM     28  C   UNL     1       6.458   3.579  12.174  0.00  0.00    +0.000 A 
ATOM     29  C   UNL     1       7.438   4.373  11.582  0.00  0.00    +0.000 A 
ATOM     30  C   UNL     1       8.053   5.384  12.320  0.00  0.00    +0.000 A 
ATOM     31  C   UNL     1       7.688   5.605  13.652  0.00  0.00    +0.000 A 
ENDBRANCH  25  26
ENDBRANCH   6  25
TORSDOF 6
ENDMDL
MODEL 5
REMARK VINA RESULT:      -6.7      3.823      6.357
REMARK  Name = 
REMARK  8 active torsions:
REMARK  status: ('A' for Active; 'I' for Inactive)
REMARK    1  A    between atoms: C_1  and  C_2
REMARK    2  A    between atoms: C_2  and  C_3
REMARK    3  A    between atoms: C_2  and  N_4
REMARK    4  A    between atoms: N_9  and  C_10
REMARK    5  A    between atoms: C_10  and  C_11
REMARK    6  A    between atoms: C_18  and  C_19
REMARK    7  A    between atoms: C_20  and  C_21
REMARK    8  A    between atoms: C_21  and  O_22
REMARK                            x       y       z     vdW  Elec       q    Type
REMARK                         _______ _______ _______ _____ _____    ______ ____
ROOT
ATOM      1  N   UNL     1       2.612   3.105  19.212  0.00  0.00    +0.000 N 
ATOM      2  C   UNL     1       3.339   2.438  18.258  0.00  0.00    +0.000 A 
ATOM      3  N   UNL     1       3.929   3.266  17.418  0.00  0.00    +0.000 NA
ATOM      4  C   UNL     1       3.554   4.523  17.840  0.00  0.00    +0.000 A 
ATOM      5  C   UNL     1       3.867   5.806  17.344  0.00  0.00    +0.000 A 
ATOM      6  N   UNL     1       4.631   5.954  16.187  0.00  0.00    +0.000 N 
ATOM      7  N   UNL     1       3.338   6.879  17.994  0.00  0.00    +0.000 NA
ATOM      8  C   UNL     1       2.527   6.654  19.056  0.00  0.00    +0.000 A 
ATOM      9  N   UNL     1       2.170   5.476  19.612  0.00  0.00    +0.000 NA
ATOM     10  C   UNL     1       2.727   4.444  18.951  0.00  0.00    +0.000 A 
ATOM     11  H   UNL     1       5.050   5.066  15.914  0.00  0.00    +0.000 HD
ENDROOT
BRANCH   1  13
ATOM     12  C   UNL     1       2.513   2.748  21.661  0.00  0.00    +0.000 C 
ATOM     13  C   UNL     1       1.884   2.462  20.297  0.00  0.00    +0.000 C 
ATOM     14  C   UNL     1       0.392   2.789  20.282  0.00  0.00    +0.000 C 
ENDBRANCH   1  13
BRANCH   8  15
ATOM     15  C   UNL     1       1.950   7.815  19.664  0.00  0.00    +0.000 C 
ATOM     16  C   UNL     1       1.417   8.866  20.223  0.00  0.00    +0.000 C 
BRANCH  16  17
ATOM     17  C   UNL     1       0.797  10.092  20.874  0.00  0.00    +0.000 C 
ATOM     18  C   UNL     1       1.476  11.299  20.185  0.00  0.00    +0.000 C 
ATOM     19  C   UNL     1       1.223  11.304  18.668  0.00  0.00    +0.000 C 
ATOM     20  C   UNL     1      -0.266  11.247  18.331  0.00  0.00    +0.000 C 
ATOM     21  C   UNL     1      -1.031  10.166  19.098  0.00  0.00    +0.000 C 
ATOM     22  C   UNL     1      -0.709  10.149  20.598  0.00  0.00    +0.000 C 
BRANCH  17  23
ATOM     23  O   UNL     1       1.052  10.097  22.266  0.00  0.00    +0.000 OA
ATOM     24  H   UNL     1       0.656   9.286  22.628  0.00  0.00    +0.000 HD
ENDBRANCH  17  23
ENDBRANCH  16  17
ENDBRANCH   8  15
BRANCH   6  25
ATOM     25  C   UNL     1       5.530   7.088  16.106  0.00  0.00    +0.000 C 
BRANCH  25  26
ATOM     26  C   UNL     1       6.606   6.954  17.165  0.00  0.00    +0.000 A 
ATOM     27  C   UNL     1       7.350   8.081  17.551  0.00  0.00    +0.000 A 
ATOM     28  C   UNL     1       8.318   7.994  18.554  0.00  0.00    +0.000 A 
ATOM     29  C   UNL     1       8.554   6.776  19.187  0.00  0.00    +0.000 A 
ATOM     30  C   UNL     1       7.826   5.646  18.815  0.00  0.00    +0.000 A 
ATOM     31  C   UNL     1       6.857   5.733  17.810  0.00  0.00    +0.000 A 
ENDBRANCH  25  26
ENDBRANCH   6  25
TORSDOF 6
ENDMDL
MODEL 6
REMARK VINA RESULT:      -6.7      6.355      8.309
REMARK  Name = 
REMARK  8 active torsions:
REMARK  status: ('A' for Active; 'I' for Inactive)
REMARK    1  A    between atoms: C_1  and  C_2
REMARK    2  A    between atoms: C_2  and  C_3
REMARK    3  A    between atoms: C_2  and  N_4
REMARK    4  A    between atoms: N_9  and  C_10
REMARK    5  A    between atoms: C_10  and  C_11
REMARK    6  A    between atoms: C_18  and  C_19
REMARK    7  A    between atoms: C_20  and  C_21
REMARK    8  A    between atoms: C_21  and  O_22
REMARK                            x       y       z     vdW  Elec       q    Type
REMARK                         _______ _______ _______ _____ _____    ______ ____
ROOT
ATOM      1  N   UNL     1      -1.908  10.776  17.853  0.00  0.00    +0.000 N 
ATOM      2  C   UNL     1      -2.112  12.116  18.070  0.00  0.00    +0.000 A 
ATOM      3  N   UNL     1      -0.993  12.743  18.377  0.00  0.00    +0.000 NA
ATOM      4  C   UNL     1      -0.026  11.760  18.372  0.00  0.00    +0.000 A 
ATOM      5  C   UNL     1       1.361  11.815  18.622  0.00  0.00    +0.000 A 
ATOM      6  N   UNL     1       1.965  13.008  19.017  0.00  0.00    +0.000 N 
ATOM      7  N   UNL     1       2.065  10.653  18.531  0.00  0.00    +0.000 NA
ATOM      8  C   UNL     1       1.392   9.515  18.234  0.00  0.00    +0.000 A 
ATOM      9  N   UNL     1       0.077   9.354  17.972  0.00  0.00    +0.000 NA
ATOM     10  C   UNL     1      -0.577  10.527  18.055  0.00  0.00    +0.000 A 
ATOM     11  H   UNL     1       1.326  13.793  18.902  0.00  0.00    +0.000 HD
ENDROOT
BRANCH   1  13
ATOM     12  C   UNL     1      -4.326  10.251  17.967  0.00  0.00    +0.000 C 
ATOM     13  C   UNL     1      -2.946   9.834  17.460  0.00  0.00    +0.000 C 
ATOM     14  C   UNL     1      -2.955   9.559  15.956  0.00  0.00    +0.000 C 
ENDBRANCH   1  13
BRANCH   8  15
ATOM     15  C   UNL     1       2.170   8.312  18.211  0.00  0.00    +0.000 C 
ATOM     16  C   UNL     1       2.888   7.223  18.190  0.00  0.00    +0.000 C 
BRANCH  16  17
ATOM     17  C   UNL     1       3.724   5.954  18.166  0.00  0.00    +0.000 C 
ATOM     18  C   UNL     1       3.820   5.509  19.645  0.00  0.00    +0.000 C 
ATOM     19  C   UNL     1       2.432   5.233  20.248  0.00  0.00    +0.000 C 
ATOM     20  C   UNL     1       1.635   4.225  19.423  0.00  0.00    +0.000 C 
ATOM     21  C   UNL     1       1.626   4.524  17.922  0.00  0.00    +0.000 C 
ATOM     22  C   UNL     1       3.017   4.855  17.366  0.00  0.00    +0.000 C 
BRANCH  17  23
ATOM     23  O   UNL     1       5.008   6.215  17.633  0.00  0.00    +0.000 OA
ATOM     24  H   UNL     1       5.513   5.386  17.697  0.00  0.00    +0.000 HD
ENDBRANCH  17  23
ENDBRANCH  16  17
ENDBRANCH   8  15
BRANCH   6  25
ATOM     25  C   UNL     1       3.318  13.269  18.564  0.00  0.00    +0.000 C 
BRANCH  25  26
ATOM     26  C   UNL     1       3.753  14.642  19.039  0.00  0.00    +0.000 A 
ATOM     27  C   UNL     1       3.473  15.045  20.354  0.00  0.00    +0.000 A 
ATOM     28  C   UNL     1       3.899  16.287  20.830  0.00  0.00    +0.000 A 
ATOM     29  C   UNL     1       4.612  17.144  19.995  0.00  0.00    +0.000 A 
ATOM     30  C   UNL     1       4.897  16.759  18.685  0.00  0.00    +0.000 A 
ATOM     31  C   UNL     1       4.470  15.515  18.208  0.00  0.00    +0.000 A 
ENDBRANCH  25  26
ENDBRANCH   6  25
TORSDOF 6
ENDMDL
MODEL 7
REMARK VINA RESULT:      -6.7      9.817     12.254
REMARK  Name = 
REMARK  8 active torsions:
REMARK  status: ('A' for Active; 'I' for Inactive)
REMARK    1  A    between atoms: C_1  and  C_2
REMARK    2  A    between atoms: C_2  and  C_3
REMARK    3  A    between atoms: C_2  and  N_4
REMARK    4  A    between atoms: N_9  and  C_10
REMARK    5  A    between atoms: C_10  and  C_11
REMARK    6  A    between atoms: C_18  and  C_19
REMARK    7  A    between atoms: C_20  and  C_21
REMARK    8  A    between atoms: C_21  and  O_22
REMARK                            x       y       z     vdW  Elec       q    Type
REMARK                         _______ _______ _______ _____ _____    ______ ____
ROOT
ATOM      1  N   UNL     1      -4.505  11.468  17.499  0.00  0.00    +0.000 N 
ATOM      2  C   UNL     1      -3.703  10.990  16.493  0.00  0.00    +0.000 A 
ATOM      3  N   UNL     1      -2.427  11.008  16.827  0.00  0.00    +0.000 NA
ATOM      4  C   UNL     1      -2.403  11.535  18.100  0.00  0.00    +0.000 A 
ATOM      5  C   UNL     1      -1.333  11.797  18.981  0.00  0.00    +0.000 A 
ATOM      6  N   UNL     1      -0.015  11.588  18.580  0.00  0.00    +0.000 N 
ATOM      7  N   UNL     1      -1.635  12.325  20.200  0.00  0.00    +0.000 NA
ATOM      8  C   UNL     1      -2.934  12.589  20.483  0.00  0.00    +0.000 A 
ATOM      9  N   UNL     1      -4.027  12.372  19.720  0.00  0.00    +0.000 NA
ATOM     10  C   UNL     1      -3.686  11.835  18.534  0.00  0.00    +0.000 A 
ATOM     11  H   UNL     1       0.019  11.069  17.704  0.00  0.00    +0.000 HD
ENDROOT
BRANCH   1  13
ATOM     12  C   UNL     1      -6.618  10.747  18.571  0.00  0.00    +0.000 C 
ATOM     13  C   UNL     1      -5.958  11.534  17.439  0.00  0.00    +0.000 C 
ATOM     14  C   UNL     1      -6.481  12.968  17.366  0.00  0.00    +0.000 C 
ENDBRANCH   1  13
BRANCH   8  15
ATOM     15  C   UNL     1      -3.189  13.200  21.754  0.00  0.00    +0.000 C 
ATOM     16  C   UNL     1      -3.430  13.758  22.908  0.00  0.00    +0.000 C 
BRANCH  16  17
ATOM     17  C   UNL     1      -3.712  14.408  24.253  0.00  0.00    +0.000 C 
ATOM     18  C   UNL     1      -2.342  14.944  24.733  0.00  0.00    +0.000 C 
ATOM     19  C   UNL     1      -1.755  15.969  23.747  0.00  0.00    +0.000 C 
ATOM     20  C   UNL     1      -2.723  17.115  23.461  0.00  0.00    +0.000 C 
ATOM     21  C   UNL     1      -4.144  16.655  23.126  0.00  0.00    +0.000 C 
ATOM     22  C   UNL     1      -4.675  15.589  24.093  0.00  0.00    +0.000 C 
BRANCH  17  23
ATOM     23  O   UNL     1      -4.229  13.458  25.165  0.00  0.00    +0.000 OA
ATOM     24  H   UNL     1      -4.580  12.721  24.635  0.00  0.00    +0.000 HD
ENDBRANCH  17  23
ENDBRANCH  16  17
ENDBRANCH   8  15
BRANCH   6  25
ATOM     25  C   UNL     1       0.936  11.136  19.578  0.00  0.00    +0.000 C 
BRANCH  25  26
ATOM     26  C   UNL     1       1.428   9.749  19.212  0.00  0.00    +0.000 A 
ATOM     27  C   UNL     1       1.883   9.491  17.909  0.00  0.00    +0.000 A 
ATOM     28  C   UNL     1       2.381   8.235  17.558  0.00  0.00    +0.000 A 
ATOM     29  C   UNL     1       2.431   7.217  18.507  0.00  0.00    +0.000 A 
ATOM     30  C   UNL     1       1.981   7.455  19.806  0.00  0.00    +0.000 A 
ATOM     31  C   UNL     1       1.482   8.714  20.158  0.00  0.00    +0.000 A 
ENDBRANCH  25  26
ENDBRANCH   6  25
TORSDOF 6
ENDMDL
MODEL 8
REMARK VINA RESULT:      -6.4     10.282     12.726
REMARK  Name = 
REMARK  8 active torsions:
REMARK  status: ('A' for Active; 'I' for Inactive)
REMARK    1  A    between atoms: C_1  and  C_2
REMARK    2  A    between atoms: C_2  and  C_3
REMARK    3  A    between atoms: C_2  and  N_4
REMARK    4  A    between atoms: N_9  and  C_10
REMARK    5  A    between atoms: C_10  and  C_11
REMARK    6  A    between atoms: C_18  and  C_19
REMARK    7  A    between atoms: C_20  and  C_21
REMARK    8  A    between atoms: C_21  and  O_22
REMARK                            x       y       z     vdW  Elec       q    Type
REMARK                         _______ _______ _______ _____ _____    ______ ____
ROOT
ATOM      1  N   UNL     1      -4.975  11.235  17.900  0.00  0.00    +0.000 N 
ATOM      2  C   UNL     1      -4.238  10.742  16.853  0.00  0.00    +0.000 A 
ATOM      3  N   UNL     1      -2.949  10.980  17.001  0.00  0.00    +0.000 NA
ATOM      4  C   UNL     1      -2.852  11.670  18.190  0.00  0.00    +0.000 A 
ATOM      5  C   UNL     1      -1.737  12.193  18.878  0.00  0.00    +0.000 A 
ATOM      6  N   UNL     1      -0.460  12.115  18.323  0.00  0.00    +0.000 N 
ATOM      7  N   UNL     1      -1.966  12.831  20.059  0.00  0.00    +0.000 NA
ATOM      8  C   UNL     1      -3.246  12.949  20.488  0.00  0.00    +0.000 A 
ATOM      9  N   UNL     1      -4.377  12.484  19.915  0.00  0.00    +0.000 NA
ATOM     10  C   UNL     1      -4.104  11.846  18.762  0.00  0.00    +0.000 A 
ATOM     11  H   UNL     1      -0.453  11.494  17.516  0.00  0.00    +0.000 HD
ENDROOT
BRANCH   1  13
ATOM     12  C   UNL     1      -6.801  10.239  19.246  0.00  0.00    +0.000 C 
ATOM     13  C   UNL     1      -6.418  11.091  18.037  0.00  0.00    +0.000 C 
ATOM     14  C   UNL     1      -7.147  12.434  18.036  0.00  0.00    +0.000 C 
ENDBRANCH   1  13
BRANCH   8  15
ATOM     15  C   UNL     1      -3.436  13.682  21.705  0.00  0.00    +0.000 C 
ATOM     16  C   UNL     1      -3.619  14.346  22.812  0.00  0.00    +0.000 C 
BRANCH  16  17
ATOM     17  C   UNL     1      -3.831  15.119  24.104  0.00  0.00    +0.000 C 
ATOM     18  C   UNL     1      -2.683  16.156  24.144  0.00  0.00    +0.000 C 
ATOM     19  C   UNL     1      -2.728  17.101  22.931  0.00  0.00    +0.000 C 
ATOM     20  C   UNL     1      -4.084  17.790  22.786  0.00  0.00    +0.000 C 
ATOM     21  C   UNL     1      -5.276  16.835  22.890  0.00  0.00    +0.000 C 
ATOM     22  C   UNL     1      -5.169  15.866  24.074  0.00  0.00    +0.000 C 
BRANCH  17  23
ATOM     23  O   UNL     1      -3.765  14.251  25.219  0.00  0.00    +0.000 OA
ATOM     24  H   UNL     1      -2.823  14.067  25.377  0.00  0.00    +0.000 HD
ENDBRANCH  17  23
ENDBRANCH  16  17
ENDBRANCH   8  15
BRANCH   6  25
ATOM     25  C   UNL     1       0.663  11.936  19.223  0.00  0.00    +0.000 C 
BRANCH  25  26
ATOM     26  C   UNL     1       1.186  10.518  19.099  0.00  0.00    +0.000 A 
ATOM     27  C   UNL     1       1.013   9.615  20.161  0.00  0.00    +0.000 A 
ATOM     28  C   UNL     1       1.447   8.292  20.056  0.00  0.00    +0.000 A 
ATOM     29  C   UNL     1       2.059   7.852  18.886  0.00  0.00    +0.000 A 
ATOM     30  C   UNL     1       2.240   8.736  17.822  0.00  0.00    +0.000 A 
ATOM     31  C   UNL     1       1.806  10.062  17.926  0.00  0.00    +0.000 A 
ENDBRANCH  25  26
ENDBRANCH   6  25
TORSDOF 6
ENDMDL
MODEL 9
REMARK VINA RESULT:      -6.4      7.942     11.518
REMARK  Name = 
REMARK  8 active torsions:
REMARK  status: ('A' for Active; 'I' for Inactive)
REMARK    1  A    between atoms: C_1  and  C_2
REMARK    2  A    between atoms: C_2  and  C_3
REMARK    3  A    between atoms: C_2  and  N_4
REMARK    4  A    between atoms: N_9  and  C_10
REMARK    5  A    between atoms: C_10  and  C_11
REMARK    6  A    between atoms: C_18  and  C_19
REMARK    7  A    between atoms: C_20  and  C_21
REMARK    8  A    between atoms: C_21  and  O_22
REMARK                            x       y       z     vdW  Elec       q    Type
REMARK                         _______ _______ _______ _____ _____    ______ ____
ROOT
ATOM      1  N   UNL     1      -3.139  11.403  18.138  0.00  0.00    +0.000 N 
ATOM      2  C   UNL     1      -3.217  10.100  17.714  0.00  0.00    +0.000 A 
ATOM      3  N   UNL     1      -2.028   9.537  17.621  0.00  0.00    +0.000 NA
ATOM      4  C   UNL     1      -1.141  10.526  17.989  0.00  0.00    +0.000 A 
ATOM      5  C   UNL     1       0.266  10.528  18.089  0.00  0.00    +0.000 A 
ATOM      6  N   UNL     1       1.006   9.408  17.713  0.00  0.00    +0.000 N 
ATOM      7  N   UNL     1       0.868  11.680  18.494  0.00  0.00    +0.000 NA
ATOM      8  C   UNL     1       0.088  12.758  18.752  0.00  0.00    +0.000 A 
ATOM      9  N   UNL     1      -1.257  12.861  18.694  0.00  0.00    +0.000 NA
ATOM     10  C   UNL     1      -1.812  11.698  18.307  0.00  0.00    +0.000 A 
ATOM     11  H   UNL     1       0.398   8.604  17.568  0.00  0.00    +0.000 HD
ENDROOT
BRANCH   1  13
ATOM     12  C   UNL     1      -5.514  11.825  17.576  0.00  0.00    +0.000 C 
ATOM     13  C   UNL     1      -4.287  12.267  18.372  0.00  0.00    +0.000 C 
ATOM     14  C   UNL     1      -4.605  12.436  19.858  0.00  0.00    +0.000 C 
ENDBRANCH   1  13
BRANCH   8  15
ATOM     15  C   UNL     1       0.777  13.960  19.116  0.00  0.00    +0.000 C 
ATOM     16  C   UNL     1       1.397  15.060  19.442  0.00  0.00    +0.000 C 
BRANCH  16  17
ATOM     17  C   UNL     1       2.119  16.342  19.822  0.00  0.00    +0.000 C 
ATOM     18  C   UNL     1       3.480  16.269  19.088  0.00  0.00    +0.000 C 
ATOM     19  C   UNL     1       3.298  16.180  17.563  0.00  0.00    +0.000 C 
ATOM     20  C   UNL     1       2.441  17.320  17.017  0.00  0.00    +0.000 C 
ATOM     21  C   UNL     1       1.143  17.546  17.797  0.00  0.00    +0.000 C 
ATOM     22  C   UNL     1       1.352  17.568  19.316  0.00  0.00    +0.000 C 
BRANCH  17  23
ATOM     23  O   UNL     1       2.306  16.410  21.223  0.00  0.00    +0.000 OA
ATOM     24  H   UNL     1       1.421  16.467  21.623  0.00  0.00    +0.000 HD
ENDBRANCH  17  23
ENDBRANCH  16  17
ENDBRANCH   8  15
BRANCH   6  25
ATOM     25  C   UNL     1       2.218   9.113  18.454  0.00  0.00    +0.000 C 
BRANCH  25  26
ATOM     26  C   UNL     1       2.216   7.652  18.860  0.00  0.00    +0.000 A 
ATOM     27  C   UNL     1       1.917   7.296  20.185  0.00  0.00    +0.000 A 
ATOM     28  C   UNL     1       1.867   5.956  20.575  0.00  0.00    +0.000 A 
ATOM     29  C   UNL     1       2.116   4.952  19.643  0.00  0.00    +0.000 A 
ATOM     30  C   UNL     1       2.417   5.287  18.323  0.00  0.00    +0.000 A 
ATOM     31  C   UNL     1       2.467   6.630  17.932  0.00  0.00    +0.000 A 
ENDBRANCH  25  26
ENDBRANCH   6  25
TORSDOF 6
ENDMDL
