MODEL 1
REMARK VINA RESULT:      -7.1      0.000      0.000
REMARK  Name = 
REMARK  6 active torsions:
REMARK  status: ('A' for Active; 'I' for Inactive)
REMARK    1  A    between atoms: C_1  and  C_2
REMARK    2  A    between atoms: C_2  and  C_3
REMARK    3  A    between atoms: C_2  and  O_4
REMARK    4  A    between atoms: C_2  and  C_5
REMARK    5  A    between atoms: C_10  and  C_11
REMARK    6  A    between atoms: C_11  and  C_12
REMARK                            x       y       z     vdW  Elec       q    Type
REMARK                         _______ _______ _______ _____ _____    ______ ____
ROOT
ATOM      1  C   UNL     1       3.204   3.647  19.319  0.00  0.00    +0.000 C 
ATOM      2  O   UNL     1       3.407   3.770  20.534  0.00  0.00    +0.000 OA
ATOM      3  N   UNL     1       4.176   4.036  18.403  0.00  0.00    +0.000 N 
ATOM      4  C   UNL     1       5.526   4.290  18.907  0.00  0.00    +0.000 C 
ATOM      5  C   UNL     1       6.067   5.601  18.354  0.00  0.00    +0.000 C 
ATOM      6  C   UNL     1       6.057   5.618  16.817  0.00  0.00    +0.000 C 
ATOM      7  C   UNL     1       4.635   5.293  16.325  0.00  0.00    +0.000 C 
ATOM      8  C   UNL     1       4.049   4.020  16.945  0.00  0.00    +0.000 C 
ENDROOT
BRANCH   1  10
ATOM      9  C   UNL     1       1.246   4.118  17.797  0.00  0.00    +0.000 C 
ATOM     10  C   UNL     1       1.812   3.133  18.827  0.00  0.00    +0.000 C 
ATOM     11  C   UNL     1       0.874   3.068  20.043  0.00  0.00    +0.000 C 
BRANCH  10  12
ATOM     12  O   UNL     1       1.820   1.823  18.264  0.00  0.00    +0.000 OA
ATOM     13  H   UNL     1       0.924   1.454  18.360  0.00  0.00    +0.000 HD
ENDBRANCH  10  12
ENDBRANCH   1  10
BRANCH   6  14
ATOM     14  C   UNL     1       7.084   4.659  16.175  0.00  0.00    +0.000 C 
BRANCH  14  15
ATOM     15  C   UNL     1       7.027   4.572  14.668  0.00  0.00    +0.000 A 
ATOM     16  C   UNL     1       7.830   5.411  13.883  0.00  0.00    +0.000 A 
ATOM     17  C   UNL     1       7.822   5.305  12.493  0.00  0.00    +0.000 A 
ATOM     18  C   UNL     1       7.005   4.364  11.869  0.00  0.00    +0.000 A 
ATOM     19  C   UNL     1       6.200   3.529  12.641  0.00  0.00    +0.000 A 
ATOM     20  C   UNL     1       6.211   3.629  14.031  0.00  0.00    +0.000 A 
ENDBRANCH  14  15
ENDBRANCH   6  14
TORSDOF 4
ENDMDL
MODEL 2
REMARK VINA RESULT:      -7.0      0.695      1.448
REMARK  Name = 
REMARK  6 active torsions:
REMARK  status: ('A' for Active; 'I' for Inactive)
REMARK    1  A    between atoms: C_1  and  C_2
REMARK    2  A    between atoms: C_2  and  C_3
REMARK    3  A    between atoms: C_2  and  O_4
REMARK    4  A    between atoms: C_2  and  C_5
REMARK    5  A    between atoms: C_10  and  C_11
REMARK    6  A    between atoms: C_11  and  C_12
REMARK                            x       y       z     vdW  Elec       q    Type
REMARK                         _______ _______ _______ _____ _____    ______ ____
ROOT
ATOM      1  C   UNL     1       3.150   4.038  19.349  0.00  0.00    +0.000 C 
ATOM      2  O   UNL     1       3.352   4.245  20.553  0.00  0.00    +0.000 OA
ATOM      3  N   UNL     1       4.135   4.334  18.412  0.00  0.00    +0.000 N 
ATOM      4  C   UNL     1       5.489   4.591  18.902  0.00  0.00    +0.000 C 
ATOM      5  C   UNL     1       6.064   5.844  18.257  0.00  0.00    +0.000 C 
ATOM      6  C   UNL     1       6.059   5.748  16.723  0.00  0.00    +0.000 C 
ATOM      7  C   UNL     1       4.632   5.422  16.249  0.00  0.00    +0.000 C 
ATOM      8  C   UNL     1       4.012   4.213  16.958  0.00  0.00    +0.000 C 
ENDROOT
BRANCH   1  10
ATOM      9  C   UNL     1       0.741   3.716  20.030  0.00  0.00    +0.000 C 
ATOM     10  C   UNL     1       1.747   3.524  18.889  0.00  0.00    +0.000 C 
ATOM     11  C   UNL     1       1.875   2.027  18.565  0.00  0.00    +0.000 C 
BRANCH  10  12
ATOM     12  O   UNL     1       1.238   4.141  17.708  0.00  0.00    +0.000 OA
ATOM     13  H   UNL     1       1.854   4.851  17.457  0.00  0.00    +0.000 HD
ENDBRANCH  10  12
ENDBRANCH   1  10
BRANCH   6  14
ATOM     14  C   UNL     1       7.064   4.719  16.158  0.00  0.00    +0.000 C 
BRANCH  14  15
ATOM     15  C   UNL     1       7.047   4.561  14.657  0.00  0.00    +0.000 A 
ATOM     16  C   UNL     1       6.214   3.604  14.059  0.00  0.00    +0.000 A 
ATOM     17  C   UNL     1       6.154   3.483  12.671  0.00  0.00    +0.000 A 
ATOM     18  C   UNL     1       6.931   4.311  11.864  0.00  0.00    +0.000 A 
ATOM     19  C   UNL     1       7.765   5.261  12.449  0.00  0.00    +0.000 A 
ATOM     20  C   UNL     1       7.823   5.388  13.836  0.00  0.00    +0.000 A 
ENDBRANCH  14  15
ENDBRANCH   6  14
TORSDOF 4
ENDMDL
MODEL 3
REMARK VINA RESULT:      -6.9      0.995      1.608
REMARK  Name = 
REMARK  6 active torsions:
REMARK  status: ('A' for Active; 'I' for Inactive)
REMARK    1  A    between atoms: C_1  and  C_2
REMARK    2  A    between atoms: C_2  and  C_3
REMARK    3  A    between atoms: C_2  and  O_4
REMARK    4  A    between atoms: C_2  and  C_5
REMARK    5  A    between atoms: C_10  and  C_11
REMARK    6  A    between atoms: C_11  and  C_12
REMARK                            x       y       z     vdW  Elec       q    Type
REMARK                         _______ _______ _______ _____ _____    ______ ____
ROOT
ATOM      1  C   UNL     1       2.926   4.121  20.002  0.00  0.00    +0.000 C 
ATOM      2  O   UNL     1       2.930   4.976  20.898  0.00  0.00    +0.000 OA
ATOM      3  N   UNL     1       3.686   4.306  18.852  0.00  0.00    +0.000 N 
ATOM      4  C   UNL     1       4.704   5.357  18.868  0.00  0.00    +0.000 C 
ATOM      5  C   UNL     1       4.617   6.207  17.608  0.00  0.00    +0.000 C 
ATOM      6  C   UNL     1       4.749   5.354  16.336  0.00  0.00    +0.000 C 
ATOM      7  C   UNL     1       3.701   4.228  16.382  0.00  0.00    +0.000 C 
ATOM      8  C   UNL     1       3.723   3.423  17.686  0.00  0.00    +0.000 C 
ENDROOT
BRANCH   1  10
ATOM      9  C   UNL     1       0.659   3.162  19.443  0.00  0.00    +0.000 C 
ATOM     10  C   UNL     1       1.992   2.874  20.142  0.00  0.00    +0.000 C 
ATOM     11  C   UNL     1       1.745   2.634  21.640  0.00  0.00    +0.000 C 
BRANCH  10  12
ATOM     12  O   UNL     1       2.533   1.657  19.632  0.00  0.00    +0.000 OA
ATOM     13  H   UNL     1       1.898   1.299  18.988  0.00  0.00    +0.000 HD
ENDBRANCH  10  12
ENDBRANCH   1  10
BRANCH   6  14
ATOM     14  C   UNL     1       6.162   4.769  16.120  0.00  0.00    +0.000 C 
BRANCH  14  15
ATOM     15  C   UNL     1       6.567   4.583  14.677  0.00  0.00    +0.000 A 
ATOM     16  C   UNL     1       5.903   3.644  13.875  0.00  0.00    +0.000 A 
ATOM     17  C   UNL     1       6.235   3.499  12.528  0.00  0.00    +0.000 A 
ATOM     18  C   UNL     1       7.241   4.284  11.969  0.00  0.00    +0.000 A 
ATOM     19  C   UNL     1       7.910   5.216  12.760  0.00  0.00    +0.000 A 
ATOM     20  C   UNL     1       7.576   5.367  14.104  0.00  0.00    +0.000 A 
ENDBRANCH  14  15
ENDBRANCH   6  14
TORSDOF 4
ENDMDL
MODEL 4
REMARK VINA RESULT:      -6.9      1.254      2.199
REMARK  Name = 
REMARK  6 active torsions:
REMARK  status: ('A' for Active; 'I' for Inactive)
REMARK    1  A    between atoms: C_1  and  C_2
REMARK    2  A    between atoms: C_2  and  C_3
REMARK    3  A    between atoms: C_2  and  O_4
REMARK    4  A    between atoms: C_2  and  C_5
REMARK    5  A    between atoms: C_10  and  C_11
REMARK    6  A    between atoms: C_11  and  C_12
REMARK                            x       y       z     vdW  Elec       q    Type
REMARK                         _______ _______ _______ _____ _____    ______ ____
ROOT
ATOM      1  C   UNL     1       3.434   3.268  19.426  0.00  0.00    +0.000 C 
ATOM      2  O   UNL     1       3.797   2.093  19.575  0.00  0.00    +0.000 OA
ATOM      3  N   UNL     1       3.989   4.052  18.421  0.00  0.00    +0.000 N 
ATOM      4  C   UNL     1       4.760   3.378  17.376  0.00  0.00    +0.000 C 
ATOM      5  C   UNL     1       6.079   4.098  17.134  0.00  0.00    +0.000 C 
ATOM      6  C   UNL     1       5.863   5.576  16.771  0.00  0.00    +0.000 C 
ATOM      7  C   UNL     1       5.003   6.236  17.863  0.00  0.00    +0.000 C 
ATOM      8  C   UNL     1       3.713   5.468  18.175  0.00  0.00    +0.000 C 
ENDROOT
BRANCH   1  10
ATOM      9  C   UNL     1       2.296   2.964  21.659  0.00  0.00    +0.000 C 
ATOM     10  C   UNL     1       2.408   3.881  20.435  0.00  0.00    +0.000 C 
ATOM     11  C   UNL     1       1.045   3.967  19.731  0.00  0.00    +0.000 C 
BRANCH  10  12
ATOM     12  O   UNL     1       2.711   5.205  20.870  0.00  0.00    +0.000 OA
ATOM     13  H   UNL     1       2.741   5.197  21.843  0.00  0.00    +0.000 HD
ENDBRANCH  10  12
ENDBRANCH   1  10
BRANCH   6  14
ATOM     14  C   UNL     1       5.227   5.790  15.379  0.00  0.00    +0.000 C 
BRANCH  14  15
ATOM     15  C   UNL     1       5.894   5.046  14.247  0.00  0.00    +0.000 A 
ATOM     16  C   UNL     1       5.209   4.024  13.575  0.00  0.00    +0.000 A 
ATOM     17  C   UNL     1       5.797   3.364  12.496  0.00  0.00    +0.000 A 
ATOM     18  C   UNL     1       7.081   3.712  12.081  0.00  0.00    +0.000 A 
ATOM     19  C   UNL     1       7.771   4.724  12.746  0.00  0.00    +0.000 A 
ATOM     20  C   UNL     1       7.184   5.389  13.820  0.00  0.00    +0.000 A 
ENDBRANCH  14  15
ENDBRANCH   6  14
TORSDOF 4
ENDMDL
MODEL 5
REMARK VINA RESULT:      -6.8      0.883      1.005
REMARK  Name = 
REMARK  6 active torsions:
REMARK  status: ('A' for Active; 'I' for Inactive)
REMARK    1  A    between atoms: C_1  and  C_2
REMARK    2  A    between atoms: C_2  and  C_3
REMARK    3  A    between atoms: C_2  and  O_4
REMARK    4  A    between atoms: C_2  and  C_5
REMARK    5  A    between atoms: C_10  and  C_11
REMARK    6  A    between atoms: C_11  and  C_12
REMARK                            x       y       z     vdW  Elec       q    Type
REMARK                         _______ _______ _______ _____ _____    ______ ____
ROOT
ATOM      1  C   UNL     1       3.043   3.844  19.960  0.00  0.00    +0.000 C 
ATOM      2  O   UNL     1       3.186   4.566  20.956  0.00  0.00    +0.000 OA
ATOM      3  N   UNL     1       3.793   4.076  18.811  0.00  0.00    +0.000 N 
ATOM      4  C   UNL     1       4.946   4.971  18.918  0.00  0.00    +0.000 C 
ATOM      5  C   UNL     1       4.946   5.982  17.781  0.00  0.00    +0.000 C 
ATOM      6  C   UNL     1       4.927   5.294  16.406  0.00  0.00    +0.000 C 
ATOM      7  C   UNL     1       3.735   4.322  16.353  0.00  0.00    +0.000 C 
ATOM      8  C   UNL     1       3.679   3.357  17.542  0.00  0.00    +0.000 C 
ENDROOT
BRANCH   1  10
ATOM      9  C   UNL     1       0.698   3.231  19.254  0.00  0.00    +0.000 C 
ATOM     10  C   UNL     1       1.950   2.726  19.981  0.00  0.00    +0.000 C 
ATOM     11  C   UNL     1       1.606   2.427  21.449  0.00  0.00    +0.000 C 
BRANCH  10  12
ATOM     12  O   UNL     1       2.351   1.482  19.409  0.00  0.00    +0.000 OA
ATOM     13  H   UNL     1       2.033   0.772  19.993  0.00  0.00    +0.000 HD
ENDBRANCH  10  12
ENDBRANCH   1  10
BRANCH   6  14
ATOM     14  C   UNL     1       6.241   4.559  16.058  0.00  0.00    +0.000 C 
BRANCH  14  15
ATOM     15  C   UNL     1       6.565   4.486  14.585  0.00  0.00    +0.000 A 
ATOM     16  C   UNL     1       7.552   5.320  14.039  0.00  0.00    +0.000 A 
ATOM     17  C   UNL     1       7.894   5.227  12.690  0.00  0.00    +0.000 A 
ATOM     18  C   UNL     1       7.248   4.305  11.869  0.00  0.00    +0.000 A 
ATOM     19  C   UNL     1       6.263   3.476  12.401  0.00  0.00    +0.000 A 
ATOM     20  C   UNL     1       5.923   3.563  13.750  0.00  0.00    +0.000 A 
ENDBRANCH  14  15
ENDBRANCH   6  14
TORSDOF 4
ENDMDL
MODEL 6
REMARK VINA RESULT:      -6.7      1.248      1.931
REMARK  Name = 
REMARK  6 active torsions:
REMARK  status: ('A' for Active; 'I' for Inactive)
REMARK    1  A    between atoms: C_1  and  C_2
REMARK    2  A    between atoms: C_2  and  C_3
REMARK    3  A    between atoms: C_2  and  O_4
REMARK    4  A    between atoms: C_2  and  C_5
REMARK    5  A    between atoms: C_10  and  C_11
REMARK    6  A    between atoms: C_11  and  C_12
REMARK                            x       y       z     vdW  Elec       q    Type
REMARK                         _______ _______ _______ _____ _____    ______ ____
ROOT
ATOM      1  C   UNL     1       3.427   3.219  19.359  0.00  0.00    +0.000 C 
ATOM      2  O   UNL     1       3.739   2.025  19.459  0.00  0.00    +0.000 OA
ATOM      3  N   UNL     1       3.998   4.014  18.371  0.00  0.00    +0.000 N 
ATOM      4  C   UNL     1       4.718   3.344  17.287  0.00  0.00    +0.000 C 
ATOM      5  C   UNL     1       6.063   4.013  17.044  0.00  0.00    +0.000 C 
ATOM      6  C   UNL     1       5.908   5.511  16.738  0.00  0.00    +0.000 C 
ATOM      7  C   UNL     1       5.100   6.169  17.870  0.00  0.00    +0.000 C 
ATOM      8  C   UNL     1       3.783   5.449  18.181  0.00  0.00    +0.000 C 
ENDROOT
BRANCH   1  10
ATOM      9  C   UNL     1       2.347   2.904  21.619  0.00  0.00    +0.000 C 
ATOM     10  C   UNL     1       2.450   3.841  20.410  0.00  0.00    +0.000 C 
ATOM     11  C   UNL     1       1.069   3.979  19.750  0.00  0.00    +0.000 C 
BRANCH  10  12
ATOM     12  O   UNL     1       2.804   5.147  20.861  0.00  0.00    +0.000 OA
ATOM     13  H   UNL     1       2.079   5.472  21.423  0.00  0.00    +0.000 HD
ENDBRANCH  10  12
ENDBRANCH   1  10
BRANCH   6  14
ATOM     14  C   UNL     1       5.256   5.804  15.368  0.00  0.00    +0.000 C 
BRANCH  14  15
ATOM     15  C   UNL     1       5.866   5.072  14.196  0.00  0.00    +0.000 A 
ATOM     16  C   UNL     1       7.173   5.371  13.783  0.00  0.00    +0.000 A 
ATOM     17  C   UNL     1       7.764   4.667  12.734  0.00  0.00    +0.000 A 
ATOM     18  C   UNL     1       7.054   3.662  12.080  0.00  0.00    +0.000 A 
ATOM     19  C   UNL     1       5.754   3.362  12.481  0.00  0.00    +0.000 A 
ATOM     20  C   UNL     1       5.162   4.060  13.533  0.00  0.00    +0.000 A 
ENDBRANCH  14  15
ENDBRANCH   6  14
TORSDOF 4
ENDMDL
MODEL 7
REMARK VINA RESULT:      -6.6      0.773      1.053
REMARK  Name = 
REMARK  6 active torsions:
REMARK  status: ('A' for Active; 'I' for Inactive)
REMARK    1  A    between atoms: C_1  and  C_2
REMARK    2  A    between atoms: C_2  and  C_3
REMARK    3  A    between atoms: C_2  and  O_4
REMARK    4  A    between atoms: C_2  and  C_5
REMARK    5  A    between atoms: C_10  and  C_11
REMARK    6  A    between atoms: C_11  and  C_12
REMARK                            x       y       z     vdW  Elec       q    Type
REMARK                         _______ _______ _______ _____ _____    ______ ____
ROOT
ATOM      1  C   UNL     1       3.098   4.028  19.464  0.00  0.00    +0.000 C 
ATOM      2  O   UNL     1       3.321   4.170  20.674  0.00  0.00    +0.000 OA
ATOM      3  N   UNL     1       4.089   4.313  18.530  0.00  0.00    +0.000 N 
ATOM      4  C   UNL     1       5.459   4.478  19.016  0.00  0.00    +0.000 C 
ATOM      5  C   UNL     1       6.092   5.727  18.420  0.00  0.00    +0.000 C 
ATOM      6  C   UNL     1       6.069   5.700  16.884  0.00  0.00    +0.000 C 
ATOM      7  C   UNL     1       4.623   5.469  16.412  0.00  0.00    +0.000 C 
ATOM      8  C   UNL     1       3.947   4.263  17.074  0.00  0.00    +0.000 C 
ENDROOT
BRANCH   1  10
ATOM      9  C   UNL     1       1.692   2.141  18.549  0.00  0.00    +0.000 C 
ATOM     10  C   UNL     1       1.666   3.607  18.998  0.00  0.00    +0.000 C 
ATOM     11  C   UNL     1       1.273   4.500  17.810  0.00  0.00    +0.000 C 
BRANCH  10  12
ATOM     12  O   UNL     1       0.642   3.777  19.975  0.00  0.00    +0.000 OA
ATOM     13  H   UNL     1       1.035   4.234  20.739  0.00  0.00    +0.000 HD
ENDBRANCH  10  12
ENDBRANCH   1  10
BRANCH   6  14
ATOM     14  C   UNL     1       7.015   4.646  16.264  0.00  0.00    +0.000 C 
BRANCH  14  15
ATOM     15  C   UNL     1       6.964   4.544  14.758  0.00  0.00    +0.000 A 
ATOM     16  C   UNL     1       7.792   5.355  13.969  0.00  0.00    +0.000 A 
ATOM     17  C   UNL     1       7.789   5.234  12.579  0.00  0.00    +0.000 A 
ATOM     18  C   UNL     1       6.951   4.307  11.961  0.00  0.00    +0.000 A 
ATOM     19  C   UNL     1       6.122   3.500  12.737  0.00  0.00    +0.000 A 
ATOM     20  C   UNL     1       6.127   3.615  14.127  0.00  0.00    +0.000 A 
ENDBRANCH  14  15
ENDBRANCH   6  14
TORSDOF 4
ENDMDL
MODEL 8
REMARK VINA RESULT:      -6.6      3.783      5.109
REMARK  Name = 
REMARK  6 active torsions:
REMARK  status: ('A' for Active; 'I' for Inactive)
REMARK    1  A    between atoms: C_1  and  C_2
REMARK    2  A    between atoms: C_2  and  C_3
REMARK    3  A    between atoms: C_2  and  O_4
REMARK    4  A    between atoms: C_2  and  C_5
REMARK    5  A    between atoms: C_10  and  C_11
REMARK    6  A    between atoms: C_11  and  C_12
REMARK                            x       y       z     vdW  Elec       q    Type
REMARK                         _______ _______ _______ _____ _____    ______ ____
ROOT
ATOM      1  C   UNL     1       1.540   8.625  19.901  0.00  0.00    +0.000 C 
ATOM      2  O   UNL     1       1.495   9.406  18.941  0.00  0.00    +0.000 OA
ATOM      3  N   UNL     1       2.062   7.346  19.741  0.00  0.00    +0.000 N 
ATOM      4  C   UNL     1       2.824   7.067  18.523  0.00  0.00    +0.000 C 
ATOM      5  C   UNL     1       2.372   5.756  17.897  0.00  0.00    +0.000 C 
ATOM      6  C   UNL     1       2.490   4.583  18.883  0.00  0.00    +0.000 C 
ATOM      7  C   UNL     1       1.724   4.936  20.170  0.00  0.00    +0.000 C 
ATOM      8  C   UNL     1       2.112   6.297  20.760  0.00  0.00    +0.000 C 
ENDROOT
BRANCH   1  10
ATOM      9  C   UNL     1      -0.387   8.304  21.500  0.00  0.00    +0.000 C 
ATOM     10  C   UNL     1       0.924   9.065  21.269  0.00  0.00    +0.000 C 
ATOM     11  C   UNL     1       0.636  10.572  21.197  0.00  0.00    +0.000 C 
BRANCH  10  12
ATOM     12  O   UNL     1       1.775   8.880  22.399  0.00  0.00    +0.000 OA
ATOM     13  H   UNL     1       1.323   9.257  23.174  0.00  0.00    +0.000 HD
ENDBRANCH  10  12
ENDBRANCH   1  10
BRANCH   6  14
ATOM     14  C   UNL     1       3.948   4.188  19.212  0.00  0.00    +0.000 C 
BRANCH  14  15
ATOM     15  C   UNL     1       4.928   4.346  18.075  0.00  0.00    +0.000 A 
ATOM     16  C   UNL     1       6.097   5.101  18.252  0.00  0.00    +0.000 A 
ATOM     17  C   UNL     1       7.033   5.213  17.224  0.00  0.00    +0.000 A 
ATOM     18  C   UNL     1       6.808   4.579  16.004  0.00  0.00    +0.000 A 
ATOM     19  C   UNL     1       5.648   3.831  15.817  0.00  0.00    +0.000 A 
ATOM     20  C   UNL     1       4.713   3.712  16.845  0.00  0.00    +0.000 A 
ENDBRANCH  14  15
ENDBRANCH   6  14
TORSDOF 4
ENDMDL
MODEL 9
REMARK VINA RESULT:      -6.5      1.357      1.982
REMARK  Name = 
REMARK  6 active torsions:
REMARK  status: ('A' for Active; 'I' for Inactive)
REMARK    1  A    between atoms: C_1  and  C_2
REMARK    2  A    between atoms: C_2  and  C_3
REMARK    3  A    between atoms: C_2  and  O_4
REMARK    4  A    between atoms: C_2  and  C_5
REMARK    5  A    between atoms: C_10  and  C_11
REMARK    6  A    between atoms: C_11  and  C_12
REMARK                            x       y       z     vdW  Elec       q    Type
REMARK                         _______ _______ _______ _____ _____    ______ ____
ROOT
ATOM      1  C   UNL     1       2.916   3.013  19.933  0.00  0.00    +0.000 C 
ATOM      2  O   UNL     1       3.609   2.202  20.561  0.00  0.00    +0.000 OA
ATOM      3  N   UNL     1       3.366   3.532  18.724  0.00  0.00    +0.000 N 
ATOM      4  C   UNL     1       4.503   2.874  18.079  0.00  0.00    +0.000 C 
ATOM      5  C   UNL     1       5.533   3.901  17.629  0.00  0.00    +0.000 C 
ATOM      6  C   UNL     1       4.918   4.950  16.689  0.00  0.00    +0.000 C 
ATOM      7  C   UNL     1       3.695   5.579  17.378  0.00  0.00    +0.000 C 
ATOM      8  C   UNL     1       2.694   4.548  17.913  0.00  0.00    +0.000 C 
ENDROOT
BRANCH   1  10
ATOM      9  C   UNL     1       1.640   5.029  20.759  0.00  0.00    +0.000 C 
ATOM     10  C   UNL     1       1.571   3.510  20.557  0.00  0.00    +0.000 C 
ATOM     11  C   UNL     1       1.397   2.820  21.919  0.00  0.00    +0.000 C 
BRANCH  10  12
ATOM     12  O   UNL     1       0.404   3.192  19.802  0.00  0.00    +0.000 OA
ATOM     13  H   UNL     1       0.604   3.360  18.864  0.00  0.00    +0.000 HD
ENDBRANCH  10  12
ENDBRANCH   1  10
BRANCH   6  14
ATOM     14  C   UNL     1       4.530   4.392  15.301  0.00  0.00    +0.000 C 
BRANCH  14  15
ATOM     15  C   UNL     1       5.637   4.396  14.274  0.00  0.00    +0.000 A 
ATOM     16  C   UNL     1       5.556   3.565  13.148  0.00  0.00    +0.000 A 
ATOM     17  C   UNL     1       6.549   3.597  12.169  0.00  0.00    +0.000 A 
ATOM     18  C   UNL     1       7.639   4.454  12.308  0.00  0.00    +0.000 A 
ATOM     19  C   UNL     1       7.730   5.280  13.426  0.00  0.00    +0.000 A 
ATOM     20  C   UNL     1       6.736   5.255  14.403  0.00  0.00    +0.000 A 
ENDBRANCH  14  15
ENDBRANCH   6  14
TORSDOF 4
ENDMDL
