MODEL 1
REMARK VINA RESULT:      -7.2      0.000      0.000
REMARK  Name = 
REMARK  5 active torsions:
REMARK  status: ('A' for Active; 'I' for Inactive)
REMARK    1  A    between atoms: C_1  and  C_2
REMARK    2  A    between atoms: C_2  and  C_3
REMARK    3  A    between atoms: C_2  and  C_4
REMARK    4  A    between atoms: C_7  and  N_8
REMARK    5  A    between atoms: C_19  and  C_20
REMARK                            x       y       z     vdW  Elec       q    Type
REMARK                         _______ _______ _______ _____ _____    ______ ____
ROOT
ATOM      1  N   UNL     1       1.914   8.154  18.717  0.00  0.00    +0.000 N 
ATOM      2  C   UNL     1       1.452   8.109  20.015  0.00  0.00    +0.000 C 
ATOM      3  O   UNL     1       1.776   7.255  20.834  0.00  0.00    +0.000 OA
ATOM      4  N   UNL     1       0.627   9.166  20.389  0.00  0.00    +0.000 N 
ATOM      5  C   UNL     1       0.215   9.174  21.800  0.00  0.00    +0.000 C 
ATOM      6  C   UNL     1      -0.075  10.587  22.313  0.00  0.00    +0.000 C 
ATOM      7  N   UNL     1      -1.047  11.219  21.424  0.00  0.00    +0.000 N 
ATOM      8  C   UNL     1      -2.021  12.022  21.953  0.00  0.00    +0.000 A 
ATOM      9  N   UNL     1      -2.158  12.076  23.289  0.00  0.00    +0.000 NA
ATOM     10  C   UNL     1      -3.151  12.814  23.812  0.00  0.00    +0.000 A 
ATOM     11  C   UNL     1      -4.039  13.513  23.046  0.00  0.00    +0.000 A 
ATOM     12  C   UNL     1      -3.841  13.395  21.692  0.00  0.00    +0.000 A 
ATOM     13  N   UNL     1      -2.849  12.671  21.129  0.00  0.00    +0.000 NA
ATOM     14  C   UNL     1      -0.671  11.290  20.013  0.00  0.00    +0.000 C 
ATOM     15  C   UNL     1      -0.302   9.878  19.492  0.00  0.00    +0.000 C 
ATOM     16  H   UNL     1       1.876   9.052  18.265  0.00  0.00    +0.000 HD
ENDROOT
BRANCH   1  20
ATOM     17  C   UNL     1       4.627   5.366  16.990  0.00  0.00    +0.000 A 
ATOM     18  C   UNL     1       3.476   4.916  17.648  0.00  0.00    +0.000 A 
ATOM     19  C   UNL     1       2.568   5.821  18.205  0.00  0.00    +0.000 A 
ATOM     20  C   UNL     1       2.786   7.199  18.133  0.00  0.00    +0.000 A 
ATOM     21  C   UNL     1       3.922   7.658  17.460  0.00  0.00    +0.000 A 
ATOM     22  C   UNL     1       4.836   6.750  16.903  0.00  0.00    +0.000 A 
BRANCH  17  24
ATOM     23  C   UNL     1       5.575   4.398  14.866  0.00  0.00    +0.000 C 
ATOM     24  C   UNL     1       5.598   4.364  16.395  0.00  0.00    +0.000 C 
ATOM     25  C   UNL     1       7.021   4.575  16.919  0.00  0.00    +0.000 C 
ENDBRANCH  17  24
ENDBRANCH   1  20
BRANCH  12  26
ATOM     26  C   UNL     1      -4.730  14.044  20.772  0.00  0.00    +0.000 C 
ATOM     27  N   UNL     1      -5.466  14.530  20.018  0.00  0.00    +0.000 NA
ENDBRANCH  12  26
TORSDOF 3
ENDMDL
MODEL 2
REMARK VINA RESULT:      -7.0      2.649     10.710
REMARK  Name = 
REMARK  5 active torsions:
REMARK  status: ('A' for Active; 'I' for Inactive)
REMARK    1  A    between atoms: C_1  and  C_2
REMARK    2  A    between atoms: C_2  and  C_3
REMARK    3  A    between atoms: C_2  and  C_4
REMARK    4  A    between atoms: C_7  and  N_8
REMARK    5  A    between atoms: C_19  and  C_20
REMARK                            x       y       z     vdW  Elec       q    Type
REMARK                         _______ _______ _______ _____ _____    ______ ____
ROOT
ATOM      1  N   UNL     1      -1.246  11.828  22.836  0.00  0.00    +0.000 N 
ATOM      2  C   UNL     1      -1.071  11.505  21.507  0.00  0.00    +0.000 C 
ATOM      3  O   UNL     1      -1.509  12.169  20.572  0.00  0.00    +0.000 OA
ATOM      4  N   UNL     1      -0.277  10.387  21.267  0.00  0.00    +0.000 N 
ATOM      5  C   UNL     1      -0.007  10.100  19.851  0.00  0.00    +0.000 C 
ATOM      6  C   UNL     1       1.321   9.364  19.651  0.00  0.00    +0.000 C 
ATOM      7  N   UNL     1       1.328   8.171  20.493  0.00  0.00    +0.000 N 
ATOM      8  C   UNL     1       1.888   7.015  20.019  0.00  0.00    +0.000 A 
ATOM      9  N   UNL     1       2.268   6.962  18.731  0.00  0.00    +0.000 NA
ATOM     10  C   UNL     1       2.761   5.812  18.245  0.00  0.00    +0.000 A 
ATOM     11  C   UNL     1       2.890   4.681  18.999  0.00  0.00    +0.000 A 
ATOM     12  C   UNL     1       2.467   4.812  20.300  0.00  0.00    +0.000 A 
ATOM     13  N   UNL     1       1.976   5.955  20.828  0.00  0.00    +0.000 NA
ATOM     14  C   UNL     1       1.117   8.397  21.923  0.00  0.00    +0.000 C 
ATOM     15  C   UNL     1      -0.186   9.205  22.143  0.00  0.00    +0.000 C 
ATOM     16  H   UNL     1      -0.574  11.442  23.477  0.00  0.00    +0.000 HD
ENDROOT
BRANCH   1  20
ATOM     17  C   UNL     1      -3.547  15.082  24.330  0.00  0.00    +0.000 A 
ATOM     18  C   UNL     1      -2.214  15.277  23.950  0.00  0.00    +0.000 A 
ATOM     19  C   UNL     1      -1.451  14.221  23.442  0.00  0.00    +0.000 A 
ATOM     20  C   UNL     1      -1.991  12.939  23.309  0.00  0.00    +0.000 A 
ATOM     21  C   UNL     1      -3.328  12.741  23.667  0.00  0.00    +0.000 A 
ATOM     22  C   UNL     1      -4.093  13.799  24.179  0.00  0.00    +0.000 A 
BRANCH  17  24
ATOM     23  C   UNL     1      -3.490  17.495  25.054  0.00  0.00    +0.000 C 
ATOM     24  C   UNL     1      -4.353  16.243  24.880  0.00  0.00    +0.000 C 
ATOM     25  C   UNL     1      -5.576  16.546  24.010  0.00  0.00    +0.000 C 
ENDBRANCH  17  24
ENDBRANCH   1  20
BRANCH  12  26
ATOM     26  C   UNL     1       2.508   3.688  21.190  0.00  0.00    +0.000 C 
ATOM     27  N   UNL     1       2.513   2.758  21.884  0.00  0.00    +0.000 NA
ENDBRANCH  12  26
TORSDOF 3
ENDMDL
MODEL 3
REMARK VINA RESULT:      -7.0      1.629      2.502
REMARK  Name = 
REMARK  5 active torsions:
REMARK  status: ('A' for Active; 'I' for Inactive)
REMARK    1  A    between atoms: C_1  and  C_2
REMARK    2  A    between atoms: C_2  and  C_3
REMARK    3  A    between atoms: C_2  and  C_4
REMARK    4  A    between atoms: C_7  and  N_8
REMARK    5  A    between atoms: C_19  and  C_20
REMARK                            x       y       z     vdW  Elec       q    Type
REMARK                         _______ _______ _______ _____ _____    ______ ____
ROOT
ATOM      1  N   UNL     1       2.100   8.143  18.963  0.00  0.00    +0.000 N 
ATOM      2  C   UNL     1       1.284   9.052  18.323  0.00  0.00    +0.000 C 
ATOM      3  O   UNL     1       1.120   9.096  17.108  0.00  0.00    +0.000 OA
ATOM      4  N   UNL     1       0.567   9.900  19.162  0.00  0.00    +0.000 N 
ATOM      5  C   UNL     1      -0.378  10.801  18.487  0.00  0.00    +0.000 C 
ATOM      6  C   UNL     1      -1.557  11.185  19.386  0.00  0.00    +0.000 C 
ATOM      7  N   UNL     1      -1.035  11.729  20.637  0.00  0.00    +0.000 N 
ATOM      8  C   UNL     1      -1.671  12.786  21.230  0.00  0.00    +0.000 A 
ATOM      9  N   UNL     1      -2.661  13.401  20.560  0.00  0.00    +0.000 NA
ATOM     10  C   UNL     1      -3.248  14.477  21.110  0.00  0.00    +0.000 A 
ATOM     11  C   UNL     1      -2.881  14.985  22.323  0.00  0.00    +0.000 A 
ATOM     12  C   UNL     1      -1.854  14.309  22.937  0.00  0.00    +0.000 A 
ATOM     13  N   UNL     1      -1.246  13.218  22.421  0.00  0.00    +0.000 NA
ATOM     14  C   UNL     1      -0.129  10.857  21.384  0.00  0.00    +0.000 C 
ATOM     15  C   UNL     1       1.034  10.397  20.470  0.00  0.00    +0.000 C 
ATOM     16  H   UNL     1       1.890   7.966  19.931  0.00  0.00    +0.000 HD
ENDROOT
BRANCH   1  20
ATOM     17  C   UNL     1       4.592   5.294  17.018  0.00  0.00    +0.000 A 
ATOM     18  C   UNL     1       3.490   4.870  17.770  0.00  0.00    +0.000 A 
ATOM     19  C   UNL     1       2.653   5.796  18.400  0.00  0.00    +0.000 A 
ATOM     20  C   UNL     1       2.897   7.168  18.310  0.00  0.00    +0.000 A 
ATOM     21  C   UNL     1       3.983   7.601  17.543  0.00  0.00    +0.000 A 
ATOM     22  C   UNL     1       4.825   6.673  16.912  0.00  0.00    +0.000 A 
BRANCH  17  24
ATOM     23  C   UNL     1       5.376   4.344  14.819  0.00  0.00    +0.000 C 
ATOM     24  C   UNL     1       5.486   4.270  16.344  0.00  0.00    +0.000 C 
ATOM     25  C   UNL     1       6.944   4.412  16.789  0.00  0.00    +0.000 C 
ENDBRANCH  17  24
ENDBRANCH   1  20
BRANCH  12  26
ATOM     26  C   UNL     1      -1.342  14.762  24.197  0.00  0.00    +0.000 C 
ATOM     27  N   UNL     1      -0.889  15.140  25.197  0.00  0.00    +0.000 NA
ENDBRANCH  12  26
TORSDOF 3
ENDMDL
MODEL 4
REMARK VINA RESULT:      -7.0      2.483     10.594
REMARK  Name = 
REMARK  5 active torsions:
REMARK  status: ('A' for Active; 'I' for Inactive)
REMARK    1  A    between atoms: C_1  and  C_2
REMARK    2  A    between atoms: C_2  and  C_3
REMARK    3  A    between atoms: C_2  and  C_4
REMARK    4  A    between atoms: C_7  and  N_8
REMARK    5  A    between atoms: C_19  and  C_20
REMARK                            x       y       z     vdW  Elec       q    Type
REMARK                         _______ _______ _______ _____ _____    ______ ____
ROOT
ATOM      1  N   UNL     1      -1.162  11.483  22.620  0.00  0.00    +0.000 N 
ATOM      2  C   UNL     1      -0.936  11.268  21.277  0.00  0.00    +0.000 C 
ATOM      3  O   UNL     1      -1.358  11.994  20.382  0.00  0.00    +0.000 OA
ATOM      4  N   UNL     1      -0.106  10.191  20.979  0.00  0.00    +0.000 N 
ATOM      5  C   UNL     1       0.217  10.022  19.555  0.00  0.00    +0.000 C 
ATOM      6  C   UNL     1       1.569   9.333  19.345  0.00  0.00    +0.000 C 
ATOM      7  N   UNL     1       1.578   8.078  20.092  0.00  0.00    +0.000 N 
ATOM      8  C   UNL     1       2.181   6.975  19.549  0.00  0.00    +0.000 A 
ATOM      9  N   UNL     1       2.605   7.032  18.275  0.00  0.00    +0.000 NA
ATOM     10  C   UNL     1       3.142   5.935  17.718  0.00  0.00    +0.000 A 
ATOM     11  C   UNL     1       3.274   4.752  18.387  0.00  0.00    +0.000 A 
ATOM     12  C   UNL     1       2.805   4.771  19.678  0.00  0.00    +0.000 A 
ATOM     13  N   UNL     1       2.268   5.857  20.276  0.00  0.00    +0.000 NA
ATOM     14  C   UNL     1       1.314   8.186  21.526  0.00  0.00    +0.000 C 
ATOM     15  C   UNL     1      -0.015   8.946  21.763  0.00  0.00    +0.000 C 
ATOM     16  H   UNL     1      -0.502  11.062  23.252  0.00  0.00    +0.000 HD
ENDROOT
BRANCH   1  20
ATOM     17  C   UNL     1      -3.451  14.726  24.155  0.00  0.00    +0.000 A 
ATOM     18  C   UNL     1      -4.066  13.502  23.868  0.00  0.00    +0.000 A 
ATOM     19  C   UNL     1      -3.323  12.423  23.379  0.00  0.00    +0.000 A 
ATOM     20  C   UNL     1      -1.950  12.536  23.152  0.00  0.00    +0.000 A 
ATOM     21  C   UNL     1      -1.323  13.748  23.456  0.00  0.00    +0.000 A 
ATOM     22  C   UNL     1      -2.068  14.833  23.944  0.00  0.00    +0.000 A 
BRANCH  17  24
ATOM     23  C   UNL     1      -3.421  17.130  24.909  0.00  0.00    +0.000 C 
ATOM     24  C   UNL     1      -4.278  15.883  24.683  0.00  0.00    +0.000 C 
ATOM     25  C   UNL     1      -5.461  16.199  23.764  0.00  0.00    +0.000 C 
ENDBRANCH  17  24
ENDBRANCH   1  20
BRANCH  12  26
ATOM     26  C   UNL     1       2.845   3.582  20.479  0.00  0.00    +0.000 C 
ATOM     27  N   UNL     1       2.870   2.645  21.163  0.00  0.00    +0.000 NA
ENDBRANCH  12  26
TORSDOF 3
ENDMDL
MODEL 5
REMARK VINA RESULT:      -7.0      0.619      1.137
REMARK  Name = 
REMARK  5 active torsions:
REMARK  status: ('A' for Active; 'I' for Inactive)
REMARK    1  A    between atoms: C_1  and  C_2
REMARK    2  A    between atoms: C_2  and  C_3
REMARK    3  A    between atoms: C_2  and  C_4
REMARK    4  A    between atoms: C_7  and  N_8
REMARK    5  A    between atoms: C_19  and  C_20
REMARK                            x       y       z     vdW  Elec       q    Type
REMARK                         _______ _______ _______ _____ _____    ______ ____
ROOT
ATOM      1  N   UNL     1       1.735   8.419  18.575  0.00  0.00    +0.000 N 
ATOM      2  C   UNL     1       1.388   8.592  19.898  0.00  0.00    +0.000 C 
ATOM      3  O   UNL     1       1.872   7.955  20.828  0.00  0.00    +0.000 OA
ATOM      4  N   UNL     1       0.482   9.620  20.144  0.00  0.00    +0.000 N 
ATOM      5  C   UNL     1       0.188   9.872  21.562  0.00  0.00    +0.000 C 
ATOM      6  C   UNL     1      -0.217  11.326  21.821  0.00  0.00    +0.000 C 
ATOM      7  N   UNL     1      -1.324  11.671  20.931  0.00  0.00    +0.000 N 
ATOM      8  C   UNL     1      -2.336  12.468  21.393  0.00  0.00    +0.000 A 
ATOM      9  N   UNL     1      -2.370  12.777  22.700  0.00  0.00    +0.000 NA
ATOM     10  C   UNL     1      -3.394  13.508  23.170  0.00  0.00    +0.000 A 
ATOM     11  C   UNL     1      -4.415  13.951  22.379  0.00  0.00    +0.000 A 
ATOM     12  C   UNL     1      -4.315  13.582  21.060  0.00  0.00    +0.000 A 
ATOM     13  N   UNL     1      -3.296  12.857  20.548  0.00  0.00    +0.000 NA
ATOM     14  C   UNL     1      -1.074  11.491  19.502  0.00  0.00    +0.000 C 
ATOM     15  C   UNL     1      -0.591  10.045  19.227  0.00  0.00    +0.000 C 
ATOM     16  H   UNL     1       1.559   9.199  17.966  0.00  0.00    +0.000 HD
ENDROOT
BRANCH   1  20
ATOM     17  C   UNL     1       4.410   5.445  17.120  0.00  0.00    +0.000 A 
ATOM     18  C   UNL     1       4.735   6.802  17.007  0.00  0.00    +0.000 A 
ATOM     19  C   UNL     1       3.874   7.789  17.496  0.00  0.00    +0.000 A 
ATOM     20  C   UNL     1       2.659   7.453  18.100  0.00  0.00    +0.000 A 
ATOM     21  C   UNL     1       2.337   6.099  18.235  0.00  0.00    +0.000 A 
ATOM     22  C   UNL     1       3.200   5.108  17.743  0.00  0.00    +0.000 A 
BRANCH  17  24
ATOM     23  C   UNL     1       5.411   4.412  15.051  0.00  0.00    +0.000 C 
ATOM     24  C   UNL     1       5.361   4.393  16.581  0.00  0.00    +0.000 C 
ATOM     25  C   UNL     1       6.766   4.543  17.170  0.00  0.00    +0.000 C 
ENDBRANCH  17  24
ENDBRANCH   1  20
BRANCH  12  26
ATOM     26  C   UNL     1      -5.343  13.945  20.128  0.00  0.00    +0.000 C 
ATOM     27  N   UNL     1      -6.189  14.269  19.403  0.00  0.00    +0.000 NA
ENDBRANCH  12  26
TORSDOF 3
ENDMDL
MODEL 6
REMARK VINA RESULT:      -6.9      1.988      3.102
REMARK  Name = 
REMARK  5 active torsions:
REMARK  status: ('A' for Active; 'I' for Inactive)
REMARK    1  A    between atoms: C_1  and  C_2
REMARK    2  A    between atoms: C_2  and  C_3
REMARK    3  A    between atoms: C_2  and  C_4
REMARK    4  A    between atoms: C_7  and  N_8
REMARK    5  A    between atoms: C_19  and  C_20
REMARK                            x       y       z     vdW  Elec       q    Type
REMARK                         _______ _______ _______ _____ _____    ______ ____
ROOT
ATOM      1  N   UNL     1       1.616   8.223  20.032  0.00  0.00    +0.000 N 
ATOM      2  C   UNL     1       1.042   9.261  19.329  0.00  0.00    +0.000 C 
ATOM      3  O   UNL     1       1.026   9.339  18.104  0.00  0.00    +0.000 OA
ATOM      4  N   UNL     1       0.387  10.214  20.105  0.00  0.00    +0.000 N 
ATOM      5  C   UNL     1      -0.311  11.266  19.351  0.00  0.00    +0.000 C 
ATOM      6  C   UNL     1      -1.502  11.839  20.124  0.00  0.00    +0.000 C 
ATOM      7  N   UNL     1      -1.041  12.279  21.439  0.00  0.00    +0.000 N 
ATOM      8  C   UNL     1      -1.554  13.426  21.984  0.00  0.00    +0.000 A 
ATOM      9  N   UNL     1      -2.344  14.204  21.225  0.00  0.00    +0.000 NA
ATOM     10  C   UNL     1      -2.800  15.360  21.733  0.00  0.00    +0.000 A 
ATOM     11  C   UNL     1      -2.492  15.791  22.991  0.00  0.00    +0.000 A 
ATOM     12  C   UNL     1      -1.669  14.948  23.697  0.00  0.00    +0.000 A 
ATOM     13  N   UNL     1      -1.199  13.772  23.225  0.00  0.00    +0.000 NA
ATOM     14  C   UNL     1      -0.384  11.262  22.259  0.00  0.00    +0.000 C 
ATOM     15  C   UNL     1       0.781  10.617  21.467  0.00  0.00    +0.000 C 
ATOM     16  H   UNL     1       1.272   8.079  20.966  0.00  0.00    +0.000 HD
ENDROOT
BRANCH   1  20
ATOM     17  C   UNL     1       3.596   4.871  18.313  0.00  0.00    +0.000 A 
ATOM     18  C   UNL     1       3.709   6.136  17.724  0.00  0.00    +0.000 A 
ATOM     19  C   UNL     1       3.078   7.249  18.287  0.00  0.00    +0.000 A 
ATOM     20  C   UNL     1       2.307   7.132  19.446  0.00  0.00    +0.000 A 
ATOM     21  C   UNL     1       2.206   5.876  20.053  0.00  0.00    +0.000 A 
ATOM     22  C   UNL     1       2.836   4.758  19.486  0.00  0.00    +0.000 A 
BRANCH  17  24
ATOM     23  C   UNL     1       3.373   2.453  17.641  0.00  0.00    +0.000 C 
ATOM     24  C   UNL     1       4.289   3.678  17.682  0.00  0.00    +0.000 C 
ATOM     25  C   UNL     1       4.818   4.005  16.283  0.00  0.00    +0.000 C 
ENDBRANCH  17  24
ENDBRANCH   1  20
BRANCH  12  26
ATOM     26  C   UNL     1      -1.233  15.300  25.018  0.00  0.00    +0.000 C 
ATOM     27  N   UNL     1      -0.866  15.624  26.070  0.00  0.00    +0.000 NA
ENDBRANCH  12  26
TORSDOF 3
ENDMDL
MODEL 7
REMARK VINA RESULT:      -6.8      1.492      2.444
REMARK  Name = 
REMARK  5 active torsions:
REMARK  status: ('A' for Active; 'I' for Inactive)
REMARK    1  A    between atoms: C_1  and  C_2
REMARK    2  A    between atoms: C_2  and  C_3
REMARK    3  A    between atoms: C_2  and  C_4
REMARK    4  A    between atoms: C_7  and  N_8
REMARK    5  A    between atoms: C_19  and  C_20
REMARK                            x       y       z     vdW  Elec       q    Type
REMARK                         _______ _______ _______ _____ _____    ______ ____
ROOT
ATOM      1  N   UNL     1       1.921   7.920  18.609  0.00  0.00    +0.000 N 
ATOM      2  C   UNL     1       1.848   9.275  18.364  0.00  0.00    +0.000 C 
ATOM      3  O   UNL     1       2.581   9.876  17.585  0.00  0.00    +0.000 OA
ATOM      4  N   UNL     1       0.810   9.940  19.011  0.00  0.00    +0.000 N 
ATOM      5  C   UNL     1       0.669  11.364  18.674  0.00  0.00    +0.000 C 
ATOM      6  C   UNL     1      -0.772  11.858  18.831  0.00  0.00    +0.000 C 
ATOM      7  N   UNL     1      -1.235  11.535  20.179  0.00  0.00    +0.000 N 
ATOM      8  C   UNL     1      -2.028  12.426  20.850  0.00  0.00    +0.000 A 
ATOM      9  N   UNL     1      -2.225  13.644  20.318  0.00  0.00    +0.000 NA
ATOM     10  C   UNL     1      -2.953  14.543  21.000  0.00  0.00    +0.000 A 
ATOM     11  C   UNL     1      -3.500  14.280  22.223  0.00  0.00    +0.000 A 
ATOM     12  C   UNL     1      -3.242  13.020  22.705  0.00  0.00    +0.000 A 
ATOM     13  N   UNL     1      -2.525  12.085  22.043  0.00  0.00    +0.000 NA
ATOM     14  C   UNL     1      -1.168  10.124  20.556  0.00  0.00    +0.000 C 
ATOM     15  C   UNL     1       0.267   9.584  20.335  0.00  0.00    +0.000 C 
ATOM     16  H   UNL     1       1.085   7.490  18.965  0.00  0.00    +0.000 HD
ENDROOT
BRANCH   1  20
ATOM     17  C   UNL     1       4.698   5.212  16.857  0.00  0.00    +0.000 A 
ATOM     18  C   UNL     1       4.945   6.590  16.832  0.00  0.00    +0.000 A 
ATOM     19  C   UNL     1       4.050   7.490  17.419  0.00  0.00    +0.000 A 
ATOM     20  C   UNL     1       2.878   7.044  18.035  0.00  0.00    +0.000 A 
ATOM     21  C   UNL     1       2.634   5.668  18.083  0.00  0.00    +0.000 A 
ATOM     22  C   UNL     1       3.530   4.765  17.492  0.00  0.00    +0.000 A 
BRANCH  17  24
ATOM     23  C   UNL     1       5.599   4.306  14.685  0.00  0.00    +0.000 C 
ATOM     24  C   UNL     1       5.684   4.256  16.213  0.00  0.00    +0.000 C 
ATOM     25  C   UNL     1       7.117   4.517  16.683  0.00  0.00    +0.000 C 
ENDBRANCH  17  24
ENDBRANCH   1  20
BRANCH  12  26
ATOM     26  C   UNL     1      -3.723  12.627  23.998  0.00  0.00    +0.000 C 
ATOM     27  N   UNL     1      -4.141  12.344  25.043  0.00  0.00    +0.000 NA
ENDBRANCH  12  26
TORSDOF 3
ENDMDL
MODEL 8
REMARK VINA RESULT:      -6.8      2.142     10.358
REMARK  Name = 
REMARK  5 active torsions:
REMARK  status: ('A' for Active; 'I' for Inactive)
REMARK    1  A    between atoms: C_1  and  C_2
REMARK    2  A    between atoms: C_2  and  C_3
REMARK    3  A    between atoms: C_2  and  C_4
REMARK    4  A    between atoms: C_7  and  N_8
REMARK    5  A    between atoms: C_19  and  C_20
REMARK                            x       y       z     vdW  Elec       q    Type
REMARK                         _______ _______ _______ _____ _____    ______ ____
ROOT
ATOM      1  N   UNL     1      -0.753  11.824  21.204  0.00  0.00    +0.000 N 
ATOM      2  C   UNL     1      -0.109  10.821  21.898  0.00  0.00    +0.000 C 
ATOM      3  O   UNL     1      -0.142  10.697  23.119  0.00  0.00    +0.000 OA
ATOM      4  N   UNL     1       0.539   9.875  21.111  0.00  0.00    +0.000 N 
ATOM      5  C   UNL     1       1.140   8.751  21.845  0.00  0.00    +0.000 C 
ATOM      6  C   UNL     1       1.221   7.480  20.994  0.00  0.00    +0.000 C 
ATOM      7  N   UNL     1       1.915   7.793  19.747  0.00  0.00    +0.000 N 
ATOM      8  C   UNL     1       2.781   6.878  19.211  0.00  0.00    +0.000 A 
ATOM      9  N   UNL     1       3.094   5.786  19.930  0.00  0.00    +0.000 NA
ATOM     10  C   UNL     1       3.990   4.916  19.435  0.00  0.00    +0.000 A 
ATOM     11  C   UNL     1       4.608   5.091  18.230  0.00  0.00    +0.000 A 
ATOM     12  C   UNL     1       4.244   6.236  17.564  0.00  0.00    +0.000 A 
ATOM     13  N   UNL     1       3.341   7.129  18.024  0.00  0.00    +0.000 NA
ATOM     14  C   UNL     1       1.335   8.869  18.945  0.00  0.00    +0.000 C 
ATOM     15  C   UNL     1       1.176  10.145  19.808  0.00  0.00    +0.000 C 
ATOM     16  H   UNL     1      -0.954  11.633  20.237  0.00  0.00    +0.000 HD
ENDROOT
BRANCH   1  20
ATOM     17  C   UNL     1      -3.077  14.891  23.020  0.00  0.00    +0.000 A 
ATOM     18  C   UNL     1      -1.680  14.948  23.061  0.00  0.00    +0.000 A 
ATOM     19  C   UNL     1      -0.903  13.957  22.453  0.00  0.00    +0.000 A 
ATOM     20  C   UNL     1      -1.497  12.874  21.800  0.00  0.00    +0.000 A 
ATOM     21  C   UNL     1      -2.893  12.820  21.737  0.00  0.00    +0.000 A 
ATOM     22  C   UNL     1      -3.673  13.813  22.348  0.00  0.00    +0.000 A 
BRANCH  17  24
ATOM     23  C   UNL     1      -5.363  15.563  23.842  0.00  0.00    +0.000 C 
ATOM     24  C   UNL     1      -3.898  15.979  23.688  0.00  0.00    +0.000 C 
ATOM     25  C   UNL     1      -3.306  16.386  25.040  0.00  0.00    +0.000 C 
ENDBRANCH  17  24
ENDBRANCH   1  20
BRANCH  12  26
ATOM     26  C   UNL     1       4.850   6.563  16.306  0.00  0.00    +0.000 C 
ATOM     27  N   UNL     1       5.359   6.862  15.306  0.00  0.00    +0.000 NA
ENDBRANCH  12  26
TORSDOF 3
ENDMDL
MODEL 9
REMARK VINA RESULT:      -6.7      1.022      1.138
REMARK  Name = 
REMARK  5 active torsions:
REMARK  status: ('A' for Active; 'I' for Inactive)
REMARK    1  A    between atoms: C_1  and  C_2
REMARK    2  A    between atoms: C_2  and  C_3
REMARK    3  A    between atoms: C_2  and  C_4
REMARK    4  A    between atoms: C_7  and  N_8
REMARK    5  A    between atoms: C_19  and  C_20
REMARK                            x       y       z     vdW  Elec       q    Type
REMARK                         _______ _______ _______ _____ _____    ______ ____
ROOT
ATOM      1  N   UNL     1       1.515   8.561  19.224  0.00  0.00    +0.000 N 
ATOM      2  C   UNL     1       1.105   8.824  20.514  0.00  0.00    +0.000 C 
ATOM      3  O   UNL     1       1.540   8.249  21.507  0.00  0.00    +0.000 OA
ATOM      4  N   UNL     1       0.194   9.868  20.646  0.00  0.00    +0.000 N 
ATOM      5  C   UNL     1      -0.168  10.215  22.028  0.00  0.00    +0.000 C 
ATOM      6  C   UNL     1      -0.577  11.684  22.169  0.00  0.00    +0.000 C 
ATOM      7  N   UNL     1      -1.638  11.970  21.205  0.00  0.00    +0.000 N 
ATOM      8  C   UNL     1      -2.667  12.799  21.562  0.00  0.00    +0.000 A 
ATOM      9  N   UNL     1      -2.762  13.195  22.843  0.00  0.00    +0.000 NA
ATOM     10  C   UNL     1      -3.804  13.958  23.212  0.00  0.00    +0.000 A 
ATOM     11  C   UNL     1      -4.783  14.348  22.344  0.00  0.00    +0.000 A 
ATOM     12  C   UNL     1      -4.621  13.892  21.059  0.00  0.00    +0.000 A 
ATOM     13  N   UNL     1      -3.582  13.132  20.647  0.00  0.00    +0.000 NA
ATOM     14  C   UNL     1      -1.319  11.695  19.804  0.00  0.00    +0.000 C 
ATOM     15  C   UNL     1      -0.832  10.232  19.651  0.00  0.00    +0.000 C 
ATOM     16  H   UNL     1       1.373   9.299  18.556  0.00  0.00    +0.000 HD
ENDROOT
BRANCH   1  20
ATOM     17  C   UNL     1       4.415   5.659  18.091  0.00  0.00    +0.000 A 
ATOM     18  C   UNL     1       3.583   5.432  19.193  0.00  0.00    +0.000 A 
ATOM     19  C   UNL     1       2.615   6.369  19.567  0.00  0.00    +0.000 A 
ATOM     20  C   UNL     1       2.456   7.563  18.860  0.00  0.00    +0.000 A 
ATOM     21  C   UNL     1       3.269   7.789  17.745  0.00  0.00    +0.000 A 
ATOM     22  C   UNL     1       4.243   6.851  17.372  0.00  0.00    +0.000 A 
BRANCH  17  24
ATOM     23  C   UNL     1       5.210   4.070  16.304  0.00  0.00    +0.000 C 
ATOM     24  C   UNL     1       5.460   4.628  17.707  0.00  0.00    +0.000 C 
ATOM     25  C   UNL     1       6.879   5.190  17.820  0.00  0.00    +0.000 C 
ENDBRANCH  17  24
ENDBRANCH   1  20
BRANCH  12  26
ATOM     26  C   UNL     1      -5.601  14.194  20.056  0.00  0.00    +0.000 C 
ATOM     27  N   UNL     1      -6.422  14.447  19.276  0.00  0.00    +0.000 NA
ENDBRANCH  12  26
TORSDOF 3
ENDMDL
