MODEL 1
REMARK VINA RESULT:      -7.2      0.000      0.000
REMARK  Name = 
REMARK  3 active torsions:
REMARK  status: ('A' for Active; 'I' for Inactive)
REMARK    1  A    between atoms: C_1  and  C_2
REMARK    2  A    between atoms: C_2  and  N_3
REMARK    3  A    between atoms: C_10  and  C_11
REMARK                            x       y       z     vdW  Elec       q    Type
REMARK                         _______ _______ _______ _____ _____    ______ ____
ROOT
ATOM      1  N   UNL     1       6.756   5.285  16.690  0.00  0.00    +0.000 N 
ATOM      2  C   UNL     1       7.051   5.130  15.279  0.00  0.00    +0.000 A 
ATOM      3  O   UNL     1       7.989   5.716  14.772  0.00  0.00    +0.000 OA
ATOM      4  C   UNL     1       6.145   4.223  14.520  0.00  0.00    +0.000 A 
ATOM      5  C   UNL     1       5.102   3.615  15.109  0.00  0.00    +0.000 A 
ATOM      6  N   UNL     1       4.822   3.810  16.453  0.00  0.00    +0.000 N 
ATOM      7  N   UNL     1       3.807   3.312  17.182  0.00  0.00    +0.000 NA
ATOM      8  C   UNL     1       3.970   3.818  18.417  0.00  0.00    +0.000 A 
ATOM      9  C   UNL     1       5.125   4.646  18.480  0.00  0.00    +0.000 A 
ATOM     10  C   UNL     1       5.639   4.626  17.213  0.00  0.00    +0.000 A 
ENDROOT
BRANCH   8  11
ATOM     11  C   UNL     1       3.021   3.534  19.495  0.00  0.00    +0.000 A 
ATOM     12  C   UNL     1       1.693   3.981  19.425  0.00  0.00    +0.000 A 
ATOM     13  C   UNL     1       0.784   3.672  20.441  0.00  0.00    +0.000 A 
ATOM     14  C   UNL     1       1.192   2.911  21.535  0.00  0.00    +0.000 A 
ATOM     15  C   UNL     1       2.509   2.469  21.622  0.00  0.00    +0.000 A 
ATOM     16  C   UNL     1       3.421   2.781  20.610  0.00  0.00    +0.000 A 
ENDBRANCH   8  11
BRANCH   1  18
ATOM     17  C   UNL     1       7.204   7.578  17.424  0.00  0.00    +0.000 C 
ATOM     18  C   UNL     1       7.648   6.129  17.502  0.00  0.00    +0.000 C 
ENDBRANCH   1  18
TORSDOF 2
ENDMDL
MODEL 2
REMARK VINA RESULT:      -7.2      0.056      1.139
REMARK  Name = 
REMARK  3 active torsions:
REMARK  status: ('A' for Active; 'I' for Inactive)
REMARK    1  A    between atoms: C_1  and  C_2
REMARK    2  A    between atoms: C_2  and  N_3
REMARK    3  A    between atoms: C_10  and  C_11
REMARK                            x       y       z     vdW  Elec       q    Type
REMARK                         _______ _______ _______ _____ _____    ______ ____
ROOT
ATOM      1  N   UNL     1       6.762   5.248  16.673  0.00  0.00    +0.000 N 
ATOM      2  C   UNL     1       7.056   5.118  15.259  0.00  0.00    +0.000 A 
ATOM      3  O   UNL     1       7.994   5.712  14.761  0.00  0.00    +0.000 OA
ATOM      4  C   UNL     1       6.147   4.227  14.484  0.00  0.00    +0.000 A 
ATOM      5  C   UNL     1       5.105   3.610  15.064  0.00  0.00    +0.000 A 
ATOM      6  N   UNL     1       4.826   3.781  16.411  0.00  0.00    +0.000 N 
ATOM      7  N   UNL     1       3.811   3.272  17.132  0.00  0.00    +0.000 NA
ATOM      8  C   UNL     1       3.976   3.755  18.376  0.00  0.00    +0.000 A 
ATOM      9  C   UNL     1       5.132   4.580  18.453  0.00  0.00    +0.000 A 
ATOM     10  C   UNL     1       5.646   4.582  17.185  0.00  0.00    +0.000 A 
ENDROOT
BRANCH   8  11
ATOM     11  C   UNL     1       3.027   3.453  19.450  0.00  0.00    +0.000 A 
ATOM     12  C   UNL     1       3.429   2.736  20.587  0.00  0.00    +0.000 A 
ATOM     13  C   UNL     1       2.526   2.485  21.624  0.00  0.00    +0.000 A 
ATOM     14  C   UNL     1       1.215   2.950  21.536  0.00  0.00    +0.000 A 
ATOM     15  C   UNL     1       0.801   3.655  20.410  0.00  0.00    +0.000 A 
ATOM     16  C   UNL     1       1.701   3.903  19.369  0.00  0.00    +0.000 A 
ENDBRANCH   8  11
BRANCH   1  18
ATOM     17  C   UNL     1       7.215   7.526  17.448  0.00  0.00    +0.000 C 
ATOM     18  C   UNL     1       7.657   6.076  17.499  0.00  0.00    +0.000 C 
ENDBRANCH   1  18
TORSDOF 2
ENDMDL
MODEL 3
REMARK VINA RESULT:      -7.1      2.813      6.555
REMARK  Name = 
REMARK  3 active torsions:
REMARK  status: ('A' for Active; 'I' for Inactive)
REMARK    1  A    between atoms: C_1  and  C_2
REMARK    2  A    between atoms: C_2  and  N_3
REMARK    3  A    between atoms: C_10  and  C_11
REMARK                            x       y       z     vdW  Elec       q    Type
REMARK                         _______ _______ _______ _____ _____    ______ ____
ROOT
ATOM      1  N   UNL     1       3.609   4.035  18.864  0.00  0.00    +0.000 N 
ATOM      2  C   UNL     1       2.931   5.007  19.700  0.00  0.00    +0.000 A 
ATOM      3  O   UNL     1       2.354   4.660  20.714  0.00  0.00    +0.000 OA
ATOM      4  C   UNL     1       2.995   6.422  19.238  0.00  0.00    +0.000 A 
ATOM      5  C   UNL     1       3.619   6.762  18.098  0.00  0.00    +0.000 A 
ATOM      6  N   UNL     1       4.227   5.806  17.299  0.00  0.00    +0.000 N 
ATOM      7  N   UNL     1       4.856   5.971  16.121  0.00  0.00    +0.000 NA
ATOM      8  C   UNL     1       5.245   4.739  15.747  0.00  0.00    +0.000 A 
ATOM      9  C   UNL     1       4.868   3.769  16.716  0.00  0.00    +0.000 A 
ATOM     10  C   UNL     1       4.217   4.479  17.687  0.00  0.00    +0.000 A 
ENDROOT
BRANCH   8  11
ATOM     11  C   UNL     1       5.933   4.504  14.475  0.00  0.00    +0.000 A 
ATOM     12  C   UNL     1       5.392   3.642  13.510  0.00  0.00    +0.000 A 
ATOM     13  C   UNL     1       6.036   3.454  12.284  0.00  0.00    +0.000 A 
ATOM     14  C   UNL     1       7.226   4.126  12.011  0.00  0.00    +0.000 A 
ATOM     15  C   UNL     1       7.779   4.977  12.963  0.00  0.00    +0.000 A 
ATOM     16  C   UNL     1       7.139   5.163  14.191  0.00  0.00    +0.000 A 
ENDBRANCH   8  11
BRANCH   1  18
ATOM     17  C   UNL     1       2.436   1.892  18.706  0.00  0.00    +0.000 C 
ATOM     18  C   UNL     1       3.622   2.628  19.298  0.00  0.00    +0.000 C 
ENDBRANCH   1  18
TORSDOF 2
ENDMDL
MODEL 4
REMARK VINA RESULT:      -7.0      2.816      6.586
REMARK  Name = 
REMARK  3 active torsions:
REMARK  status: ('A' for Active; 'I' for Inactive)
REMARK    1  A    between atoms: C_1  and  C_2
REMARK    2  A    between atoms: C_2  and  N_3
REMARK    3  A    between atoms: C_10  and  C_11
REMARK                            x       y       z     vdW  Elec       q    Type
REMARK                         _______ _______ _______ _____ _____    ______ ____
ROOT
ATOM      1  N   UNL     1       3.682   3.965  18.869  0.00  0.00    +0.000 N 
ATOM      2  C   UNL     1       2.997   4.909  19.731  0.00  0.00    +0.000 A 
ATOM      3  O   UNL     1       2.443   4.534  20.747  0.00  0.00    +0.000 OA
ATOM      4  C   UNL     1       3.026   6.332  19.290  0.00  0.00    +0.000 A 
ATOM      5  C   UNL     1       3.625   6.703  18.147  0.00  0.00    +0.000 A 
ATOM      6  N   UNL     1       4.241   5.772  17.324  0.00  0.00    +0.000 N 
ATOM      7  N   UNL     1       4.848   5.969  16.139  0.00  0.00    +0.000 NA
ATOM      8  C   UNL     1       5.256   4.751  15.740  0.00  0.00    +0.000 A 
ATOM      9  C   UNL     1       4.913   3.759  16.699  0.00  0.00    +0.000 A 
ATOM     10  C   UNL     1       4.263   4.440  17.690  0.00  0.00    +0.000 A 
ENDROOT
BRANCH   8  11
ATOM     11  C   UNL     1       5.929   4.551  14.454  0.00  0.00    +0.000 A 
ATOM     12  C   UNL     1       7.126   5.218  14.155  0.00  0.00    +0.000 A 
ATOM     13  C   UNL     1       7.781   4.991  12.941  0.00  0.00    +0.000 A 
ATOM     14  C   UNL     1       7.249   4.094  12.017  0.00  0.00    +0.000 A 
ATOM     15  C   UNL     1       6.057   3.432  12.298  0.00  0.00    +0.000 A 
ATOM     16  C   UNL     1       5.398   3.661  13.509  0.00  0.00    +0.000 A 
ENDBRANCH   8  11
BRANCH   1  18
ATOM     17  C   UNL     1       2.548   1.801  18.697  0.00  0.00    +0.000 C 
ATOM     18  C   UNL     1       3.730   2.552  19.280  0.00  0.00    +0.000 C 
ENDBRANCH   1  18
TORSDOF 2
ENDMDL
MODEL 5
REMARK VINA RESULT:      -6.8      1.073      2.323
REMARK  Name = 
REMARK  3 active torsions:
REMARK  status: ('A' for Active; 'I' for Inactive)
REMARK    1  A    between atoms: C_1  and  C_2
REMARK    2  A    between atoms: C_2  and  N_3
REMARK    3  A    between atoms: C_10  and  C_11
REMARK                            x       y       z     vdW  Elec       q    Type
REMARK                         _______ _______ _______ _____ _____    ______ ____
ROOT
ATOM      1  N   UNL     1       6.189   4.602  15.828  0.00  0.00    +0.000 N 
ATOM      2  C   UNL     1       7.204   5.612  15.600  0.00  0.00    +0.000 A 
ATOM      3  O   UNL     1       7.927   5.557  14.622  0.00  0.00    +0.000 OA
ATOM      4  C   UNL     1       7.292   6.690  16.625  0.00  0.00    +0.000 A 
ATOM      5  C   UNL     1       6.495   6.700  17.705  0.00  0.00    +0.000 A 
ATOM      6  N   UNL     1       5.557   5.701  17.916  0.00  0.00    +0.000 N 
ATOM      7  N   UNL     1       4.714   5.543  18.953  0.00  0.00    +0.000 NA
ATOM      8  C   UNL     1       4.034   4.413  18.693  0.00  0.00    +0.000 A 
ATOM      9  C   UNL     1       4.442   3.845  17.455  0.00  0.00    +0.000 A 
ATOM     10  C   UNL     1       5.416   4.685  16.990  0.00  0.00    +0.000 A 
ENDROOT
BRANCH   8  11
ATOM     11  C   UNL     1       3.041   3.882  19.630  0.00  0.00    +0.000 A 
ATOM     12  C   UNL     1       1.683   4.209  19.505  0.00  0.00    +0.000 A 
ATOM     13  C   UNL     1       0.737   3.668  20.380  0.00  0.00    +0.000 A 
ATOM     14  C   UNL     1       1.139   2.792  21.386  0.00  0.00    +0.000 A 
ATOM     15  C   UNL     1       2.485   2.465  21.528  0.00  0.00    +0.000 A 
ATOM     16  C   UNL     1       3.433   3.010  20.657  0.00  0.00    +0.000 A 
ENDBRANCH   8  11
BRANCH   1  18
ATOM     17  C   UNL     1       5.283   4.082  13.613  0.00  0.00    +0.000 C 
ATOM     18  C   UNL     1       6.022   3.540  14.822  0.00  0.00    +0.000 C 
ENDBRANCH   1  18
TORSDOF 2
ENDMDL
MODEL 6
REMARK VINA RESULT:      -6.7      4.221      5.795
REMARK  Name = 
REMARK  3 active torsions:
REMARK  status: ('A' for Active; 'I' for Inactive)
REMARK    1  A    between atoms: C_1  and  C_2
REMARK    2  A    between atoms: C_2  and  N_3
REMARK    3  A    between atoms: C_10  and  C_11
REMARK                            x       y       z     vdW  Elec       q    Type
REMARK                         _______ _______ _______ _____ _____    ______ ____
ROOT
ATOM      1  N   UNL     1       4.226   3.941  19.438  0.00  0.00    +0.000 N 
ATOM      2  C   UNL     1       4.035   2.691  20.147  0.00  0.00    +0.000 A 
ATOM      3  O   UNL     1       4.737   1.726  19.908  0.00  0.00    +0.000 OA
ATOM      4  C   UNL     1       2.944   2.678  21.162  0.00  0.00    +0.000 A 
ATOM      5  C   UNL     1       2.171   3.755  21.377  0.00  0.00    +0.000 A 
ATOM      6  N   UNL     1       2.354   4.927  20.658  0.00  0.00    +0.000 N 
ATOM      7  N   UNL     1       1.651   6.072  20.723  0.00  0.00    +0.000 NA
ATOM      8  C   UNL     1       2.209   6.887  19.811  0.00  0.00    +0.000 A 
ATOM      9  C   UNL     1       3.302   6.252  19.160  0.00  0.00    +0.000 A 
ATOM     10  C   UNL     1       3.363   5.004  19.717  0.00  0.00    +0.000 A 
ENDROOT
BRANCH   8  11
ATOM     11  C   UNL     1       1.681   8.230  19.556  0.00  0.00    +0.000 A 
ATOM     12  C   UNL     1       0.980   8.931  20.548  0.00  0.00    +0.000 A 
ATOM     13  C   UNL     1       0.514  10.226  20.308  0.00  0.00    +0.000 A 
ATOM     14  C   UNL     1       0.744  10.834  19.076  0.00  0.00    +0.000 A 
ATOM     15  C   UNL     1       1.431  10.146  18.079  0.00  0.00    +0.000 A 
ATOM     16  C   UNL     1       1.894   8.849  18.315  0.00  0.00    +0.000 A 
ENDBRANCH   8  11
BRANCH   1  18
ATOM     17  C   UNL     1       4.788   3.796  17.059  0.00  0.00    +0.000 C 
ATOM     18  C   UNL     1       5.323   4.028  18.459  0.00  0.00    +0.000 C 
ENDBRANCH   1  18
TORSDOF 2
ENDMDL
MODEL 7
REMARK VINA RESULT:      -6.7      4.211      5.764
REMARK  Name = 
REMARK  3 active torsions:
REMARK  status: ('A' for Active; 'I' for Inactive)
REMARK    1  A    between atoms: C_1  and  C_2
REMARK    2  A    between atoms: C_2  and  N_3
REMARK    3  A    between atoms: C_10  and  C_11
REMARK                            x       y       z     vdW  Elec       q    Type
REMARK                         _______ _______ _______ _____ _____    ______ ____
ROOT
ATOM      1  N   UNL     1       4.223   3.941  19.429  0.00  0.00    +0.000 N 
ATOM      2  C   UNL     1       4.035   2.687  20.131  0.00  0.00    +0.000 A 
ATOM      3  O   UNL     1       4.736   1.723  19.883  0.00  0.00    +0.000 OA
ATOM      4  C   UNL     1       2.950   2.668  21.152  0.00  0.00    +0.000 A 
ATOM      5  C   UNL     1       2.178   3.744  21.378  0.00  0.00    +0.000 A 
ATOM      6  N   UNL     1       2.357   4.920  20.665  0.00  0.00    +0.000 N 
ATOM      7  N   UNL     1       1.655   6.065  20.741  0.00  0.00    +0.000 NA
ATOM      8  C   UNL     1       2.208   6.885  19.831  0.00  0.00    +0.000 A 
ATOM      9  C   UNL     1       3.297   6.253  19.170  0.00  0.00    +0.000 A 
ATOM     10  C   UNL     1       3.361   5.002  19.719  0.00  0.00    +0.000 A 
ENDROOT
BRANCH   8  11
ATOM     11  C   UNL     1       1.679   8.229  19.586  0.00  0.00    +0.000 A 
ATOM     12  C   UNL     1       1.856   8.860  18.346  0.00  0.00    +0.000 A 
ATOM     13  C   UNL     1       1.315  10.127  18.110  0.00  0.00    +0.000 A 
ATOM     14  C   UNL     1       0.591  10.774  19.108  0.00  0.00    +0.000 A 
ATOM     15  C   UNL     1       0.415  10.163  20.347  0.00  0.00    +0.000 A 
ATOM     16  C   UNL     1       0.959   8.899  20.587  0.00  0.00    +0.000 A 
ENDBRANCH   8  11
BRANCH   1  18
ATOM     17  C   UNL     1       4.774   3.793  17.047  0.00  0.00    +0.000 C 
ATOM     18  C   UNL     1       5.314   4.034  18.444  0.00  0.00    +0.000 C 
ENDBRANCH   1  18
TORSDOF 2
ENDMDL
MODEL 8
REMARK VINA RESULT:      -6.7      1.067      2.575
REMARK  Name = 
REMARK  3 active torsions:
REMARK  status: ('A' for Active; 'I' for Inactive)
REMARK    1  A    between atoms: C_1  and  C_2
REMARK    2  A    between atoms: C_2  and  N_3
REMARK    3  A    between atoms: C_10  and  C_11
REMARK                            x       y       z     vdW  Elec       q    Type
REMARK                         _______ _______ _______ _____ _____    ______ ____
ROOT
ATOM      1  N   UNL     1       6.185   4.579  15.893  0.00  0.00    +0.000 N 
ATOM      2  C   UNL     1       7.218   5.583  15.720  0.00  0.00    +0.000 A 
ATOM      3  O   UNL     1       7.948   5.563  14.747  0.00  0.00    +0.000 OA
ATOM      4  C   UNL     1       7.312   6.611  16.794  0.00  0.00    +0.000 A 
ATOM      5  C   UNL     1       6.506   6.584  17.867  0.00  0.00    +0.000 A 
ATOM      6  N   UNL     1       5.551   5.591  18.024  0.00  0.00    +0.000 N 
ATOM      7  N   UNL     1       4.697   5.398  19.046  0.00  0.00    +0.000 NA
ATOM      8  C   UNL     1       4.003   4.291  18.729  0.00  0.00    +0.000 A 
ATOM      9  C   UNL     1       4.414   3.775  17.469  0.00  0.00    +0.000 A 
ATOM     10  C   UNL     1       5.404   4.620  17.051  0.00  0.00    +0.000 A 
ENDROOT
BRANCH   8  11
ATOM     11  C   UNL     1       2.994   3.732  19.632  0.00  0.00    +0.000 A 
ATOM     12  C   UNL     1       3.367   3.084  20.819  0.00  0.00    +0.000 A 
ATOM     13  C   UNL     1       2.396   2.588  21.693  0.00  0.00    +0.000 A 
ATOM     14  C   UNL     1       1.044   2.736  21.391  0.00  0.00    +0.000 A 
ATOM     15  C   UNL     1       0.660   3.369  20.212  0.00  0.00    +0.000 A 
ATOM     16  C   UNL     1       1.629   3.862  19.334  0.00  0.00    +0.000 A 
ENDBRANCH   8  11
BRANCH   1  18
ATOM     17  C   UNL     1       5.189   4.140  13.700  0.00  0.00    +0.000 C 
ATOM     18  C   UNL     1       6.012   3.567  14.838  0.00  0.00    +0.000 C 
ENDBRANCH   1  18
TORSDOF 2
ENDMDL
MODEL 9
REMARK VINA RESULT:      -6.6      5.088      6.485
REMARK  Name = 
REMARK  3 active torsions:
REMARK  status: ('A' for Active; 'I' for Inactive)
REMARK    1  A    between atoms: C_1  and  C_2
REMARK    2  A    between atoms: C_2  and  N_3
REMARK    3  A    between atoms: C_10  and  C_11
REMARK                            x       y       z     vdW  Elec       q    Type
REMARK                         _______ _______ _______ _____ _____    ______ ____
ROOT
ATOM      1  N   UNL     1       2.691   5.127  19.897  0.00  0.00    +0.000 N 
ATOM      2  C   UNL     1       3.538   4.791  18.769  0.00  0.00    +0.000 A 
ATOM      3  O   UNL     1       4.037   3.685  18.673  0.00  0.00    +0.000 OA
ATOM      4  C   UNL     1       3.743   5.872  17.764  0.00  0.00    +0.000 A 
ATOM      5  C   UNL     1       3.198   7.089  17.919  0.00  0.00    +0.000 A 
ATOM      6  N   UNL     1       2.421   7.394  19.026  0.00  0.00    +0.000 N 
ATOM      7  N   UNL     1       1.837   8.562  19.349  0.00  0.00    +0.000 NA
ATOM      8  C   UNL     1       1.224   8.343  20.525  0.00  0.00    +0.000 A 
ATOM      9  C   UNL     1       1.408   7.000  20.954  0.00  0.00    +0.000 A 
ATOM     10  C   UNL     1       2.180   6.425  19.982  0.00  0.00    +0.000 A 
ENDROOT
BRANCH   8  11
ATOM     11  C   UNL     1       0.506   9.409  21.228  0.00  0.00    +0.000 A 
ATOM     12  C   UNL     1      -0.146   9.161  22.444  0.00  0.00    +0.000 A 
ATOM     13  C   UNL     1      -0.796  10.193  23.126  0.00  0.00    +0.000 A 
ATOM     14  C   UNL     1      -0.798  11.484  22.601  0.00  0.00    +0.000 A 
ATOM     15  C   UNL     1      -0.163  11.743  21.389  0.00  0.00    +0.000 A 
ATOM     16  C   UNL     1       0.483  10.711  20.704  0.00  0.00    +0.000 A 
ENDBRANCH   8  11
BRANCH   1  18
ATOM     17  C   UNL     1       1.176   3.298  20.494  0.00  0.00    +0.000 C 
ATOM     18  C   UNL     1       2.411   4.082  20.896  0.00  0.00    +0.000 C 
ENDBRANCH   1  18
TORSDOF 2
ENDMDL
