MODEL 1
REMARK VINA RESULT:      -8.4      0.000      0.000
REMARK  Name = 
REMARK  3 active torsions:
REMARK  status: ('A' for Active; 'I' for Inactive)
REMARK    1  A    between atoms: C_2  and  C_3
REMARK    2  A    between atoms: C_3  and  O_4
REMARK    3  A    between atoms: O_4  and  C_5
REMARK                            x       y       z     vdW  Elec       q    Type
REMARK                         _______ _______ _______ _____ _____    ______ ____
ROOT
ATOM      1  O   UNL     1       4.122   3.199  18.481  0.00  0.00    +0.000 OA
ATOM      2  C   UNL     1       4.087   4.260  17.843  0.00  0.00    +0.000 C 
ATOM      3  N   UNL     1       3.505   5.405  18.382  0.00  0.00    +0.000 N 
ATOM      4  C   UNL     1       3.501   6.763  17.790  0.00  0.00    +0.000 C 
ATOM      5  C   UNL     1       2.329   7.686  18.282  0.00  0.00    +0.000 C 
ATOM      6  N   UNL     1       2.154   7.559  19.746  0.00  0.00    +0.000 N 
ATOM      7  C   UNL     1       1.396   8.512  20.443  0.00  0.00    +0.000 A 
ATOM      8  C   UNL     1       1.180   8.365  21.820  0.00  0.00    +0.000 A 
ATOM      9  N   UNL     1       0.387   9.149  22.582  0.00  0.00    +0.000 NA
ATOM     10  C   UNL     1      -0.140  10.204  21.965  0.00  0.00    +0.000 A 
ATOM     11  C   UNL     1      -0.965  11.034  22.702  0.00  0.00    +0.000 A 
ATOM     12  C   UNL     1      -1.461  12.215  22.168  0.00  0.00    +0.000 A 
ATOM     13  C   UNL     1      -1.121  12.556  20.863  0.00  0.00    +0.000 A 
ATOM     14  C   UNL     1      -0.337  11.685  20.093  0.00  0.00    +0.000 A 
ATOM     15  C   UNL     1       0.158  10.480  20.609  0.00  0.00    +0.000 A 
ATOM     16  N   UNL     1       0.901   9.623  19.845  0.00  0.00    +0.000 NA
ATOM     17  C   UNL     1       1.934   6.150  20.135  0.00  0.00    +0.000 C 
ATOM     18  C   UNL     1       3.200   5.363  19.814  0.00  0.00    +0.000 C 
ENDROOT
BRANCH   2  19
ATOM     19  C   UNL     1       4.699   4.306  16.447  0.00  0.00    +0.000 C 
BRANCH  19  20
ATOM     20  O   UNL     1       6.115   4.212  16.529  0.00  0.00    +0.000 OA
BRANCH  20  21
ATOM     21  C   UNL     1       6.738   5.248  17.176  0.00  0.00    +0.000 A 
ATOM     22  C   UNL     1       7.337   4.930  18.398  0.00  0.00    +0.000 A 
ATOM     23  C   UNL     1       8.049   5.895  19.113  0.00  0.00    +0.000 A 
ATOM     24  C   UNL     1       8.176   7.187  18.603  0.00  0.00    +0.000 A 
ATOM     25  C   UNL     1       7.578   7.511  17.387  0.00  0.00    +0.000 A 
ATOM     26  C   UNL     1       6.859   6.545  16.675  0.00  0.00    +0.000 A 
ENDBRANCH  20  21
ENDBRANCH  19  20
ENDBRANCH   2  19
TORSDOF 3
ENDMDL
MODEL 2
REMARK VINA RESULT:      -8.2      2.010      4.075
REMARK  Name = 
REMARK  3 active torsions:
REMARK  status: ('A' for Active; 'I' for Inactive)
REMARK    1  A    between atoms: C_2  and  C_3
REMARK    2  A    between atoms: C_3  and  O_4
REMARK    3  A    between atoms: O_4  and  C_5
REMARK                            x       y       z     vdW  Elec       q    Type
REMARK                         _______ _______ _______ _____ _____    ______ ____
ROOT
ATOM      1  O   UNL     1       4.431   6.598  16.619  0.00  0.00    +0.000 OA
ATOM      2  C   UNL     1       4.036   6.354  17.767  0.00  0.00    +0.000 C 
ATOM      3  N   UNL     1       3.067   7.146  18.379  0.00  0.00    +0.000 N 
ATOM      4  C   UNL     1       2.417   6.901  19.688  0.00  0.00    +0.000 C 
ATOM      5  C   UNL     1       1.835   8.187  20.378  0.00  0.00    +0.000 C 
ATOM      6  N   UNL     1       1.123   9.025  19.386  0.00  0.00    +0.000 N 
ATOM      7  C   UNL     1       0.261  10.043  19.824  0.00  0.00    +0.000 A 
ATOM      8  C   UNL     1      -0.370  10.875  18.890  0.00  0.00    +0.000 A 
ATOM      9  N   UNL     1      -1.134  11.950  19.182  0.00  0.00    +0.000 NA
ATOM     10  C   UNL     1      -1.373  12.149  20.476  0.00  0.00    +0.000 A 
ATOM     11  C   UNL     1      -2.146  13.242  20.826  0.00  0.00    +0.000 A 
ATOM     12  C   UNL     1      -2.538  13.455  22.140  0.00  0.00    +0.000 A 
ATOM     13  C   UNL     1      -2.132  12.551  23.117  0.00  0.00    +0.000 A 
ATOM     14  C   UNL     1      -1.297  11.478  22.774  0.00  0.00    +0.000 A 
ATOM     15  C   UNL     1      -0.877  11.256  21.456  0.00  0.00    +0.000 A 
ATOM     16  N   UNL     1      -0.041  10.224  21.132  0.00  0.00    +0.000 NA
ATOM     17  C   UNL     1       2.006   9.371  18.252  0.00  0.00    +0.000 C 
ATOM     18  C   UNL     1       2.356   8.085  17.510  0.00  0.00    +0.000 C 
ENDROOT
BRANCH   2  19
ATOM     19  C   UNL     1       4.623   5.160  18.513  0.00  0.00    +0.000 C 
BRANCH  19  20
ATOM     20  O   UNL     1       3.930   3.971  18.157  0.00  0.00    +0.000 OA
BRANCH  20  21
ATOM     21  C   UNL     1       2.991   3.543  19.059  0.00  0.00    +0.000 A 
ATOM     22  C   UNL     1       3.486   3.092  20.286  0.00  0.00    +0.000 A 
ATOM     23  C   UNL     1       2.614   2.689  21.299  0.00  0.00    +0.000 A 
ATOM     24  C   UNL     1       1.236   2.745  21.096  0.00  0.00    +0.000 A 
ATOM     25  C   UNL     1       0.736   3.191  19.873  0.00  0.00    +0.000 A 
ATOM     26  C   UNL     1       1.610   3.588  18.856  0.00  0.00    +0.000 A 
ENDBRANCH  20  21
ENDBRANCH  19  20
ENDBRANCH   2  19
TORSDOF 3
ENDMDL
MODEL 3
REMARK VINA RESULT:      -8.0      1.950      2.711
REMARK  Name = 
REMARK  3 active torsions:
REMARK  status: ('A' for Active; 'I' for Inactive)
REMARK    1  A    between atoms: C_2  and  C_3
REMARK    2  A    between atoms: C_3  and  O_4
REMARK    3  A    between atoms: O_4  and  C_5
REMARK                            x       y       z     vdW  Elec       q    Type
REMARK                         _______ _______ _______ _____ _____    ______ ____
ROOT
ATOM      1  O   UNL     1       4.543   3.921  18.056  0.00  0.00    +0.000 OA
ATOM      2  C   UNL     1       4.336   4.999  17.481  0.00  0.00    +0.000 C 
ATOM      3  N   UNL     1       3.654   6.034  18.117  0.00  0.00    +0.000 N 
ATOM      4  C   UNL     1       3.444   7.407  17.602  0.00  0.00    +0.000 C 
ATOM      5  C   UNL     1       2.202   8.150  18.213  0.00  0.00    +0.000 C 
ATOM      6  N   UNL     1       2.140   7.932  19.676  0.00  0.00    +0.000 N 
ATOM      7  C   UNL     1       1.317   8.747  20.468  0.00  0.00    +0.000 A 
ATOM      8  C   UNL     1       1.212   8.508  21.845  0.00  0.00    +0.000 A 
ATOM      9  N   UNL     1       0.379   9.148  22.695  0.00  0.00    +0.000 NA
ATOM     10  C   UNL     1      -0.313  10.156  22.169  0.00  0.00    +0.000 A 
ATOM     11  C   UNL     1      -1.184  10.839  22.999  0.00  0.00    +0.000 A 
ATOM     12  C   UNL     1      -1.855  11.973  22.562  0.00  0.00    +0.000 A 
ATOM     13  C   UNL     1      -1.646  12.415  21.259  0.00  0.00    +0.000 A 
ATOM     14  C   UNL     1      -0.812  11.689  20.398  0.00  0.00    +0.000 A 
ATOM     15  C   UNL     1      -0.140  10.533  20.816  0.00  0.00    +0.000 A 
ATOM     16  N   UNL     1       0.651   9.814  19.963  0.00  0.00    +0.000 NA
ATOM     17  C   UNL     1       2.121   6.489  19.998  0.00  0.00    +0.000 C 
ATOM     18  C   UNL     1       3.450   5.885  19.560  0.00  0.00    +0.000 C 
ENDROOT
BRANCH   2  19
ATOM     19  C   UNL     1       4.846   5.188  16.057  0.00  0.00    +0.000 C 
BRANCH  19  20
ATOM     20  O   UNL     1       5.907   4.281  15.791  0.00  0.00    +0.000 OA
BRANCH  20  21
ATOM     21  C   UNL     1       6.401   4.309  14.512  0.00  0.00    +0.000 A 
ATOM     22  C   UNL     1       5.752   3.481  13.592  0.00  0.00    +0.000 A 
ATOM     23  C   UNL     1       6.134   3.476  12.249  0.00  0.00    +0.000 A 
ATOM     24  C   UNL     1       7.163   4.309  11.814  0.00  0.00    +0.000 A 
ATOM     25  C   UNL     1       7.815   5.136  12.727  0.00  0.00    +0.000 A 
ATOM     26  C   UNL     1       7.437   5.136  14.074  0.00  0.00    +0.000 A 
ENDBRANCH  20  21
ENDBRANCH  19  20
ENDBRANCH   2  19
TORSDOF 3
ENDMDL
MODEL 4
REMARK VINA RESULT:      -7.9      2.125      4.345
REMARK  Name = 
REMARK  3 active torsions:
REMARK  status: ('A' for Active; 'I' for Inactive)
REMARK    1  A    between atoms: C_2  and  C_3
REMARK    2  A    between atoms: C_3  and  O_4
REMARK    3  A    between atoms: O_4  and  C_5
REMARK                            x       y       z     vdW  Elec       q    Type
REMARK                         _______ _______ _______ _____ _____    ______ ____
ROOT
ATOM      1  O   UNL     1       4.147   7.060  16.833  0.00  0.00    +0.000 OA
ATOM      2  C   UNL     1       3.780   6.811  17.990  0.00  0.00    +0.000 C 
ATOM      3  N   UNL     1       2.773   7.555  18.600  0.00  0.00    +0.000 N 
ATOM      4  C   UNL     1       2.153   7.295  19.921  0.00  0.00    +0.000 C 
ATOM      5  C   UNL     1       1.504   8.557  20.597  0.00  0.00    +0.000 C 
ATOM      6  N   UNL     1       0.734   9.335  19.600  0.00  0.00    +0.000 N 
ATOM      7  C   UNL     1      -0.182  10.307  20.032  0.00  0.00    +0.000 A 
ATOM      8  C   UNL     1      -0.871  11.086  19.092  0.00  0.00    +0.000 A 
ATOM      9  N   UNL     1      -1.693  12.119  19.376  0.00  0.00    +0.000 NA
ATOM     10  C   UNL     1      -1.930  12.325  20.670  0.00  0.00    +0.000 A 
ATOM     11  C   UNL     1      -2.762  13.377  21.012  0.00  0.00    +0.000 A 
ATOM     12  C   UNL     1      -3.151  13.588  22.327  0.00  0.00    +0.000 A 
ATOM     13  C   UNL     1      -2.681  12.726  23.313  0.00  0.00    +0.000 A 
ATOM     14  C   UNL     1      -1.789  11.698  22.977  0.00  0.00    +0.000 A 
ATOM     15  C   UNL     1      -1.371  11.479  21.658  0.00  0.00    +0.000 A 
ATOM     16  N   UNL     1      -0.479  10.492  21.341  0.00  0.00    +0.000 NA
ATOM     17  C   UNL     1       1.582   9.713  18.450  0.00  0.00    +0.000 C 
ATOM     18  C   UNL     1       1.998   8.438  17.725  0.00  0.00    +0.000 C 
ENDROOT
BRANCH   2  19
ATOM     19  C   UNL     1       4.444   5.666  18.747  0.00  0.00    +0.000 C 
BRANCH  19  20
ATOM     20  O   UNL     1       3.999   4.417  18.235  0.00  0.00    +0.000 OA
BRANCH  20  21
ATOM     21  C   UNL     1       2.960   3.837  18.916  0.00  0.00    +0.000 A 
ATOM     22  C   UNL     1       1.932   3.314  18.126  0.00  0.00    +0.000 A 
ATOM     23  C   UNL     1       0.854   2.649  18.714  0.00  0.00    +0.000 A 
ATOM     24  C   UNL     1       0.802   2.493  20.098  0.00  0.00    +0.000 A 
ATOM     25  C   UNL     1       1.823   3.014  20.890  0.00  0.00    +0.000 A 
ATOM     26  C   UNL     1       2.899   3.687  20.303  0.00  0.00    +0.000 A 
ENDBRANCH  20  21
ENDBRANCH  19  20
ENDBRANCH   2  19
TORSDOF 3
ENDMDL
MODEL 5
REMARK VINA RESULT:      -7.8      0.926      1.350
REMARK  Name = 
REMARK  3 active torsions:
REMARK  status: ('A' for Active; 'I' for Inactive)
REMARK    1  A    between atoms: C_2  and  C_3
REMARK    2  A    between atoms: C_3  and  O_4
REMARK    3  A    between atoms: O_4  and  C_5
REMARK                            x       y       z     vdW  Elec       q    Type
REMARK                         _______ _______ _______ _____ _____    ______ ____
ROOT
ATOM      1  O   UNL     1       3.064   3.479  19.278  0.00  0.00    +0.000 OA
ATOM      2  C   UNL     1       3.181   4.503  18.591  0.00  0.00    +0.000 C 
ATOM      3  N   UNL     1       2.738   5.738  19.060  0.00  0.00    +0.000 N 
ATOM      4  C   UNL     1       2.922   7.055  18.405  0.00  0.00    +0.000 C 
ATOM      5  C   UNL     1       1.867   8.143  18.819  0.00  0.00    +0.000 C 
ATOM      6  N   UNL     1       1.644   8.112  20.282  0.00  0.00    +0.000 N 
ATOM      7  C   UNL     1       0.998   9.188  20.911  0.00  0.00    +0.000 A 
ATOM      8  C   UNL     1       0.734   9.137  22.286  0.00  0.00    +0.000 A 
ATOM      9  N   UNL     1       0.030  10.053  22.988  0.00  0.00    +0.000 NA
ATOM     10  C   UNL     1      -0.343  11.134  22.307  0.00  0.00    +0.000 A 
ATOM     11  C   UNL     1      -1.072  12.098  22.980  0.00  0.00    +0.000 A 
ATOM     12  C   UNL     1      -1.398  13.305  22.377  0.00  0.00    +0.000 A 
ATOM     13  C   UNL     1      -0.988  13.534  21.068  0.00  0.00    +0.000 A 
ATOM     14  C   UNL     1      -0.304  12.534  20.364  0.00  0.00    +0.000 A 
ATOM     15  C   UNL     1       0.020  11.303  20.949  0.00  0.00    +0.000 A 
ATOM     16  N   UNL     1       0.664  10.321  20.248  0.00  0.00    +0.000 NA
ATOM     17  C   UNL     1       1.235   6.764  20.729  0.00  0.00    +0.000 C 
ATOM     18  C   UNL     1       2.397   5.807  20.482  0.00  0.00    +0.000 C 
ENDROOT
BRANCH   2  19
ATOM     19  C   UNL     1       3.826   4.401  17.213  0.00  0.00    +0.000 C 
BRANCH  19  20
ATOM     20  O   UNL     1       5.174   3.968  17.334  0.00  0.00    +0.000 OA
BRANCH  20  21
ATOM     21  C   UNL     1       6.086   4.951  17.623  0.00  0.00    +0.000 A 
ATOM     22  C   UNL     1       6.022   6.094  16.821  0.00  0.00    +0.000 A 
ATOM     23  C   UNL     1       6.864   7.180  17.066  0.00  0.00    +0.000 A 
ATOM     24  C   UNL     1       7.770   7.136  18.125  0.00  0.00    +0.000 A 
ATOM     25  C   UNL     1       7.839   5.998  18.926  0.00  0.00    +0.000 A 
ATOM     26  C   UNL     1       7.001   4.907  18.676  0.00  0.00    +0.000 A 
ENDBRANCH  20  21
ENDBRANCH  19  20
ENDBRANCH   2  19
TORSDOF 3
ENDMDL
MODEL 6
REMARK VINA RESULT:      -7.7      2.082      2.901
REMARK  Name = 
REMARK  3 active torsions:
REMARK  status: ('A' for Active; 'I' for Inactive)
REMARK    1  A    between atoms: C_2  and  C_3
REMARK    2  A    between atoms: C_3  and  O_4
REMARK    3  A    between atoms: O_4  and  C_5
REMARK                            x       y       z     vdW  Elec       q    Type
REMARK                         _______ _______ _______ _____ _____    ______ ____
ROOT
ATOM      1  O   UNL     1       4.957   3.407  18.740  0.00  0.00    +0.000 OA
ATOM      2  C   UNL     1       5.048   4.412  18.021  0.00  0.00    +0.000 C 
ATOM      3  N   UNL     1       4.306   5.560  18.291  0.00  0.00    +0.000 N 
ATOM      4  C   UNL     1       4.404   6.865  17.597  0.00  0.00    +0.000 C 
ATOM      5  C   UNL     1       3.112   7.754  17.692  0.00  0.00    +0.000 C 
ATOM      6  N   UNL     1       2.573   7.732  19.071  0.00  0.00    +0.000 N 
ATOM      7  C   UNL     1       1.627   8.691  19.465  0.00  0.00    +0.000 A 
ATOM      8  C   UNL     1       1.072   8.638  20.751  0.00  0.00    +0.000 A 
ATOM      9  N   UNL     1       0.082   9.432  21.214  0.00  0.00    +0.000 NA
ATOM     10  C   UNL     1      -0.307  10.403  20.392  0.00  0.00    +0.000 A 
ATOM     11  C   UNL     1      -1.324  11.239  20.819  0.00  0.00    +0.000 A 
ATOM     12  C   UNL     1      -1.708  12.345  20.073  0.00  0.00    +0.000 A 
ATOM     13  C   UNL     1      -1.058  12.601  18.870  0.00  0.00    +0.000 A 
ATOM     14  C   UNL     1      -0.072  11.721  18.406  0.00  0.00    +0.000 A 
ATOM     15  C   UNL     1       0.318  10.590  19.136  0.00  0.00    +0.000 A 
ATOM     16  N   UNL     1       1.262   9.721  18.664  0.00  0.00    +0.000 NA
ATOM     17  C   UNL     1       2.312   6.347  19.517  0.00  0.00    +0.000 C 
ATOM     18  C   UNL     1       3.646   5.612  19.597  0.00  0.00    +0.000 C 
ENDROOT
BRANCH   2  19
ATOM     19  C   UNL     1       5.995   4.384  16.826  0.00  0.00    +0.000 C 
BRANCH  19  20
ATOM     20  O   UNL     1       5.285   4.034  15.646  0.00  0.00    +0.000 OA
BRANCH  20  21
ATOM     21  C   UNL     1       5.990   4.156  14.476  0.00  0.00    +0.000 A 
ATOM     22  C   UNL     1       5.480   3.450  13.383  0.00  0.00    +0.000 A 
ATOM     23  C   UNL     1       6.086   3.550  12.129  0.00  0.00    +0.000 A 
ATOM     24  C   UNL     1       7.201   4.368  11.956  0.00  0.00    +0.000 A 
ATOM     25  C   UNL     1       7.715   5.073  13.044  0.00  0.00    +0.000 A 
ATOM     26  C   UNL     1       7.113   4.966  14.301  0.00  0.00    +0.000 A 
ENDBRANCH  20  21
ENDBRANCH  19  20
ENDBRANCH   2  19
TORSDOF 3
ENDMDL
MODEL 7
REMARK VINA RESULT:      -7.6      3.817      9.082
REMARK  Name = 
REMARK  3 active torsions:
REMARK  status: ('A' for Active; 'I' for Inactive)
REMARK    1  A    between atoms: C_2  and  C_3
REMARK    2  A    between atoms: C_3  and  O_4
REMARK    3  A    between atoms: O_4  and  C_5
REMARK                            x       y       z     vdW  Elec       q    Type
REMARK                         _______ _______ _______ _____ _____    ______ ____
ROOT
ATOM      1  O   UNL     1      -0.966  10.980  21.980  0.00  0.00    +0.000 OA
ATOM      2  C   UNL     1      -0.703  11.111  20.776  0.00  0.00    +0.000 C 
ATOM      3  N   UNL     1       0.104  10.191  20.112  0.00  0.00    +0.000 N 
ATOM      4  C   UNL     1       0.400  10.154  18.660  0.00  0.00    +0.000 C 
ATOM      5  C   UNL     1       1.737   9.420  18.285  0.00  0.00    +0.000 C 
ATOM      6  N   UNL     1       1.871   8.166  19.060  0.00  0.00    +0.000 N 
ATOM      7  C   UNL     1       2.809   7.199  18.666  0.00  0.00    +0.000 A 
ATOM      8  C   UNL     1       2.978   6.037  19.430  0.00  0.00    +0.000 A 
ATOM      9  N   UNL     1       3.914   5.085  19.220  0.00  0.00    +0.000 NA
ATOM     10  C   UNL     1       4.657   5.243  18.127  0.00  0.00    +0.000 A 
ATOM     11  C   UNL     1       5.634   4.297  17.872  0.00  0.00    +0.000 A 
ATOM     12  C   UNL     1       6.372   4.323  16.696  0.00  0.00    +0.000 A 
ATOM     13  C   UNL     1       6.121   5.330  15.769  0.00  0.00    +0.000 A 
ATOM     14  C   UNL     1       5.176   6.325  16.054  0.00  0.00    +0.000 A 
ATOM     15  C   UNL     1       4.433   6.325  17.242  0.00  0.00    +0.000 A 
ATOM     16  N   UNL     1       3.532   7.313  17.526  0.00  0.00    +0.000 NA
ATOM     17  C   UNL     1       1.786   8.427  20.513  0.00  0.00    +0.000 C 
ATOM     18  C   UNL     1       0.384   8.942  20.823  0.00  0.00    +0.000 C 
ENDROOT
BRANCH   2  19
ATOM     19  C   UNL     1      -1.282  12.301  20.017  0.00  0.00    +0.000 C 
BRANCH  19  20
ATOM     20  O   UNL     1      -2.693  12.173  19.909  0.00  0.00    +0.000 OA
BRANCH  20  21
ATOM     21  C   UNL     1      -3.158  11.791  18.677  0.00  0.00    +0.000 A 
ATOM     22  C   UNL     1      -4.548  11.763  18.533  0.00  0.00    +0.000 A 
ATOM     23  C   UNL     1      -5.128  11.445  17.304  0.00  0.00    +0.000 A 
ATOM     24  C   UNL     1      -4.319  11.163  16.203  0.00  0.00    +0.000 A 
ATOM     25  C   UNL     1      -2.932  11.188  16.342  0.00  0.00    +0.000 A 
ATOM     26  C   UNL     1      -2.352  11.499  17.575  0.00  0.00    +0.000 A 
ENDBRANCH  20  21
ENDBRANCH  19  20
ENDBRANCH   2  19
TORSDOF 3
ENDMDL
MODEL 8
REMARK VINA RESULT:      -7.6      1.135      1.293
REMARK  Name = 
REMARK  3 active torsions:
REMARK  status: ('A' for Active; 'I' for Inactive)
REMARK    1  A    between atoms: C_2  and  C_3
REMARK    2  A    between atoms: C_3  and  O_4
REMARK    3  A    between atoms: O_4  and  C_5
REMARK                            x       y       z     vdW  Elec       q    Type
REMARK                         _______ _______ _______ _____ _____    ______ ____
ROOT
ATOM      1  O   UNL     1       2.518   3.441  19.508  0.00  0.00    +0.000 OA
ATOM      2  C   UNL     1       2.816   4.454  18.860  0.00  0.00    +0.000 C 
ATOM      3  N   UNL     1       2.462   5.724  19.308  0.00  0.00    +0.000 N 
ATOM      4  C   UNL     1       2.855   7.020  18.706  0.00  0.00    +0.000 C 
ATOM      5  C   UNL     1       1.886   8.213  19.033  0.00  0.00    +0.000 C 
ATOM      6  N   UNL     1       1.507   8.190  20.464  0.00  0.00    +0.000 N 
ATOM      7  C   UNL     1       0.918   9.322  21.047  0.00  0.00    +0.000 A 
ATOM      8  C   UNL     1       0.505   9.285  22.386  0.00  0.00    +0.000 A 
ATOM      9  N   UNL     1      -0.166  10.265  23.031  0.00  0.00    +0.000 NA
ATOM     10  C   UNL     1      -0.346  11.388  22.340  0.00  0.00    +0.000 A 
ATOM     11  C   UNL     1      -1.034  12.418  22.956  0.00  0.00    +0.000 A 
ATOM     12  C   UNL     1      -1.163  13.661  22.350  0.00  0.00    +0.000 A 
ATOM     13  C   UNL     1      -0.594  13.858  21.096  0.00  0.00    +0.000 A 
ATOM     14  C   UNL     1       0.049  12.797  20.444  0.00  0.00    +0.000 A 
ATOM     15  C   UNL     1       0.175  11.531  21.031  0.00  0.00    +0.000 A 
ATOM     16  N   UNL     1       0.780  10.493  20.379  0.00  0.00    +0.000 NA
ATOM     17  C   UNL     1       0.910   6.889  20.835  0.00  0.00    +0.000 C 
ATOM     18  C   UNL     1       1.982   5.814  20.688  0.00  0.00    +0.000 C 
ENDROOT
BRANCH   2  19
ATOM     19  C   UNL     1       3.589   4.297  17.554  0.00  0.00    +0.000 C 
BRANCH  19  20
ATOM     20  O   UNL     1       4.929   3.907  17.822  0.00  0.00    +0.000 OA
BRANCH  20  21
ATOM     21  C   UNL     1       5.834   4.933  17.920  0.00  0.00    +0.000 A 
ATOM     22  C   UNL     1       6.618   4.944  19.077  0.00  0.00    +0.000 A 
ATOM     23  C   UNL     1       7.611   5.910  19.252  0.00  0.00    +0.000 A 
ATOM     24  C   UNL     1       7.835   6.867  18.264  0.00  0.00    +0.000 A 
ATOM     25  C   UNL     1       7.054   6.863  17.110  0.00  0.00    +0.000 A 
ATOM     26  C   UNL     1       6.054   5.900  16.937  0.00  0.00    +0.000 A 
ENDBRANCH  20  21
ENDBRANCH  19  20
ENDBRANCH   2  19
TORSDOF 3
ENDMDL
MODEL 9
REMARK VINA RESULT:      -7.5      3.822      9.331
REMARK  Name = 
REMARK  3 active torsions:
REMARK  status: ('A' for Active; 'I' for Inactive)
REMARK    1  A    between atoms: C_2  and  C_3
REMARK    2  A    between atoms: C_3  and  O_4
REMARK    3  A    between atoms: O_4  and  C_5
REMARK                            x       y       z     vdW  Elec       q    Type
REMARK                         _______ _______ _______ _____ _____    ______ ____
ROOT
ATOM      1  O   UNL     1      -0.963  10.877  21.989  0.00  0.00    +0.000 OA
ATOM      2  C   UNL     1      -0.712  11.025  20.785  0.00  0.00    +0.000 C 
ATOM      3  N   UNL     1       0.102  10.124  20.103  0.00  0.00    +0.000 N 
ATOM      4  C   UNL     1       0.385  10.107  18.649  0.00  0.00    +0.000 C 
ATOM      5  C   UNL     1       1.730   9.397  18.254  0.00  0.00    +0.000 C 
ATOM      6  N   UNL     1       1.888   8.136  19.015  0.00  0.00    +0.000 N 
ATOM      7  C   UNL     1       2.837   7.188  18.602  0.00  0.00    +0.000 A 
ATOM      8  C   UNL     1       3.029   6.020  19.352  0.00  0.00    +0.000 A 
ATOM      9  N   UNL     1       3.977   5.084  19.124  0.00  0.00    +0.000 NA
ATOM     10  C   UNL     1       4.708   5.264  18.026  0.00  0.00    +0.000 A 
ATOM     11  C   UNL     1       5.696   4.335  17.752  0.00  0.00    +0.000 A 
ATOM     12  C   UNL     1       6.423   4.385  16.570  0.00  0.00    +0.000 A 
ATOM     13  C   UNL     1       6.150   5.398  15.657  0.00  0.00    +0.000 A 
ATOM     14  C   UNL     1       5.193   6.376  15.960  0.00  0.00    +0.000 A 
ATOM     15  C   UNL     1       4.461   6.353  17.154  0.00  0.00    +0.000 A 
ATOM     16  N   UNL     1       3.548   7.324  17.457  0.00  0.00    +0.000 NA
ATOM     17  C   UNL     1       1.812   8.381  20.471  0.00  0.00    +0.000 C 
ATOM     18  C   UNL     1       0.406   8.872  20.799  0.00  0.00    +0.000 C 
ENDROOT
BRANCH   2  19
ATOM     19  C   UNL     1      -1.315  12.214  20.044  0.00  0.00    +0.000 C 
BRANCH  19  20
ATOM     20  O   UNL     1      -2.696  12.338  20.357  0.00  0.00    +0.000 OA
BRANCH  20  21
ATOM     21  C   UNL     1      -3.558  12.149  19.307  0.00  0.00    +0.000 A 
ATOM     22  C   UNL     1      -2.989  11.632  18.139  0.00  0.00    +0.000 A 
ATOM     23  C   UNL     1      -3.786  11.346  17.029  0.00  0.00    +0.000 A 
ATOM     24  C   UNL     1      -5.162  11.563  17.083  0.00  0.00    +0.000 A 
ATOM     25  C   UNL     1      -5.734  12.081  18.245  0.00  0.00    +0.000 A 
ATOM     26  C   UNL     1      -4.935  12.375  19.354  0.00  0.00    +0.000 A 
ENDBRANCH  20  21
ENDBRANCH  19  20
ENDBRANCH   2  19
TORSDOF 3
ENDMDL
