MODEL 1
REMARK VINA RESULT:      -7.5      0.000      0.000
REMARK  Name = 
REMARK  3 active torsions:
REMARK  status: ('A' for Active; 'I' for Inactive)
REMARK    1  A    between atoms: C_1  and  N_2
REMARK    2  A    between atoms: N_7  and  C_8
REMARK    3  A    between atoms: C_8  and  C_9
REMARK                            x       y       z     vdW  Elec       q    Type
REMARK                         _______ _______ _______ _____ _____    ______ ____
ROOT
ATOM      1  C   UNL     1       6.282   3.741  15.284  0.00  0.00    +0.000 C 
ATOM      2  N   UNL     1       6.106   4.007  16.694  0.00  0.00    +0.000 N 
ATOM      3  C   UNL     1       6.830   5.103  17.160  0.00  0.00    +0.000 A 
ATOM      4  N   UNL     1       6.961   6.222  16.428  0.00  0.00    +0.000 NA
ATOM      5  N   UNL     1       7.578   7.317  16.975  0.00  0.00    +0.000 NA
ATOM      6  C   UNL     1       8.078   7.247  18.220  0.00  0.00    +0.000 A 
ATOM      7  N   UNL     1       8.590   8.358  18.853  0.00  0.00    +0.000 N 
ATOM      8  N   UNL     1       8.030   6.099  18.913  0.00  0.00    +0.000 NA
ATOM      9  N   UNL     1       7.369   5.018  18.387  0.00  0.00    +0.000 NA
ATOM     10  H   UNL     1       6.314   3.229  17.312  0.00  0.00    +0.000 HD
ATOM     11  H   UNL     1       9.458   8.174  19.336  0.00  0.00    +0.000 HD
ENDROOT
BRANCH   7  12
ATOM     12  C   UNL     1       8.407   9.649  18.238  0.00  0.00    +0.000 C 
BRANCH  12  13
ATOM     13  C   UNL     1       9.460  10.590  18.780  0.00  0.00    +0.000 A 
ATOM     14  C   UNL     1      10.383  11.207  17.932  0.00  0.00    +0.000 A 
ATOM     15  C   UNL     1      11.346  12.083  18.453  0.00  0.00    +0.000 A 
ATOM     16  C   UNL     1      11.381  12.351  19.820  0.00  0.00    +0.000 A 
ATOM     17  C   UNL     1      10.457  11.755  20.671  0.00  0.00    +0.000 A 
ATOM     18  C   UNL     1       9.499  10.883  20.155  0.00  0.00    +0.000 A 
ENDBRANCH  12  13
ENDBRANCH   7  12
TORSDOF 2
ENDMDL
MODEL 2
REMARK VINA RESULT:      -7.3      0.258      1.202
REMARK  Name = 
REMARK  3 active torsions:
REMARK  status: ('A' for Active; 'I' for Inactive)
REMARK    1  A    between atoms: C_1  and  N_2
REMARK    2  A    between atoms: N_7  and  C_8
REMARK    3  A    between atoms: C_8  and  C_9
REMARK                            x       y       z     vdW  Elec       q    Type
REMARK                         _______ _______ _______ _____ _____    ______ ____
ROOT
ATOM      1  C   UNL     1       6.202   3.601  15.412  0.00  0.00    +0.000 C 
ATOM      2  N   UNL     1       6.039   3.922  16.812  0.00  0.00    +0.000 N 
ATOM      3  C   UNL     1       6.764   5.037  17.227  0.00  0.00    +0.000 A 
ATOM      4  N   UNL     1       6.888   6.127  16.450  0.00  0.00    +0.000 NA
ATOM      5  N   UNL     1       7.507   7.243  16.948  0.00  0.00    +0.000 NA
ATOM      6  C   UNL     1       8.019   7.223  18.190  0.00  0.00    +0.000 A 
ATOM      7  N   UNL     1       8.535   8.359  18.774  0.00  0.00    +0.000 N 
ATOM      8  N   UNL     1       7.978   6.103  18.928  0.00  0.00    +0.000 NA
ATOM      9  N   UNL     1       7.314   5.002  18.451  0.00  0.00    +0.000 NA
ATOM     10  H   UNL     1       6.253   3.171  17.458  0.00  0.00    +0.000 HD
ATOM     11  H   UNL     1       9.407   8.195  19.256  0.00  0.00    +0.000 HD
ENDROOT
BRANCH   7  12
ATOM     12  C   UNL     1       8.345   9.624  18.109  0.00  0.00    +0.000 C 
BRANCH  12  13
ATOM     13  C   UNL     1       9.313  10.625  18.700  0.00  0.00    +0.000 A 
ATOM     14  C   UNL     1       9.601  10.630  20.069  0.00  0.00    +0.000 A 
ATOM     15  C   UNL     1      10.507  11.561  20.596  0.00  0.00    +0.000 A 
ATOM     16  C   UNL     1      11.135  12.479  19.757  0.00  0.00    +0.000 A 
ATOM     17  C   UNL     1      10.868  12.472  18.391  0.00  0.00    +0.000 A 
ATOM     18  C   UNL     1       9.966  11.548  17.865  0.00  0.00    +0.000 A 
ENDBRANCH  12  13
ENDBRANCH   7  12
TORSDOF 2
ENDMDL
MODEL 3
REMARK VINA RESULT:      -7.0      4.038      8.197
REMARK  Name = 
REMARK  3 active torsions:
REMARK  status: ('A' for Active; 'I' for Inactive)
REMARK    1  A    between atoms: C_1  and  N_2
REMARK    2  A    between atoms: N_7  and  C_8
REMARK    3  A    between atoms: C_8  and  C_9
REMARK                            x       y       z     vdW  Elec       q    Type
REMARK                         _______ _______ _______ _____ _____    ______ ____
ROOT
ATOM      1  C   UNL     1       7.772   8.745  17.758  0.00  0.00    +0.000 C 
ATOM      2  N   UNL     1       8.010   7.559  16.967  0.00  0.00    +0.000 N 
ATOM      3  C   UNL     1       7.130   6.512  17.235  0.00  0.00    +0.000 A 
ATOM      4  N   UNL     1       5.825   6.731  17.471  0.00  0.00    +0.000 NA
ATOM      5  N   UNL     1       4.976   5.665  17.610  0.00  0.00    +0.000 NA
ATOM      6  C   UNL     1       5.462   4.413  17.547  0.00  0.00    +0.000 A 
ATOM      7  N   UNL     1       4.629   3.317  17.554  0.00  0.00    +0.000 N 
ATOM      8  N   UNL     1       6.780   4.198  17.406  0.00  0.00    +0.000 NA
ATOM      9  N   UNL     1       7.623   5.264  17.217  0.00  0.00    +0.000 NA
ATOM     10  H   UNL     1       8.949   7.180  17.024  0.00  0.00    +0.000 HD
ATOM     11  H   UNL     1       4.955   2.576  18.158  0.00  0.00    +0.000 HD
ENDROOT
BRANCH   7  12
ATOM     12  C   UNL     1       3.208   3.528  17.433  0.00  0.00    +0.000 C 
BRANCH  12  13
ATOM     13  C   UNL     1       2.573   3.293  18.785  0.00  0.00    +0.000 A 
ATOM     14  C   UNL     1       1.194   3.429  18.968  0.00  0.00    +0.000 A 
ATOM     15  C   UNL     1       0.623   3.200  20.228  0.00  0.00    +0.000 A 
ATOM     16  C   UNL     1       1.426   2.824  21.303  0.00  0.00    +0.000 A 
ATOM     17  C   UNL     1       2.798   2.671  21.128  0.00  0.00    +0.000 A 
ATOM     18  C   UNL     1       3.368   2.899  19.875  0.00  0.00    +0.000 A 
ENDBRANCH  12  13
ENDBRANCH   7  12
TORSDOF 2
ENDMDL
MODEL 4
REMARK VINA RESULT:      -7.0      3.877      7.945
REMARK  Name = 
REMARK  3 active torsions:
REMARK  status: ('A' for Active; 'I' for Inactive)
REMARK    1  A    between atoms: C_1  and  N_2
REMARK    2  A    between atoms: N_7  and  C_8
REMARK    3  A    between atoms: C_8  and  C_9
REMARK                            x       y       z     vdW  Elec       q    Type
REMARK                         _______ _______ _______ _____ _____    ______ ____
ROOT
ATOM      1  C   UNL     1       7.832   8.563  17.691  0.00  0.00    +0.000 C 
ATOM      2  N   UNL     1       7.950   7.452  16.774  0.00  0.00    +0.000 N 
ATOM      3  C   UNL     1       7.066   6.407  17.031  0.00  0.00    +0.000 A 
ATOM      4  N   UNL     1       5.799   6.634  17.416  0.00  0.00    +0.000 NA
ATOM      5  N   UNL     1       4.932   5.581  17.541  0.00  0.00    +0.000 NA
ATOM      6  C   UNL     1       5.366   4.330  17.315  0.00  0.00    +0.000 A 
ATOM      7  N   UNL     1       4.501   3.258  17.304  0.00  0.00    +0.000 N 
ATOM      8  N   UNL     1       6.655   4.096  17.023  0.00  0.00    +0.000 NA
ATOM      9  N   UNL     1       7.512   5.154  16.848  0.00  0.00    +0.000 NA
ATOM     10  H   UNL     1       8.877   7.046  16.701  0.00  0.00    +0.000 HD
ATOM     11  H   UNL     1       4.859   2.455  17.800  0.00  0.00    +0.000 HD
ENDROOT
BRANCH   7  12
ATOM     12  C   UNL     1       3.083   3.515  17.346  0.00  0.00    +0.000 C 
BRANCH  12  13
ATOM     13  C   UNL     1       2.639   3.510  18.791  0.00  0.00    +0.000 A 
ATOM     14  C   UNL     1       3.130   2.562  19.694  0.00  0.00    +0.000 A 
ATOM     15  C   UNL     1       2.711   2.579  21.032  0.00  0.00    +0.000 A 
ATOM     16  C   UNL     1       1.812   3.548  21.472  0.00  0.00    +0.000 A 
ATOM     17  C   UNL     1       1.329   4.505  20.586  0.00  0.00    +0.000 A 
ATOM     18  C   UNL     1       1.743   4.490  19.254  0.00  0.00    +0.000 A 
ENDBRANCH  12  13
ENDBRANCH   7  12
TORSDOF 2
ENDMDL
MODEL 5
REMARK VINA RESULT:      -6.9      5.786      8.210
REMARK  Name = 
REMARK  3 active torsions:
REMARK  status: ('A' for Active; 'I' for Inactive)
REMARK    1  A    between atoms: C_1  and  N_2
REMARK    2  A    between atoms: N_7  and  C_8
REMARK    3  A    between atoms: C_8  and  C_9
REMARK                            x       y       z     vdW  Elec       q    Type
REMARK                         _______ _______ _______ _____ _____    ______ ____
ROOT
ATOM      1  C   UNL     1       7.668   5.349  12.373  0.00  0.00    +0.000 C 
ATOM      2  N   UNL     1       8.155   5.383  13.734  0.00  0.00    +0.000 N 
ATOM      3  C   UNL     1       7.178   5.124  14.693  0.00  0.00    +0.000 A 
ATOM      4  N   UNL     1       6.229   4.193  14.499  0.00  0.00    +0.000 NA
ATOM      5  N   UNL     1       5.364   3.889  15.517  0.00  0.00    +0.000 NA
ATOM      6  C   UNL     1       5.447   4.552  16.683  0.00  0.00    +0.000 A 
ATOM      7  N   UNL     1       4.684   4.192  17.771  0.00  0.00    +0.000 N 
ATOM      8  N   UNL     1       6.333   5.547  16.841  0.00  0.00    +0.000 NA
ATOM      9  N   UNL     1       7.233   5.818  15.841  0.00  0.00    +0.000 NA
ATOM     10  H   UNL     1       8.620   6.241  14.008  0.00  0.00    +0.000 HD
ATOM     11  H   UNL     1       4.278   4.984  18.249  0.00  0.00    +0.000 HD
ENDROOT
BRANCH   7  12
ATOM     12  C   UNL     1       3.928   2.966  17.710  0.00  0.00    +0.000 C 
BRANCH  12  13
ATOM     13  C   UNL     1       3.002   2.916  18.904  0.00  0.00    +0.000 A 
ATOM     14  C   UNL     1       3.504   2.814  20.205  0.00  0.00    +0.000 A 
ATOM     15  C   UNL     1       2.629   2.777  21.299  0.00  0.00    +0.000 A 
ATOM     16  C   UNL     1       1.252   2.851  21.097  0.00  0.00    +0.000 A 
ATOM     17  C   UNL     1       0.742   2.968  19.808  0.00  0.00    +0.000 A 
ATOM     18  C   UNL     1       1.611   3.005  18.718  0.00  0.00    +0.000 A 
ENDBRANCH  12  13
ENDBRANCH   7  12
TORSDOF 2
ENDMDL
MODEL 6
REMARK VINA RESULT:      -6.8      5.398      7.667
REMARK  Name = 
REMARK  3 active torsions:
REMARK  status: ('A' for Active; 'I' for Inactive)
REMARK    1  A    between atoms: C_1  and  N_2
REMARK    2  A    between atoms: N_7  and  C_8
REMARK    3  A    between atoms: C_8  and  C_9
REMARK                            x       y       z     vdW  Elec       q    Type
REMARK                         _______ _______ _______ _____ _____    ______ ____
ROOT
ATOM      1  C   UNL     1       7.159   4.846  12.839  0.00  0.00    +0.000 C 
ATOM      2  N   UNL     1       7.878   5.255  14.024  0.00  0.00    +0.000 N 
ATOM      3  C   UNL     1       7.144   5.135  15.203  0.00  0.00    +0.000 A 
ATOM      4  N   UNL     1       6.325   4.093  15.421  0.00  0.00    +0.000 NA
ATOM      5  N   UNL     1       5.717   3.955  16.641  0.00  0.00    +0.000 NA
ATOM      6  C   UNL     1       5.915   4.884  17.592  0.00  0.00    +0.000 A 
ATOM      7  N   UNL     1       5.427   4.720  18.870  0.00  0.00    +0.000 N 
ATOM      8  N   UNL     1       6.657   5.973  17.340  0.00  0.00    +0.000 NA
ATOM      9  N   UNL     1       7.306   6.086  16.137  0.00  0.00    +0.000 NA
ATOM     10  H   UNL     1       8.253   6.197  14.002  0.00  0.00    +0.000 HD
ATOM     11  H   UNL     1       5.004   5.557  19.243  0.00  0.00    +0.000 HD
ENDROOT
BRANCH   7  12
ATOM     12  C   UNL     1       4.864   3.444  19.236  0.00  0.00    +0.000 C 
BRANCH  12  13
ATOM     13  C   UNL     1       3.427   3.659  19.655  0.00  0.00    +0.000 A 
ATOM     14  C   UNL     1       2.992   4.898  20.133  0.00  0.00    +0.000 A 
ATOM     15  C   UNL     1       1.653   5.079  20.510  0.00  0.00    +0.000 A 
ATOM     16  C   UNL     1       0.747   4.027  20.399  0.00  0.00    +0.000 A 
ATOM     17  C   UNL     1       1.166   2.794  19.910  0.00  0.00    +0.000 A 
ATOM     18  C   UNL     1       2.497   2.611  19.535  0.00  0.00    +0.000 A 
ENDBRANCH  12  13
ENDBRANCH   7  12
TORSDOF 2
ENDMDL
MODEL 7
REMARK VINA RESULT:      -6.8      5.917      8.282
REMARK  Name = 
REMARK  3 active torsions:
REMARK  status: ('A' for Active; 'I' for Inactive)
REMARK    1  A    between atoms: C_1  and  N_2
REMARK    2  A    between atoms: N_7  and  C_8
REMARK    3  A    between atoms: C_8  and  C_9
REMARK                            x       y       z     vdW  Elec       q    Type
REMARK                         _______ _______ _______ _____ _____    ______ ____
ROOT
ATOM      1  C   UNL     1       7.762   4.891  12.640  0.00  0.00    +0.000 C 
ATOM      2  N   UNL     1       7.837   5.516  13.941  0.00  0.00    +0.000 N 
ATOM      3  C   UNL     1       6.767   5.209  14.780  0.00  0.00    +0.000 A 
ATOM      4  N   UNL     1       6.234   3.976  14.821  0.00  0.00    +0.000 NA
ATOM      5  N   UNL     1       5.265   3.690  15.746  0.00  0.00    +0.000 NA
ATOM      6  C   UNL     1       4.830   4.654  16.576  0.00  0.00    +0.000 A 
ATOM      7  N   UNL     1       3.953   4.379  17.601  0.00  0.00    +0.000 N 
ATOM      8  N   UNL     1       5.296   5.908  16.470  0.00  0.00    +0.000 NA
ATOM      9  N   UNL     1       6.302   6.184  15.578  0.00  0.00    +0.000 NA
ATOM     10  H   UNL     1       7.928   6.526  13.934  0.00  0.00    +0.000 HD
ATOM     11  H   UNL     1       3.214   5.062  17.684  0.00  0.00    +0.000 HD
ENDROOT
BRANCH   7  12
ATOM     12  C   UNL     1       3.651   3.001  17.901  0.00  0.00    +0.000 C 
BRANCH  12  13
ATOM     13  C   UNL     1       2.817   2.959  19.161  0.00  0.00    +0.000 A 
ATOM     14  C   UNL     1       1.447   3.240  19.131  0.00  0.00    +0.000 A 
ATOM     15  C   UNL     1       0.689   3.187  20.309  0.00  0.00    +0.000 A 
ATOM     16  C   UNL     1       1.295   2.843  21.516  0.00  0.00    +0.000 A 
ATOM     17  C   UNL     1       2.653   2.546  21.555  0.00  0.00    +0.000 A 
ATOM     18  C   UNL     1       3.409   2.599  20.384  0.00  0.00    +0.000 A 
ENDBRANCH  12  13
ENDBRANCH   7  12
TORSDOF 2
ENDMDL
MODEL 8
REMARK VINA RESULT:      -6.8      5.819      7.794
REMARK  Name = 
REMARK  3 active torsions:
REMARK  status: ('A' for Active; 'I' for Inactive)
REMARK    1  A    between atoms: C_1  and  N_2
REMARK    2  A    between atoms: N_7  and  C_8
REMARK    3  A    between atoms: C_8  and  C_9
REMARK                            x       y       z     vdW  Elec       q    Type
REMARK                         _______ _______ _______ _____ _____    ______ ____
ROOT
ATOM      1  C   UNL     1       6.329   3.551  12.466  0.00  0.00    +0.000 C 
ATOM      2  N   UNL     1       6.899   4.588  13.295  0.00  0.00    +0.000 N 
ATOM      3  C   UNL     1       6.306   4.702  14.551  0.00  0.00    +0.000 A 
ATOM      4  N   UNL     1       5.928   3.620  15.252  0.00  0.00    +0.000 NA
ATOM      5  N   UNL     1       5.460   3.774  16.531  0.00  0.00    +0.000 NA
ATOM      6  C   UNL     1       5.347   5.006  17.055  0.00  0.00    +0.000 A 
ATOM      7  N   UNL     1       5.004   5.198  18.375  0.00  0.00    +0.000 N 
ATOM      8  N   UNL     1       5.635   6.091  16.319  0.00  0.00    +0.000 NA
ATOM      9  N   UNL     1       6.151   5.936  15.057  0.00  0.00    +0.000 NA
ATOM     10  H   UNL     1       6.908   5.516  12.885  0.00  0.00    +0.000 HD
ATOM     11  H   UNL     1       4.322   5.931  18.504  0.00  0.00    +0.000 HD
ENDROOT
BRANCH   7  12
ATOM     12  C   UNL     1       4.955   4.053  19.249  0.00  0.00    +0.000 C 
BRANCH  12  13
ATOM     13  C   UNL     1       3.516   3.819  19.651  0.00  0.00    +0.000 A 
ATOM     14  C   UNL     1       2.916   2.566  19.493  0.00  0.00    +0.000 A 
ATOM     15  C   UNL     1       1.583   2.368  19.879  0.00  0.00    +0.000 A 
ATOM     16  C   UNL     1       0.851   3.417  20.432  0.00  0.00    +0.000 A 
ATOM     17  C   UNL     1       1.442   4.664  20.607  0.00  0.00    +0.000 A 
ATOM     18  C   UNL     1       2.768   4.863  20.224  0.00  0.00    +0.000 A 
ENDBRANCH  12  13
ENDBRANCH   7  12
TORSDOF 2
ENDMDL
MODEL 9
REMARK VINA RESULT:      -6.7      5.397      8.034
REMARK  Name = 
REMARK  3 active torsions:
REMARK  status: ('A' for Active; 'I' for Inactive)
REMARK    1  A    between atoms: C_1  and  N_2
REMARK    2  A    between atoms: N_7  and  C_8
REMARK    3  A    between atoms: C_8  and  C_9
REMARK                            x       y       z     vdW  Elec       q    Type
REMARK                         _______ _______ _______ _____ _____    ______ ____
ROOT
ATOM      1  C   UNL     1       7.207   5.002  14.355  0.00  0.00    +0.000 C 
ATOM      2  N   UNL     1       7.295   4.345  15.640  0.00  0.00    +0.000 N 
ATOM      3  C   UNL     1       6.458   4.888  16.613  0.00  0.00    +0.000 A 
ATOM      4  N   UNL     1       5.214   5.303  16.321  0.00  0.00    +0.000 NA
ATOM      5  N   UNL     1       4.386   5.717  17.331  0.00  0.00    +0.000 NA
ATOM      6  C   UNL     1       4.839   5.741  18.596  0.00  0.00    +0.000 A 
ATOM      7  N   UNL     1       4.005   6.028  19.654  0.00  0.00    +0.000 N 
ATOM      8  N   UNL     1       6.111   5.417  18.873  0.00  0.00    +0.000 NA
ATOM      9  N   UNL     1       6.925   4.954  17.870  0.00  0.00    +0.000 NA
ATOM     10  H   UNL     1       8.225   4.298  16.040  0.00  0.00    +0.000 HD
ATOM     11  H   UNL     1       4.417   6.662  20.323  0.00  0.00    +0.000 HD
ENDROOT
BRANCH   7  12
ATOM     12  C   UNL     1       2.586   6.113  19.411  0.00  0.00    +0.000 C 
BRANCH  12  13
ATOM     13  C   UNL     1       1.986   4.738  19.600  0.00  0.00    +0.000 A 
ATOM     14  C   UNL     1       1.839   4.182  20.874  0.00  0.00    +0.000 A 
ATOM     15  C   UNL     1       1.272   2.909  21.029  0.00  0.00    +0.000 A 
ATOM     16  C   UNL     1       0.842   2.195  19.913  0.00  0.00    +0.000 A 
ATOM     17  C   UNL     1       0.969   2.744  18.641  0.00  0.00    +0.000 A 
ATOM     18  C   UNL     1       1.533   4.010  18.485  0.00  0.00    +0.000 A 
ENDBRANCH  12  13
ENDBRANCH   7  12
TORSDOF 2
ENDMDL
