MODEL 1
REMARK VINA RESULT:      -7.6      0.000      0.000
REMARK  Name = 
REMARK  4 active torsions:
REMARK  status: ('A' for Active; 'I' for Inactive)
REMARK    1  A    between atoms: C_1  and  C_2
REMARK    2  A    between atoms: C_7  and  C_8
REMARK    3  A    between atoms: N_10  and  C_11
REMARK    4  A    between atoms: C_16  and  N_17
REMARK                            x       y       z     vdW  Elec       q    Type
REMARK                         _______ _______ _______ _____ _____    ______ ____
ROOT
ATOM      1  C   UNL     1       2.678   6.285  18.753  0.00  0.00    +0.000 A 
ATOM      2  C   UNL     1       2.452   7.657  18.966  0.00  0.00    +0.000 A 
ATOM      3  C   UNL     1       1.750   8.099  20.081  0.00  0.00    +0.000 A 
ATOM      4  C   UNL     1       1.228   7.169  20.968  0.00  0.00    +0.000 A 
ATOM      5  C   UNL     1       1.440   5.804  20.753  0.00  0.00    +0.000 A 
ATOM      6  C   UNL     1       2.197   5.314  19.669  0.00  0.00    +0.000 A 
ENDROOT
BRANCH   6   7
ATOM      7  N   UNL     1       2.358   3.936  19.536  0.00  0.00    +0.000 N 
ATOM      8  C   UNL     1       3.146   3.124  20.460  0.00  0.00    +0.000 C 
ATOM      9  C   UNL     1       4.056   2.166  19.693  0.00  0.00    +0.000 C 
ATOM     10  C   UNL     1       3.280   1.348  18.664  0.00  0.00    +0.000 C 
ATOM     11  C   UNL     1       2.475   2.261  17.743  0.00  0.00    +0.000 C 
ATOM     12  C   UNL     1       1.569   3.201  18.540  0.00  0.00    +0.000 C 
ENDBRANCH   6   7
BRANCH   1  15
ATOM     13  C   UNL     1       4.819   5.462  17.827  0.00  0.00    +0.000 C 
ATOM     14  O   UNL     1       5.370   5.327  18.914  0.00  0.00    +0.000 OA
ATOM     15  N   UNL     1       3.510   5.906  17.673  0.00  0.00    +0.000 N 
ATOM     16  H   UNL     1       3.167   6.199  16.773  0.00  0.00    +0.000 HD
BRANCH  13  23
ATOM     17  C   UNL     1       7.421   6.874  17.222  0.00  0.00    +0.000 C 
ATOM     18  C   UNL     1       6.816   5.856  16.293  0.00  0.00    +0.000 A 
ATOM     19  C   UNL     1       7.500   5.570  15.099  0.00  0.00    +0.000 A 
ATOM     20  C   UNL     1       6.998   4.649  14.181  0.00  0.00    +0.000 A 
ATOM     21  C   UNL     1       5.785   4.017  14.430  0.00  0.00    +0.000 A 
ATOM     22  C   UNL     1       5.088   4.294  15.604  0.00  0.00    +0.000 A 
ATOM     23  C   UNL     1       5.592   5.194  16.561  0.00  0.00    +0.000 A 
ENDBRANCH  13  23
ENDBRANCH   1  15
TORSDOF 3
ENDMDL
MODEL 2
REMARK VINA RESULT:      -7.5      1.826      5.794
REMARK  Name = 
REMARK  4 active torsions:
REMARK  status: ('A' for Active; 'I' for Inactive)
REMARK    1  A    between atoms: C_1  and  C_2
REMARK    2  A    between atoms: C_7  and  C_8
REMARK    3  A    between atoms: N_10  and  C_11
REMARK    4  A    between atoms: C_16  and  N_17
REMARK                            x       y       z     vdW  Elec       q    Type
REMARK                         _______ _______ _______ _____ _____    ______ ____
ROOT
ATOM      1  C   UNL     1       3.929   5.876  18.061  0.00  0.00    +0.000 A 
ATOM      2  C   UNL     1       4.798   6.514  17.158  0.00  0.00    +0.000 A 
ATOM      3  C   UNL     1       5.433   5.796  16.151  0.00  0.00    +0.000 A 
ATOM      4  C   UNL     1       5.241   4.425  16.069  0.00  0.00    +0.000 A 
ATOM      5  C   UNL     1       4.387   3.785  16.973  0.00  0.00    +0.000 A 
ATOM      6  C   UNL     1       3.676   4.482  17.971  0.00  0.00    +0.000 A 
ENDROOT
BRANCH   6   7
ATOM      7  N   UNL     1       2.845   3.760  18.826  0.00  0.00    +0.000 N 
ATOM      8  C   UNL     1       1.387   3.825  18.777  0.00  0.00    +0.000 C 
ATOM      9  C   UNL     1       0.808   3.983  20.182  0.00  0.00    +0.000 C 
ATOM     10  C   UNL     1       1.343   2.923  21.140  0.00  0.00    +0.000 C 
ATOM     11  C   UNL     1       2.870   2.907  21.130  0.00  0.00    +0.000 C 
ATOM     12  C   UNL     1       3.418   2.740  19.712  0.00  0.00    +0.000 C 
ENDBRANCH   6   7
BRANCH   1  15
ATOM     13  C   UNL     1       2.216   7.575  18.604  0.00  0.00    +0.000 C 
ATOM     14  O   UNL     1       1.841   7.734  17.447  0.00  0.00    +0.000 OA
ATOM     15  N   UNL     1       3.213   6.679  18.978  0.00  0.00    +0.000 N 
ATOM     16  H   UNL     1       3.632   6.727  19.892  0.00  0.00    +0.000 HD
BRANCH  13  23
ATOM     17  C   UNL     1       1.578  10.500  18.190  0.00  0.00    +0.000 C 
ATOM     18  C   UNL     1       1.322   9.790  19.493  0.00  0.00    +0.000 A 
ATOM     19  C   UNL     1       0.770  10.537  20.548  0.00  0.00    +0.000 A 
ATOM     20  C   UNL     1       0.516   9.956  21.789  0.00  0.00    +0.000 A 
ATOM     21  C   UNL     1       0.836   8.620  22.005  0.00  0.00    +0.000 A 
ATOM     22  C   UNL     1       1.392   7.866  20.973  0.00  0.00    +0.000 A 
ATOM     23  C   UNL     1       1.625   8.422  19.702  0.00  0.00    +0.000 A 
ENDBRANCH  13  23
ENDBRANCH   1  15
TORSDOF 3
ENDMDL
MODEL 3
REMARK VINA RESULT:      -7.4      1.598      5.614
REMARK  Name = 
REMARK  4 active torsions:
REMARK  status: ('A' for Active; 'I' for Inactive)
REMARK    1  A    between atoms: C_1  and  C_2
REMARK    2  A    between atoms: C_7  and  C_8
REMARK    3  A    between atoms: N_10  and  C_11
REMARK    4  A    between atoms: C_16  and  N_17
REMARK                            x       y       z     vdW  Elec       q    Type
REMARK                         _______ _______ _______ _____ _____    ______ ____
ROOT
ATOM      1  C   UNL     1       2.324   4.266  18.190  0.00  0.00    +0.000 A 
ATOM      2  C   UNL     1       1.259   3.448  18.605  0.00  0.00    +0.000 A 
ATOM      3  C   UNL     1       1.433   2.079  18.774  0.00  0.00    +0.000 A 
ATOM      4  C   UNL     1       2.665   1.511  18.485  0.00  0.00    +0.000 A 
ATOM      5  C   UNL     1       3.724   2.320  18.060  0.00  0.00    +0.000 A 
ATOM      6  C   UNL     1       3.609   3.719  17.933  0.00  0.00    +0.000 A 
ENDROOT
BRANCH   6   7
ATOM      7  N   UNL     1       4.719   4.444  17.505  0.00  0.00    +0.000 N 
ATOM      8  C   UNL     1       5.824   4.818  18.384  0.00  0.00    +0.000 C 
ATOM      9  C   UNL     1       6.200   6.285  18.180  0.00  0.00    +0.000 C 
ATOM     10  C   UNL     1       6.448   6.609  16.710  0.00  0.00    +0.000 C 
ATOM     11  C   UNL     1       5.259   6.181  15.854  0.00  0.00    +0.000 C 
ATOM     12  C   UNL     1       4.912   4.708  16.074  0.00  0.00    +0.000 C 
ENDBRANCH   6   7
BRANCH   1  15
ATOM     13  C   UNL     1       2.443   6.513  19.217  0.00  0.00    +0.000 C 
ATOM     14  O   UNL     1       2.963   6.134  20.261  0.00  0.00    +0.000 OA
ATOM     15  N   UNL     1       2.120   5.665  18.162  0.00  0.00    +0.000 N 
ATOM     16  H   UNL     1       1.514   5.974  17.420  0.00  0.00    +0.000 HD
BRANCH  13  23
ATOM     17  C   UNL     1       0.817   7.977  21.302  0.00  0.00    +0.000 C 
ATOM     18  C   UNL     1       1.311   8.642  20.044  0.00  0.00    +0.000 A 
ATOM     19  C   UNL     1       0.987   9.995  19.847  0.00  0.00    +0.000 A 
ATOM     20  C   UNL     1       1.396  10.676  18.702  0.00  0.00    +0.000 A 
ATOM     21  C   UNL     1       2.115  10.007  17.719  0.00  0.00    +0.000 A 
ATOM     22  C   UNL     1       2.439   8.662  17.893  0.00  0.00    +0.000 A 
ATOM     23  C   UNL     1       2.066   7.963  19.055  0.00  0.00    +0.000 A 
ENDBRANCH  13  23
ENDBRANCH   1  15
TORSDOF 3
ENDMDL
MODEL 4
REMARK VINA RESULT:      -7.4      1.641      5.788
REMARK  Name = 
REMARK  4 active torsions:
REMARK  status: ('A' for Active; 'I' for Inactive)
REMARK    1  A    between atoms: C_1  and  C_2
REMARK    2  A    between atoms: C_7  and  C_8
REMARK    3  A    between atoms: N_10  and  C_11
REMARK    4  A    between atoms: C_16  and  N_17
REMARK                            x       y       z     vdW  Elec       q    Type
REMARK                         _______ _______ _______ _____ _____    ______ ____
ROOT
ATOM      1  C   UNL     1       2.368   4.494  18.073  0.00  0.00    +0.000 A 
ATOM      2  C   UNL     1       1.315   3.634  18.431  0.00  0.00    +0.000 A 
ATOM      3  C   UNL     1       1.518   2.263  18.537  0.00  0.00    +0.000 A 
ATOM      4  C   UNL     1       2.766   1.736  18.240  0.00  0.00    +0.000 A 
ATOM      5  C   UNL     1       3.813   2.587  17.872  0.00  0.00    +0.000 A 
ATOM      6  C   UNL     1       3.668   3.988  17.810  0.00  0.00    +0.000 A 
ENDROOT
BRANCH   6   7
ATOM      7  N   UNL     1       4.769   4.757  17.435  0.00  0.00    +0.000 N 
ATOM      8  C   UNL     1       4.942   5.316  16.097  0.00  0.00    +0.000 C 
ATOM      9  C   UNL     1       6.365   5.076  15.594  0.00  0.00    +0.000 C 
ATOM     10  C   UNL     1       7.410   5.551  16.598  0.00  0.00    +0.000 C 
ATOM     11  C   UNL     1       7.159   4.934  17.972  0.00  0.00    +0.000 C 
ATOM     12  C   UNL     1       5.731   5.199  18.451  0.00  0.00    +0.000 C 
ENDBRANCH   6   7
BRANCH   1  15
ATOM     13  C   UNL     1       2.347   6.677  19.235  0.00  0.00    +0.000 C 
ATOM     14  O   UNL     1       2.788   6.247  20.296  0.00  0.00    +0.000 OA
ATOM     15  N   UNL     1       2.133   5.888  18.109  0.00  0.00    +0.000 N 
ATOM     16  H   UNL     1       1.583   6.229  17.338  0.00  0.00    +0.000 HD
BRANCH  13  23
ATOM     17  C   UNL     1       0.692   8.038  21.366  0.00  0.00    +0.000 C 
ATOM     18  C   UNL     1       1.181   8.757  20.137  0.00  0.00    +0.000 A 
ATOM     19  C   UNL     1       0.838  10.112  19.990  0.00  0.00    +0.000 A 
ATOM     20  C   UNL     1       1.241  10.842  18.874  0.00  0.00    +0.000 A 
ATOM     21  C   UNL     1       1.974  10.221  17.869  0.00  0.00    +0.000 A 
ATOM     22  C   UNL     1       2.317   8.875  17.993  0.00  0.00    +0.000 A 
ATOM     23  C   UNL     1       1.950   8.127  19.126  0.00  0.00    +0.000 A 
ENDBRANCH  13  23
ENDBRANCH   1  15
TORSDOF 3
ENDMDL
MODEL 5
REMARK VINA RESULT:      -7.3      1.746      6.015
REMARK  Name = 
REMARK  4 active torsions:
REMARK  status: ('A' for Active; 'I' for Inactive)
REMARK    1  A    between atoms: C_1  and  C_2
REMARK    2  A    between atoms: C_7  and  C_8
REMARK    3  A    between atoms: N_10  and  C_11
REMARK    4  A    between atoms: C_16  and  N_17
REMARK                            x       y       z     vdW  Elec       q    Type
REMARK                         _______ _______ _______ _____ _____    ______ ____
ROOT
ATOM      1  C   UNL     1       2.428   4.607  18.329  0.00  0.00    +0.000 A 
ATOM      2  C   UNL     1       1.442   3.608  18.394  0.00  0.00    +0.000 A 
ATOM      3  C   UNL     1       1.772   2.267  18.228  0.00  0.00    +0.000 A 
ATOM      4  C   UNL     1       3.086   1.921  17.951  0.00  0.00    +0.000 A 
ATOM      5  C   UNL     1       4.068   2.914  17.873  0.00  0.00    +0.000 A 
ATOM      6  C   UNL     1       3.789   4.278  18.093  0.00  0.00    +0.000 A 
ENDROOT
BRANCH   6   7
ATOM      7  N   UNL     1       4.833   5.196  17.998  0.00  0.00    +0.000 N 
ATOM      8  C   UNL     1       5.059   6.039  16.826  0.00  0.00    +0.000 C 
ATOM      9  C   UNL     1       6.536   6.028  16.433  0.00  0.00    +0.000 C 
ATOM     10  C   UNL     1       7.440   6.364  17.615  0.00  0.00    +0.000 C 
ATOM     11  C   UNL     1       7.140   5.452  18.802  0.00  0.00    +0.000 C 
ATOM     12  C   UNL     1       5.657   5.490  19.176  0.00  0.00    +0.000 C 
ENDBRANCH   6   7
BRANCH   1  15
ATOM     13  C   UNL     1       2.087   6.472  19.918  0.00  0.00    +0.000 C 
ATOM     14  O   UNL     1       2.474   5.854  20.904  0.00  0.00    +0.000 OA
ATOM     15  N   UNL     1       2.053   5.937  18.634  0.00  0.00    +0.000 N 
ATOM     16  H   UNL     1       1.541   6.395  17.898  0.00  0.00    +0.000 HD
BRANCH  13  23
ATOM     17  C   UNL     1       2.367   8.536  17.728  0.00  0.00    +0.000 C 
ATOM     18  C   UNL     1       1.687   8.830  19.040  0.00  0.00    +0.000 A 
ATOM     19  C   UNL     1       1.175  10.125  19.236  0.00  0.00    +0.000 A 
ATOM     20  C   UNL     1       0.545  10.479  20.426  0.00  0.00    +0.000 A 
ATOM     21  C   UNL     1       0.439   9.551  21.456  0.00  0.00    +0.000 A 
ATOM     22  C   UNL     1       0.948   8.264  21.283  0.00  0.00    +0.000 A 
ATOM     23  C   UNL     1       1.558   7.874  20.077  0.00  0.00    +0.000 A 
ENDBRANCH  13  23
ENDBRANCH   1  15
TORSDOF 3
ENDMDL
MODEL 6
REMARK VINA RESULT:      -7.1      1.917      5.667
REMARK  Name = 
REMARK  4 active torsions:
REMARK  status: ('A' for Active; 'I' for Inactive)
REMARK    1  A    between atoms: C_1  and  C_2
REMARK    2  A    between atoms: C_7  and  C_8
REMARK    3  A    between atoms: N_10  and  C_11
REMARK    4  A    between atoms: C_16  and  N_17
REMARK                            x       y       z     vdW  Elec       q    Type
REMARK                         _______ _______ _______ _____ _____    ______ ____
ROOT
ATOM      1  C   UNL     1       3.998   6.248  17.666  0.00  0.00    +0.000 A 
ATOM      2  C   UNL     1       4.875   6.614  16.629  0.00  0.00    +0.000 A 
ATOM      3  C   UNL     1       5.412   5.655  15.778  0.00  0.00    +0.000 A 
ATOM      4  C   UNL     1       5.112   4.317  15.985  0.00  0.00    +0.000 A 
ATOM      5  C   UNL     1       4.250   3.948  17.023  0.00  0.00    +0.000 A 
ATOM      6  C   UNL     1       3.635   4.891  17.872  0.00  0.00    +0.000 A 
ENDROOT
BRANCH   6   7
ATOM      7  N   UNL     1       2.788   4.430  18.878  0.00  0.00    +0.000 N 
ATOM      8  C   UNL     1       3.160   4.390  20.289  0.00  0.00    +0.000 C 
ATOM      9  C   UNL     1       2.775   3.048  20.910  0.00  0.00    +0.000 C 
ATOM     10  C   UNL     1       1.311   2.702  20.651  0.00  0.00    +0.000 C 
ATOM     11  C   UNL     1       0.995   2.774  19.159  0.00  0.00    +0.000 C 
ATOM     12  C   UNL     1       1.384   4.131  18.570  0.00  0.00    +0.000 C 
ENDBRANCH   6   7
BRANCH   1  15
ATOM     13  C   UNL     1       2.116   7.782  18.137  0.00  0.00    +0.000 C 
ATOM     14  O   UNL     1       1.397   7.362  17.236  0.00  0.00    +0.000 OA
ATOM     15  N   UNL     1       3.383   7.279  18.414  0.00  0.00    +0.000 N 
ATOM     16  H   UNL     1       4.016   7.779  19.015  0.00  0.00    +0.000 HD
BRANCH  13  23
ATOM     17  C   UNL     1       1.278   7.436  21.020  0.00  0.00    +0.000 C 
ATOM     18  C   UNL     1       1.275   8.774  20.329  0.00  0.00    +0.000 A 
ATOM     19  C   UNL     1       0.855   9.893  21.069  0.00  0.00    +0.000 A 
ATOM     20  C   UNL     1       0.812  11.162  20.497  0.00  0.00    +0.000 A 
ATOM     21  C   UNL     1       1.162  11.332  19.162  0.00  0.00    +0.000 A 
ATOM     22  C   UNL     1       1.572  10.232  18.409  0.00  0.00    +0.000 A 
ATOM     23  C   UNL     1       1.657   8.947  18.975  0.00  0.00    +0.000 A 
ENDBRANCH  13  23
ENDBRANCH   1  15
TORSDOF 3
ENDMDL
MODEL 7
REMARK VINA RESULT:      -7.0      1.418      5.553
REMARK  Name = 
REMARK  4 active torsions:
REMARK  status: ('A' for Active; 'I' for Inactive)
REMARK    1  A    between atoms: C_1  and  C_2
REMARK    2  A    between atoms: C_7  and  C_8
REMARK    3  A    between atoms: N_10  and  C_11
REMARK    4  A    between atoms: C_16  and  N_17
REMARK                            x       y       z     vdW  Elec       q    Type
REMARK                         _______ _______ _______ _____ _____    ______ ____
ROOT
ATOM      1  C   UNL     1       3.885   5.514  17.293  0.00  0.00    +0.000 A 
ATOM      2  C   UNL     1       4.797   6.025  16.352  0.00  0.00    +0.000 A 
ATOM      3  C   UNL     1       5.608   5.174  15.610  0.00  0.00    +0.000 A 
ATOM      4  C   UNL     1       5.545   3.807  15.836  0.00  0.00    +0.000 A 
ATOM      5  C   UNL     1       4.648   3.296  16.779  0.00  0.00    +0.000 A 
ATOM      6  C   UNL     1       3.765   4.116  17.511  0.00  0.00    +0.000 A 
ENDROOT
BRANCH   6   7
ATOM      7  N   UNL     1       2.903   3.518  18.428  0.00  0.00    +0.000 N 
ATOM      8  C   UNL     1       1.448   3.534  18.296  0.00  0.00    +0.000 C 
ATOM      9  C   UNL     1       0.791   3.899  19.626  0.00  0.00    +0.000 C 
ATOM     10  C   UNL     1       1.294   3.020  20.767  0.00  0.00    +0.000 C 
ATOM     11  C   UNL     1       2.819   3.045  20.837  0.00  0.00    +0.000 C 
ATOM     12  C   UNL     1       3.446   2.668  19.494  0.00  0.00    +0.000 C 
ENDBRANCH   6   7
BRANCH   1  15
ATOM     13  C   UNL     1       3.048   6.736  19.274  0.00  0.00    +0.000 C 
ATOM     14  O   UNL     1       3.886   6.285  20.049  0.00  0.00    +0.000 OA
ATOM     15  N   UNL     1       2.997   6.419  17.921  0.00  0.00    +0.000 N 
ATOM     16  H   UNL     1       2.184   6.640  17.370  0.00  0.00    +0.000 HD
BRANCH  13  23
ATOM     17  C   UNL     1       2.215   9.234  17.791  0.00  0.00    +0.000 C 
ATOM     18  C   UNL     1       1.575   8.807  19.086  0.00  0.00    +0.000 A 
ATOM     19  C   UNL     1       0.556   9.620  19.612  0.00  0.00    +0.000 A 
ATOM     20  C   UNL     1      -0.075   9.300  20.812  0.00  0.00    +0.000 A 
ATOM     21  C   UNL     1       0.321   8.173  21.523  0.00  0.00    +0.000 A 
ATOM     22  C   UNL     1       1.335   7.359  21.021  0.00  0.00    +0.000 A 
ATOM     23  C   UNL     1       1.964   7.643  19.795  0.00  0.00    +0.000 A 
ENDBRANCH  13  23
ENDBRANCH   1  15
TORSDOF 3
ENDMDL
MODEL 8
REMARK VINA RESULT:      -7.0      1.543      5.590
REMARK  Name = 
REMARK  4 active torsions:
REMARK  status: ('A' for Active; 'I' for Inactive)
REMARK    1  A    between atoms: C_1  and  C_2
REMARK    2  A    between atoms: C_7  and  C_8
REMARK    3  A    between atoms: N_10  and  C_11
REMARK    4  A    between atoms: C_16  and  N_17
REMARK                            x       y       z     vdW  Elec       q    Type
REMARK                         _______ _______ _______ _____ _____    ______ ____
ROOT
ATOM      1  C   UNL     1       4.955   5.728  18.047  0.00  0.00    +0.000 A 
ATOM      2  C   UNL     1       6.042   6.498  17.596  0.00  0.00    +0.000 A 
ATOM      3  C   UNL     1       6.977   5.965  16.716  0.00  0.00    +0.000 A 
ATOM      4  C   UNL     1       6.857   4.642  16.317  0.00  0.00    +0.000 A 
ATOM      5  C   UNL     1       5.784   3.870  16.773  0.00  0.00    +0.000 A 
ATOM      6  C   UNL     1       4.780   4.387  17.617  0.00  0.00    +0.000 A 
ENDROOT
BRANCH   6   7
ATOM      7  N   UNL     1       3.746   3.543  18.018  0.00  0.00    +0.000 N 
ATOM      8  C   UNL     1       2.473   3.436  17.311  0.00  0.00    +0.000 C 
ATOM      9  C   UNL     1       1.305   3.477  18.295  0.00  0.00    +0.000 C 
ATOM     10  C   UNL     1       1.472   2.457  19.416  0.00  0.00    +0.000 C 
ATOM     11  C   UNL     1       2.826   2.623  20.102  0.00  0.00    +0.000 C 
ATOM     12  C   UNL     1       3.973   2.569  19.092  0.00  0.00    +0.000 C 
ENDBRANCH   6   7
BRANCH   1  15
ATOM     13  C   UNL     1       2.974   7.186  18.311  0.00  0.00    +0.000 C 
ATOM     14  O   UNL     1       2.838   7.413  17.113  0.00  0.00    +0.000 OA
ATOM     15  N   UNL     1       3.968   6.366  18.835  0.00  0.00    +0.000 N 
ATOM     16  H   UNL     1       4.173   6.370  19.820  0.00  0.00    +0.000 HD
BRANCH  13  23
ATOM     17  C   UNL     1       1.856   9.951  17.822  0.00  0.00    +0.000 C 
ATOM     18  C   UNL     1       1.540   9.155  19.060  0.00  0.00    +0.000 A 
ATOM     19  C   UNL     1       0.695   9.742  20.019  0.00  0.00    +0.000 A 
ATOM     20  C   UNL     1       0.367   9.075  21.197  0.00  0.00    +0.000 A 
ATOM     21  C   UNL     1       0.900   7.817  21.451  0.00  0.00    +0.000 A 
ATOM     22  C   UNL     1       1.747   7.222  20.517  0.00  0.00    +0.000 A 
ATOM     23  C   UNL     1       2.066   7.862  19.305  0.00  0.00    +0.000 A 
ENDBRANCH  13  23
ENDBRANCH   1  15
TORSDOF 3
ENDMDL
MODEL 9
REMARK VINA RESULT:      -7.0      1.713      5.796
REMARK  Name = 
REMARK  4 active torsions:
REMARK  status: ('A' for Active; 'I' for Inactive)
REMARK    1  A    between atoms: C_1  and  C_2
REMARK    2  A    between atoms: C_7  and  C_8
REMARK    3  A    between atoms: N_10  and  C_11
REMARK    4  A    between atoms: C_16  and  N_17
REMARK                            x       y       z     vdW  Elec       q    Type
REMARK                         _______ _______ _______ _____ _____    ______ ____
ROOT
ATOM      1  C   UNL     1       3.830   5.944  17.729  0.00  0.00    +0.000 A 
ATOM      2  C   UNL     1       4.656   6.657  16.841  0.00  0.00    +0.000 A 
ATOM      3  C   UNL     1       5.384   5.996  15.858  0.00  0.00    +0.000 A 
ATOM      4  C   UNL     1       5.326   4.612  15.785  0.00  0.00    +0.000 A 
ATOM      5  C   UNL     1       4.515   3.899  16.674  0.00  0.00    +0.000 A 
ATOM      6  C   UNL     1       3.715   4.532  17.647  0.00  0.00    +0.000 A 
ENDROOT
BRANCH   6   7
ATOM      7  N   UNL     1       2.936   3.740  18.488  0.00  0.00    +0.000 N 
ATOM      8  C   UNL     1       1.513   3.491  18.270  0.00  0.00    +0.000 C 
ATOM      9  C   UNL     1       0.731   3.662  19.572  0.00  0.00    +0.000 C 
ATOM     10  C   UNL     1       1.332   2.839  20.707  0.00  0.00    +0.000 C 
ATOM     11  C   UNL     1       2.819   3.144  20.868  0.00  0.00    +0.000 C 
ATOM     12  C   UNL     1       3.574   2.956  19.552  0.00  0.00    +0.000 C 
ENDBRANCH   6   7
BRANCH   1  15
ATOM     13  C   UNL     1       2.381   7.872  18.279  0.00  0.00    +0.000 C 
ATOM     14  O   UNL     1       2.440   8.381  17.165  0.00  0.00    +0.000 OA
ATOM     15  N   UNL     1       3.016   6.682  18.620  0.00  0.00    +0.000 N 
ATOM     16  H   UNL     1       3.115   6.409  19.584  0.00  0.00    +0.000 HD
BRANCH  13  23
ATOM     17  C   UNL     1       1.847   6.543  20.940  0.00  0.00    +0.000 C 
ATOM     18  C   UNL     1       1.397   7.946  20.629  0.00  0.00    +0.000 A 
ATOM     19  C   UNL     1       0.695   8.645  21.626  0.00  0.00    +0.000 A 
ATOM     20  C   UNL     1       0.234   9.941  21.410  0.00  0.00    +0.000 A 
ATOM     21  C   UNL     1       0.442  10.553  20.179  0.00  0.00    +0.000 A 
ATOM     22  C   UNL     1       1.128   9.872  19.175  0.00  0.00    +0.000 A 
ATOM     23  C   UNL     1       1.633   8.575  19.381  0.00  0.00    +0.000 A 
ENDBRANCH  13  23
ENDBRANCH   1  15
TORSDOF 3
ENDMDL
