MODEL 1
REMARK VINA RESULT:      -8.4      0.000      0.000
REMARK  Name = 
REMARK  7 active torsions:
REMARK  status: ('A' for Active; 'I' for Inactive)
REMARK    1  A    between atoms: C_1  and  C_2
REMARK    2  A    between atoms: C_3  and  C_4
REMARK    3  A    between atoms: C_6  and  C_7
REMARK    4  A    between atoms: N_9  and  N_10
REMARK    5  A    between atoms: C_11  and  C_13
REMARK    6  A    between atoms: C_20  and  C_21
REMARK    7  A    between atoms: C_21  and  O_23
REMARK                            x       y       z     vdW  Elec       q    Type
REMARK                         _______ _______ _______ _____ _____    ______ ____
ROOT
ATOM      1  C   UNL     1       2.215   5.423  19.739  0.00  0.00    +0.000 C 
ATOM      2  O   UNL     1       1.264   4.986  20.386  0.00  0.00    +0.000 OA
ATOM      3  N   UNL     1       2.576   6.756  19.804  0.00  0.00    +0.000 N 
ATOM      4  H   UNL     1       3.196   7.218  19.137  0.00  0.00    +0.000 HD
ENDROOT
BRANCH   1  10
ATOM      5  C   UNL     1       7.380   5.534  17.841  0.00  0.00    +0.000 C 
ATOM      6  C   UNL     1       5.914   5.239  18.064  0.00  0.00    +0.000 C 
ATOM      7  C   UNL     1       4.908   5.676  17.285  0.00  0.00    +0.000 C 
ATOM      8  C   UNL     1       5.076   6.528  16.047  0.00  0.00    +0.000 C 
ATOM      9  C   UNL     1       3.460   5.359  17.565  0.00  0.00    +0.000 C 
ATOM     10  C   UNL     1       3.090   4.561  18.826  0.00  0.00    +0.000 C 
ATOM     11  C   UNL     1       4.257   3.943  19.620  0.00  0.00    +0.000 C 
ATOM     12  C   UNL     1       5.683   4.390  19.286  0.00  0.00    +0.000 C 
BRANCH  11  13
ATOM     13  C   UNL     1       4.177   2.432  19.515  0.00  0.00    +0.000 C 
ATOM     14  O   UNL     1       3.268   1.828  18.968  0.00  0.00    +0.000 OA
BRANCH  13  15
ATOM     15  O   UNL     1       5.214   1.785  20.097  0.00  0.00    +0.000 OA
ATOM     16  H   UNL     1       6.088   2.213  19.995  0.00  0.00    +0.000 HD
ENDBRANCH  13  15
ENDBRANCH  11  13
ENDBRANCH   1  10
BRANCH   3  17
ATOM     17  N   UNL     1       1.851   7.582  20.667  0.00  0.00    +0.000 N 
ATOM     18  C   UNL     1       1.259   8.723  20.164  0.00  0.00    +0.000 C 
ATOM     19  O   UNL     1       1.373   9.073  18.993  0.00  0.00    +0.000 OA
ATOM     20  H   UNL     1       1.563   7.154  21.546  0.00  0.00    +0.000 HD
BRANCH  18  21
ATOM     21  C   UNL     1       0.442   9.512  21.128  0.00  0.00    +0.000 A 
ATOM     22  C   UNL     1       0.290   9.113  22.464  0.00  0.00    +0.000 A 
ATOM     23  C   UNL     1      -0.464   9.889  23.349  0.00  0.00    +0.000 A 
ATOM     24  C   UNL     1      -1.065  11.064  22.902  0.00  0.00    +0.000 A 
ATOM     25  C   UNL     1      -0.903  11.464  21.577  0.00  0.00    +0.000 A 
ATOM     26 CL   UNL     1      -1.645  12.921  21.034  0.00  0.00    +0.000 Cl
ATOM     27  C   UNL     1      -0.150  10.700  20.689  0.00  0.00    +0.000 A 
ENDBRANCH  18  21
ENDBRANCH   3  17
TORSDOF 5
ENDMDL
MODEL 2
REMARK VINA RESULT:      -8.2      5.605      7.478
REMARK  Name = 
REMARK  7 active torsions:
REMARK  status: ('A' for Active; 'I' for Inactive)
REMARK    1  A    between atoms: C_1  and  C_2
REMARK    2  A    between atoms: C_3  and  C_4
REMARK    3  A    between atoms: C_6  and  C_7
REMARK    4  A    between atoms: N_9  and  N_10
REMARK    5  A    between atoms: C_11  and  C_13
REMARK    6  A    between atoms: C_20  and  C_21
REMARK    7  A    between atoms: C_21  and  O_23
REMARK                            x       y       z     vdW  Elec       q    Type
REMARK                         _______ _______ _______ _____ _____    ______ ____
ROOT
ATOM      1  C   UNL     1       7.465   5.864  18.986  0.00  0.00    +0.000 C 
ATOM      2  O   UNL     1       7.893   5.775  20.137  0.00  0.00    +0.000 OA
ATOM      3  N   UNL     1       7.731   6.973  18.206  0.00  0.00    +0.000 N 
ATOM      4  H   UNL     1       7.232   7.207  17.347  0.00  0.00    +0.000 HD
ENDROOT
BRANCH   1  10
ATOM      5  C   UNL     1       2.170   5.096  17.696  0.00  0.00    +0.000 C 
ATOM      6  C   UNL     1       3.644   4.912  17.981  0.00  0.00    +0.000 C 
ATOM      7  C   UNL     1       4.153   4.327  19.080  0.00  0.00    +0.000 C 
ATOM      8  C   UNL     1       3.336   3.746  20.213  0.00  0.00    +0.000 C 
ATOM      9  C   UNL     1       5.637   4.183  19.316  0.00  0.00    +0.000 C 
ATOM     10  C   UNL     1       6.626   4.781  18.304  0.00  0.00    +0.000 C 
ATOM     11  C   UNL     1       6.030   5.310  16.984  0.00  0.00    +0.000 C 
ATOM     12  C   UNL     1       4.510   5.472  16.885  0.00  0.00    +0.000 C 
BRANCH  11  13
ATOM     13  C   UNL     1       6.508   4.432  15.843  0.00  0.00    +0.000 C 
ATOM     14  O   UNL     1       7.361   4.759  15.034  0.00  0.00    +0.000 OA
BRANCH  13  15
ATOM     15  O   UNL     1       5.893   3.227  15.783  0.00  0.00    +0.000 OA
ATOM     16  H   UNL     1       5.185   3.148  15.111  0.00  0.00    +0.000 HD
ENDBRANCH  13  15
ENDBRANCH  11  13
ENDBRANCH   1  10
BRANCH   3  17
ATOM     17  N   UNL     1       8.543   7.971  18.753  0.00  0.00    +0.000 N 
ATOM     18  C   UNL     1       8.413   9.267  18.298  0.00  0.00    +0.000 C 
ATOM     19  O   UNL     1       7.640   9.584  17.398  0.00  0.00    +0.000 OA
ATOM     20  H   UNL     1       8.978   7.742  19.646  0.00  0.00    +0.000 HD
BRANCH  18  21
ATOM     21  C   UNL     1       9.259  10.286  18.981  0.00  0.00    +0.000 A 
ATOM     22  C   UNL     1       9.159  10.521  20.360  0.00  0.00    +0.000 A 
ATOM     23  C   UNL     1       9.985  11.468  20.973  0.00  0.00    +0.000 A 
ATOM     24  C   UNL     1      10.911  12.179  20.212  0.00  0.00    +0.000 A 
ATOM     25  C   UNL     1      11.015  11.936  18.844  0.00  0.00    +0.000 A 
ATOM     26 CL   UNL     1      12.165  12.815  17.911  0.00  0.00    +0.000 Cl
ATOM     27  C   UNL     1      10.199  10.991  18.224  0.00  0.00    +0.000 A 
ENDBRANCH  18  21
ENDBRANCH   3  17
TORSDOF 5
ENDMDL
MODEL 3
REMARK VINA RESULT:      -8.1      5.315      7.301
REMARK  Name = 
REMARK  7 active torsions:
REMARK  status: ('A' for Active; 'I' for Inactive)
REMARK    1  A    between atoms: C_1  and  C_2
REMARK    2  A    between atoms: C_3  and  C_4
REMARK    3  A    between atoms: C_6  and  C_7
REMARK    4  A    between atoms: N_9  and  N_10
REMARK    5  A    between atoms: C_11  and  C_13
REMARK    6  A    between atoms: C_20  and  C_21
REMARK    7  A    between atoms: C_21  and  O_23
REMARK                            x       y       z     vdW  Elec       q    Type
REMARK                         _______ _______ _______ _____ _____    ______ ____
ROOT
ATOM      1  C   UNL     1       7.478   5.892  18.937  0.00  0.00    +0.000 C 
ATOM      2  O   UNL     1       7.870   5.742  20.094  0.00  0.00    +0.000 OA
ATOM      3  N   UNL     1       7.780   7.033  18.219  0.00  0.00    +0.000 N 
ATOM      4  H   UNL     1       7.309   7.314  17.358  0.00  0.00    +0.000 HD
ENDROOT
BRANCH   1  10
ATOM      5  C   UNL     1       2.166   5.091  17.739  0.00  0.00    +0.000 C 
ATOM      6  C   UNL     1       3.653   4.926  17.961  0.00  0.00    +0.000 C 
ATOM      7  C   UNL     1       4.214   4.255  18.983  0.00  0.00    +0.000 C 
ATOM      8  C   UNL     1       3.450   3.544  20.078  0.00  0.00    +0.000 C 
ATOM      9  C   UNL     1       5.707   4.133  19.159  0.00  0.00    +0.000 C 
ATOM     10  C   UNL     1       6.646   4.854  18.179  0.00  0.00    +0.000 C 
ATOM     11  C   UNL     1       5.993   5.488  16.936  0.00  0.00    +0.000 C 
ATOM     12  C   UNL     1       4.468   5.613  16.898  0.00  0.00    +0.000 C 
BRANCH  11  13
ATOM     13  C   UNL     1       6.457   4.736  15.702  0.00  0.00    +0.000 C 
ATOM     14  O   UNL     1       5.981   3.679  15.322  0.00  0.00    +0.000 OA
BRANCH  13  15
ATOM     15  O   UNL     1       7.473   5.340  15.041  0.00  0.00    +0.000 OA
ATOM     16  H   UNL     1       7.909   6.074  15.520  0.00  0.00    +0.000 HD
ENDBRANCH  13  15
ENDBRANCH  11  13
ENDBRANCH   1  10
BRANCH   3  17
ATOM     17  N   UNL     1       8.588   7.993  18.837  0.00  0.00    +0.000 N 
ATOM     18  C   UNL     1       8.526   9.301  18.403  0.00  0.00    +0.000 C 
ATOM     19  O   UNL     1       7.820   9.662  17.466  0.00  0.00    +0.000 OA
ATOM     20  H   UNL     1       8.960   7.732  19.750  0.00  0.00    +0.000 HD
BRANCH  18  21
ATOM     21  C   UNL     1       9.360  10.278  19.159  0.00  0.00    +0.000 A 
ATOM     22  C   UNL     1      10.562  10.779  18.638  0.00  0.00    +0.000 A 
ATOM     23  C   UNL     1      11.308  11.712  19.362  0.00  0.00    +0.000 A 
ATOM     24  C   UNL     1      10.856  12.147  20.607  0.00  0.00    +0.000 A 
ATOM     25  C   UNL     1       9.656  11.656  21.118  0.00  0.00    +0.000 A 
ATOM     26 CL   UNL     1       9.102  12.202  22.654  0.00  0.00    +0.000 Cl
ATOM     27  C   UNL     1       8.903  10.729  20.401  0.00  0.00    +0.000 A 
ENDBRANCH  18  21
ENDBRANCH   3  17
TORSDOF 5
ENDMDL
MODEL 4
REMARK VINA RESULT:      -8.0      2.179      3.726
REMARK  Name = 
REMARK  7 active torsions:
REMARK  status: ('A' for Active; 'I' for Inactive)
REMARK    1  A    between atoms: C_1  and  C_2
REMARK    2  A    between atoms: C_3  and  C_4
REMARK    3  A    between atoms: C_6  and  C_7
REMARK    4  A    between atoms: N_9  and  N_10
REMARK    5  A    between atoms: C_11  and  C_13
REMARK    6  A    between atoms: C_20  and  C_21
REMARK    7  A    between atoms: C_21  and  O_23
REMARK                            x       y       z     vdW  Elec       q    Type
REMARK                         _______ _______ _______ _____ _____    ______ ____
ROOT
ATOM      1  C   UNL     1       2.102   7.426  19.638  0.00  0.00    +0.000 C 
ATOM      2  O   UNL     1       2.012   8.229  18.710  0.00  0.00    +0.000 OA
ATOM      3  N   UNL     1       1.460   7.646  20.842  0.00  0.00    +0.000 N 
ATOM      4  H   UNL     1       1.671   7.147  21.707  0.00  0.00    +0.000 HD
ENDROOT
BRANCH   1  10
ATOM      5  C   UNL     1       1.060   2.123  18.593  0.00  0.00    +0.000 C 
ATOM      6  C   UNL     1       1.688   3.429  19.026  0.00  0.00    +0.000 C 
ATOM      7  C   UNL     1       1.809   3.846  20.300  0.00  0.00    +0.000 C 
ATOM      8  C   UNL     1       1.344   3.073  21.514  0.00  0.00    +0.000 C 
ATOM      9  C   UNL     1       2.435   5.168  20.672  0.00  0.00    +0.000 C 
ATOM     10  C   UNL     1       2.901   6.122  19.561  0.00  0.00    +0.000 C 
ATOM     11  C   UNL     1       2.895   5.568  18.124  0.00  0.00    +0.000 C 
ATOM     12  C   UNL     1       2.172   4.244  17.857  0.00  0.00    +0.000 C 
BRANCH  11  13
ATOM     13  C   UNL     1       4.327   5.455  17.635  0.00  0.00    +0.000 C 
ATOM     14  O   UNL     1       4.642   5.230  16.477  0.00  0.00    +0.000 OA
BRANCH  13  15
ATOM     15  O   UNL     1       5.253   5.618  18.608  0.00  0.00    +0.000 OA
ATOM     16  H   UNL     1       5.311   6.517  18.990  0.00  0.00    +0.000 HD
ENDBRANCH  13  15
ENDBRANCH  11  13
ENDBRANCH   1  10
BRANCH   3  17
ATOM     17  N   UNL     1       0.666   8.791  20.953  0.00  0.00    +0.000 N 
ATOM     18  C   UNL     1       0.855   9.637  22.027  0.00  0.00    +0.000 C 
ATOM     19  O   UNL     1       1.666   9.411  22.920  0.00  0.00    +0.000 OA
ATOM     20  H   UNL     1       0.195   9.084  20.097  0.00  0.00    +0.000 HD
BRANCH  18  21
ATOM     21  C   UNL     1       0.023  10.873  22.037  0.00  0.00    +0.000 A 
ATOM     22  C   UNL     1       0.328  11.973  21.220  0.00  0.00    +0.000 A 
ATOM     23  C   UNL     1      -0.486  13.108  21.236  0.00  0.00    +0.000 A 
ATOM     24  C   UNL     1      -1.606  13.147  22.065  0.00  0.00    +0.000 A 
ATOM     25  C   UNL     1      -1.912  12.050  22.868  0.00  0.00    +0.000 A 
ATOM     26 CL   UNL     1      -3.300  12.105  23.886  0.00  0.00    +0.000 Cl
ATOM     27  C   UNL     1      -1.109  10.912  22.855  0.00  0.00    +0.000 A 
ENDBRANCH  18  21
ENDBRANCH   3  17
TORSDOF 5
ENDMDL
MODEL 5
REMARK VINA RESULT:      -8.0      2.098      3.694
REMARK  Name = 
REMARK  7 active torsions:
REMARK  status: ('A' for Active; 'I' for Inactive)
REMARK    1  A    between atoms: C_1  and  C_2
REMARK    2  A    between atoms: C_3  and  C_4
REMARK    3  A    between atoms: C_6  and  C_7
REMARK    4  A    between atoms: N_9  and  N_10
REMARK    5  A    between atoms: C_11  and  C_13
REMARK    6  A    between atoms: C_20  and  C_21
REMARK    7  A    between atoms: C_21  and  O_23
REMARK                            x       y       z     vdW  Elec       q    Type
REMARK                         _______ _______ _______ _____ _____    ______ ____
ROOT
ATOM      1  C   UNL     1       1.952   7.459  19.825  0.00  0.00    +0.000 C 
ATOM      2  O   UNL     1       1.925   8.394  19.026  0.00  0.00    +0.000 OA
ATOM      3  N   UNL     1       1.215   7.492  20.994  0.00  0.00    +0.000 N 
ATOM      4  H   UNL     1       1.365   6.867  21.787  0.00  0.00    +0.000 HD
ENDROOT
BRANCH   1  10
ATOM      5  C   UNL     1       0.946   2.177  18.649  0.00  0.00    +0.000 C 
ATOM      6  C   UNL     1       1.580   3.481  19.078  0.00  0.00    +0.000 C 
ATOM      7  C   UNL     1       1.813   3.848  20.352  0.00  0.00    +0.000 C 
ATOM      8  C   UNL     1       1.487   3.011  21.569  0.00  0.00    +0.000 C 
ATOM      9  C   UNL     1       2.439   5.170  20.721  0.00  0.00    +0.000 C 
ATOM     10  C   UNL     1       2.773   6.184  19.615  0.00  0.00    +0.000 C 
ATOM     11  C   UNL     1       2.642   5.690  18.161  0.00  0.00    +0.000 C 
ATOM     12  C   UNL     1       1.929   4.358  17.906  0.00  0.00    +0.000 C 
BRANCH  11  13
ATOM     13  C   UNL     1       4.022   5.639  17.534  0.00  0.00    +0.000 C 
ATOM     14  O   UNL     1       4.669   4.616  17.377  0.00  0.00    +0.000 OA
BRANCH  13  15
ATOM     15  O   UNL     1       4.499   6.849  17.159  0.00  0.00    +0.000 OA
ATOM     16  H   UNL     1       5.474   6.936  17.158  0.00  0.00    +0.000 HD
ENDBRANCH  13  15
ENDBRANCH  11  13
ENDBRANCH   1  10
BRANCH   3  17
ATOM     17  N   UNL     1       0.400   8.606  21.214  0.00  0.00    +0.000 N 
ATOM     18  C   UNL     1       0.799   9.558  22.130  0.00  0.00    +0.000 C 
ATOM     19  O   UNL     1       1.824   9.455  22.797  0.00  0.00    +0.000 OA
ATOM     20  H   UNL     1      -0.292   8.794  20.490  0.00  0.00    +0.000 HD
BRANCH  18  21
ATOM     21  C   UNL     1      -0.085  10.751  22.256  0.00  0.00    +0.000 A 
ATOM     22  C   UNL     1      -1.194  10.759  23.115  0.00  0.00    +0.000 A 
ATOM     23  C   UNL     1      -1.989  11.902  23.228  0.00  0.00    +0.000 A 
ATOM     24  C   UNL     1      -1.678  13.040  22.484  0.00  0.00    +0.000 A 
ATOM     25  C   UNL     1      -0.570  13.033  21.639  0.00  0.00    +0.000 A 
ATOM     26 CL   UNL     1      -0.190  14.444  20.727  0.00  0.00    +0.000 Cl
ATOM     27  C   UNL     1       0.231  11.899  21.524  0.00  0.00    +0.000 A 
ENDBRANCH  18  21
ENDBRANCH   3  17
TORSDOF 5
ENDMDL
MODEL 6
REMARK VINA RESULT:      -7.8      1.235      1.746
REMARK  Name = 
REMARK  7 active torsions:
REMARK  status: ('A' for Active; 'I' for Inactive)
REMARK    1  A    between atoms: C_1  and  C_2
REMARK    2  A    between atoms: C_3  and  C_4
REMARK    3  A    between atoms: C_6  and  C_7
REMARK    4  A    between atoms: N_9  and  N_10
REMARK    5  A    between atoms: C_11  and  C_13
REMARK    6  A    between atoms: C_20  and  C_21
REMARK    7  A    between atoms: C_21  and  O_23
REMARK                            x       y       z     vdW  Elec       q    Type
REMARK                         _______ _______ _______ _____ _____    ______ ____
ROOT
ATOM      1  C   UNL     1       2.468   5.801  19.363  0.00  0.00    +0.000 C 
ATOM      2  O   UNL     1       1.914   5.649  20.452  0.00  0.00    +0.000 OA
ATOM      3  N   UNL     1       2.492   7.031  18.735  0.00  0.00    +0.000 N 
ATOM      4  H   UNL     1       2.730   7.172  17.752  0.00  0.00    +0.000 HD
ENDROOT
BRANCH   1  10
ATOM      5  C   UNL     1       7.561   4.797  17.534  0.00  0.00    +0.000 C 
ATOM      6  C   UNL     1       6.070   4.775  17.784  0.00  0.00    +0.000 C 
ATOM      7  C   UNL     1       5.134   5.233  16.933  0.00  0.00    +0.000 C 
ATOM      8  C   UNL     1       5.417   5.840  15.577  0.00  0.00    +0.000 C 
ATOM      9  C   UNL     1       3.658   5.196  17.243  0.00  0.00    +0.000 C 
ATOM     10  C   UNL     1       3.185   4.678  18.610  0.00  0.00    +0.000 C 
ATOM     11  C   UNL     1       4.251   4.019  19.507  0.00  0.00    +0.000 C 
ATOM     12  C   UNL     1       5.725   4.179  19.123  0.00  0.00    +0.000 C 
BRANCH  11  13
ATOM     13  C   UNL     1       3.934   2.542  19.643  0.00  0.00    +0.000 C 
ATOM     14  O   UNL     1       2.815   2.066  19.532  0.00  0.00    +0.000 OA
BRANCH  13  15
ATOM     15  O   UNL     1       5.013   1.772  19.914  0.00  0.00    +0.000 OA
ATOM     16  H   UNL     1       5.538   1.493  19.136  0.00  0.00    +0.000 HD
ENDBRANCH  13  15
ENDBRANCH  11  13
ENDBRANCH   1  10
BRANCH   3  17
ATOM     17  N   UNL     1       1.904   8.110  19.402  0.00  0.00    +0.000 N 
ATOM     18  C   UNL     1       1.542   9.229  18.679  0.00  0.00    +0.000 C 
ATOM     19  O   UNL     1       1.748   9.341  17.474  0.00  0.00    +0.000 OA
ATOM     20  H   UNL     1       1.520   7.901  20.322  0.00  0.00    +0.000 HD
BRANCH  18  21
ATOM     21  C   UNL     1       0.855  10.306  19.446  0.00  0.00    +0.000 A 
ATOM     22  C   UNL     1       0.655  11.584  18.903  0.00  0.00    +0.000 A 
ATOM     23  C   UNL     1      -0.014  12.565  19.640  0.00  0.00    +0.000 A 
ATOM     24  C   UNL     1      -0.486  12.271  20.918  0.00  0.00    +0.000 A 
ATOM     25  C   UNL     1      -0.294  10.998  21.452  0.00  0.00    +0.000 A 
ATOM     26 CL   UNL     1      -0.884  10.642  23.031  0.00  0.00    +0.000 Cl
ATOM     27  C   UNL     1       0.367  10.012  20.723  0.00  0.00    +0.000 A 
ENDBRANCH  18  21
ENDBRANCH   3  17
TORSDOF 5
ENDMDL
MODEL 7
REMARK VINA RESULT:      -7.7      2.073      3.651
REMARK  Name = 
REMARK  7 active torsions:
REMARK  status: ('A' for Active; 'I' for Inactive)
REMARK    1  A    between atoms: C_1  and  C_2
REMARK    2  A    between atoms: C_3  and  C_4
REMARK    3  A    between atoms: C_6  and  C_7
REMARK    4  A    between atoms: N_9  and  N_10
REMARK    5  A    between atoms: C_11  and  C_13
REMARK    6  A    between atoms: C_20  and  C_21
REMARK    7  A    between atoms: C_21  and  O_23
REMARK                            x       y       z     vdW  Elec       q    Type
REMARK                         _______ _______ _______ _____ _____    ______ ____
ROOT
ATOM      1  C   UNL     1       2.466   7.310  18.922  0.00  0.00    +0.000 C 
ATOM      2  O   UNL     1       2.406   7.967  17.883  0.00  0.00    +0.000 OA
ATOM      3  N   UNL     1       1.910   7.774  20.099  0.00  0.00    +0.000 N 
ATOM      4  H   UNL     1       2.116   7.394  21.023  0.00  0.00    +0.000 HD
ENDROOT
BRANCH   1  10
ATOM      5  C   UNL     1       0.892   2.042  18.674  0.00  0.00    +0.000 C 
ATOM      6  C   UNL     1       1.654   3.327  18.903  0.00  0.00    +0.000 C 
ATOM      7  C   UNL     1       1.853   3.908  20.100  0.00  0.00    +0.000 C 
ATOM      8  C   UNL     1       1.354   3.366  21.421  0.00  0.00    +0.000 C 
ATOM      9  C   UNL     1       2.614   5.201  20.266  0.00  0.00    +0.000 C 
ATOM     10  C   UNL     1       3.135   5.937  19.022  0.00  0.00    +0.000 C 
ATOM     11  C   UNL     1       3.032   5.186  17.680  0.00  0.00    +0.000 C 
ATOM     12  C   UNL     1       2.179   3.916  17.620  0.00  0.00    +0.000 C 
BRANCH  11  13
ATOM     13  C   UNL     1       4.431   4.864  17.190  0.00  0.00    +0.000 C 
ATOM     14  O   UNL     1       5.077   5.576  16.437  0.00  0.00    +0.000 OA
BRANCH  13  15
ATOM     15  O   UNL     1       4.919   3.690  17.655  0.00  0.00    +0.000 OA
ATOM     16  H   UNL     1       5.815   3.732  18.047  0.00  0.00    +0.000 HD
ENDBRANCH  13  15
ENDBRANCH  11  13
ENDBRANCH   1  10
BRANCH   3  17
ATOM     17  N   UNL     1       1.233   8.997  20.057  0.00  0.00    +0.000 N 
ATOM     18  C   UNL     1       0.133   9.183  20.869  0.00  0.00    +0.000 C 
ATOM     19  O   UNL     1      -0.310   8.306  21.605  0.00  0.00    +0.000 OA
ATOM     20  H   UNL     1       1.752   9.772  19.646  0.00  0.00    +0.000 HD
BRANCH  18  21
ATOM     21  C   UNL     1      -0.490  10.536  20.823  0.00  0.00    +0.000 A 
ATOM     22  C   UNL     1      -1.038  11.054  19.640  0.00  0.00    +0.000 A 
ATOM     23  C   UNL     1      -1.636  12.317  19.637  0.00  0.00    +0.000 A 
ATOM     24  C   UNL     1      -1.688  13.064  20.812  0.00  0.00    +0.000 A 
ATOM     25  C   UNL     1      -1.151  12.543  21.988  0.00  0.00    +0.000 A 
ATOM     26 CL   UNL     1      -1.224  13.470  23.438  0.00  0.00    +0.000 Cl
ATOM     27  C   UNL     1      -0.557  11.283  22.003  0.00  0.00    +0.000 A 
ENDBRANCH  18  21
ENDBRANCH   3  17
TORSDOF 5
ENDMDL
MODEL 8
REMARK VINA RESULT:      -7.6      2.485      2.592
REMARK  Name = 
REMARK  7 active torsions:
REMARK  status: ('A' for Active; 'I' for Inactive)
REMARK    1  A    between atoms: C_1  and  C_2
REMARK    2  A    between atoms: C_3  and  C_4
REMARK    3  A    between atoms: C_6  and  C_7
REMARK    4  A    between atoms: N_9  and  N_10
REMARK    5  A    between atoms: C_11  and  C_13
REMARK    6  A    between atoms: C_20  and  C_21
REMARK    7  A    between atoms: C_21  and  O_23
REMARK                            x       y       z     vdW  Elec       q    Type
REMARK                         _______ _______ _______ _____ _____    ______ ____
ROOT
ATOM      1  C   UNL     1       2.367   5.300  18.176  0.00  0.00    +0.000 C 
ATOM      2  O   UNL     1       1.208   5.258  17.765  0.00  0.00    +0.000 OA
ATOM      3  N   UNL     1       2.876   6.438  18.772  0.00  0.00    +0.000 N 
ATOM      4  H   UNL     1       3.870   6.613  18.926  0.00  0.00    +0.000 HD
ENDROOT
BRANCH   1  10
ATOM      5  C   UNL     1       7.800   4.621  17.610  0.00  0.00    +0.000 C 
ATOM      6  C   UNL     1       6.302   4.420  17.661  0.00  0.00    +0.000 C 
ATOM      7  C   UNL     1       5.499   4.297  16.588  0.00  0.00    +0.000 C 
ATOM      8  C   UNL     1       5.963   4.329  15.149  0.00  0.00    +0.000 C 
ATOM      9  C   UNL     1       4.006   4.110  16.701  0.00  0.00    +0.000 C 
ATOM     10  C   UNL     1       3.344   4.125  18.088  0.00  0.00    +0.000 C 
ATOM     11  C   UNL     1       4.289   4.115  19.305  0.00  0.00    +0.000 C 
ATOM     12  C   UNL     1       5.779   4.379  19.073  0.00  0.00    +0.000 C 
BRANCH  11  13
ATOM     13  C   UNL     1       4.130   2.797  20.039  0.00  0.00    +0.000 C 
ATOM     14  O   UNL     1       3.180   2.518  20.754  0.00  0.00    +0.000 OA
BRANCH  13  15
ATOM     15  O   UNL     1       5.153   1.933  19.843  0.00  0.00    +0.000 OA
ATOM     16  H   UNL     1       4.948   0.991  20.014  0.00  0.00    +0.000 HD
ENDBRANCH  13  15
ENDBRANCH  11  13
ENDBRANCH   1  10
BRANCH   3  17
ATOM     17  N   UNL     1       2.013   7.526  18.935  0.00  0.00    +0.000 N 
ATOM     18  C   UNL     1       2.046   8.552  18.012  0.00  0.00    +0.000 C 
ATOM     19  O   UNL     1       2.831   8.577  17.069  0.00  0.00    +0.000 OA
ATOM     20  H   UNL     1       1.219   7.368  19.555  0.00  0.00    +0.000 HD
BRANCH  18  21
ATOM     21  C   UNL     1       1.046   9.639  18.211  0.00  0.00    +0.000 A 
ATOM     22  C   UNL     1       1.412  10.890  18.731  0.00  0.00    +0.000 A 
ATOM     23  C   UNL     1       0.454  11.896  18.883  0.00  0.00    +0.000 A 
ATOM     24  C   UNL     1      -0.869  11.656  18.515  0.00  0.00    +0.000 A 
ATOM     25  C   UNL     1      -1.227  10.416  17.990  0.00  0.00    +0.000 A 
ATOM     26 CL   UNL     1      -2.863  10.129  17.534  0.00  0.00    +0.000 Cl
ATOM     27  C   UNL     1      -0.279   9.408  17.830  0.00  0.00    +0.000 A 
ENDBRANCH  18  21
ENDBRANCH   3  17
TORSDOF 5
ENDMDL
MODEL 9
REMARK VINA RESULT:      -7.6      2.819      4.237
REMARK  Name = 
REMARK  7 active torsions:
REMARK  status: ('A' for Active; 'I' for Inactive)
REMARK    1  A    between atoms: C_1  and  C_2
REMARK    2  A    between atoms: C_3  and  C_4
REMARK    3  A    between atoms: C_6  and  C_7
REMARK    4  A    between atoms: N_9  and  N_10
REMARK    5  A    between atoms: C_11  and  C_13
REMARK    6  A    between atoms: C_20  and  C_21
REMARK    7  A    between atoms: C_21  and  O_23
REMARK                            x       y       z     vdW  Elec       q    Type
REMARK                         _______ _______ _______ _____ _____    ______ ____
ROOT
ATOM      1  C   UNL     1       1.914   7.396  20.013  0.00  0.00    +0.000 C 
ATOM      2  O   UNL     1       1.384   7.624  21.100  0.00  0.00    +0.000 OA
ATOM      3  N   UNL     1       1.865   8.315  18.982  0.00  0.00    +0.000 N 
ATOM      4  H   UNL     1       2.081   8.102  18.008  0.00  0.00    +0.000 HD
ENDROOT
BRANCH   1  10
ATOM      5  C   UNL     1       0.669   2.210  18.653  0.00  0.00    +0.000 C 
ATOM      6  C   UNL     1       1.369   3.472  19.103  0.00  0.00    +0.000 C 
ATOM      7  C   UNL     1       1.689   3.768  20.376  0.00  0.00    +0.000 C 
ATOM      8  C   UNL     1       1.410   2.883  21.570  0.00  0.00    +0.000 C 
ATOM      9  C   UNL     1       2.379   5.052  20.768  0.00  0.00    +0.000 C 
ATOM     10  C   UNL     1       2.678   6.109  19.693  0.00  0.00    +0.000 C 
ATOM     11  C   UNL     1       2.445   5.691  18.228  0.00  0.00    +0.000 C 
ATOM     12  C   UNL     1       1.676   4.395  17.954  0.00  0.00    +0.000 C 
BRANCH  11  13
ATOM     13  C   UNL     1       3.783   5.630  17.516  0.00  0.00    +0.000 C 
ATOM     14  O   UNL     1       4.300   4.601  17.110  0.00  0.00    +0.000 OA
BRANCH  13  15
ATOM     15  O   UNL     1       4.381   6.836  17.368  0.00  0.00    +0.000 OA
ATOM     16  H   UNL     1       3.957   7.441  16.725  0.00  0.00    +0.000 HD
ENDBRANCH  13  15
ENDBRANCH  11  13
ENDBRANCH   1  10
BRANCH   3  17
ATOM     17  N   UNL     1       1.230   9.536  19.234  0.00  0.00    +0.000 N 
ATOM     18  C   UNL     1       1.569  10.636  18.473  0.00  0.00    +0.000 C 
ATOM     19  O   UNL     1       2.437  10.608  17.606  0.00  0.00    +0.000 OA
ATOM     20  H   UNL     1       0.361   9.478  19.763  0.00  0.00    +0.000 HD
BRANCH  18  21
ATOM     21  C   UNL     1       0.799  11.882  18.750  0.00  0.00    +0.000 A 
ATOM     22  C   UNL     1      -0.530  11.841  19.200  0.00  0.00    +0.000 A 
ATOM     23  C   UNL     1      -1.216  13.027  19.473  0.00  0.00    +0.000 A 
ATOM     24  C   UNL     1      -0.579  14.254  19.299  0.00  0.00    +0.000 A 
ATOM     25  C   UNL     1       0.744  14.291  18.862  0.00  0.00    +0.000 A 
ATOM     26 CL   UNL     1       1.526  15.812  18.654  0.00  0.00    +0.000 Cl
ATOM     27  C   UNL     1       1.438  13.114  18.592  0.00  0.00    +0.000 A 
ENDBRANCH  18  21
ENDBRANCH   3  17
TORSDOF 5
ENDMDL
