MODEL 1
REMARK VINA RESULT:      -6.8      0.000      0.000
REMARK  Name = 
REMARK  9 active torsions:
REMARK  status: ('A' for Active; 'I' for Inactive)
REMARK    1  A    between atoms: C_1  and  C_2
REMARK    2  A    between atoms: C_2  and  C_3
REMARK    3  A    between atoms: C_6  and  C_7
REMARK    4  A    between atoms: N_8  and  N_9
REMARK    5  A    between atoms: N_9  and  C_10
REMARK    6  A    between atoms: C_10  and  N_12
REMARK    7  A    between atoms: N_12  and  C_13
REMARK    8  A    between atoms: C_16  and  O_17
REMARK    9  A    between atoms: O_17  and  C_18
REMARK                            x       y       z     vdW  Elec       q    Type
REMARK                         _______ _______ _______ _____ _____    ______ ____
ROOT
ATOM      1  N   UNL     1       3.028   3.872  20.203  0.00  0.00    +0.000 N 
ATOM      2  H   UNL     1       3.143   3.483  21.134  0.00  0.00    +0.000 HD
ENDROOT
BRANCH   1   4
ATOM      3  C   UNL     1       2.945   6.068  19.688  0.00  0.00    +0.000 C 
ATOM      4  N   UNL     1       2.302   4.999  20.036  0.00  0.00    +0.000 NA
BRANCH   3   8
ATOM      5  C   UNL     1       0.797   9.675  19.512  0.00  0.00    +0.000 A 
ATOM      6  C   UNL     1       1.480   9.237  18.378  0.00  0.00    +0.000 A 
ATOM      7  C   UNL     1       2.212   8.062  18.432  0.00  0.00    +0.000 A 
ATOM      8  C   UNL     1       2.230   7.355  19.627  0.00  0.00    +0.000 A 
ATOM      9  N   UNL     1       1.573   7.730  20.749  0.00  0.00    +0.000 NA
ATOM     10  C   UNL     1       0.874   8.887  20.662  0.00  0.00    +0.000 A 
BRANCH   5  12
ATOM     11  C   UNL     1      -0.978  10.931  18.277  0.00  0.00    +0.000 C 
ATOM     12  C   UNL     1      -0.026  10.930  19.464  0.00  0.00    +0.000 C 
ENDBRANCH   5  12
ENDBRANCH   3   8
ENDBRANCH   1   4
BRANCH   1  13
ATOM     13  C   UNL     1       3.380   3.097  19.114  0.00  0.00    +0.000 C 
ATOM     14  S   UNL     1       2.328   2.252  18.125  0.00  0.00    +0.000 S 
BRANCH  13  15
ATOM     15  N   UNL     1       4.722   3.092  18.820  0.00  0.00    +0.000 N 
ATOM     16  H   UNL     1       5.255   2.349  19.258  0.00  0.00    +0.000 HD
BRANCH  15  17
ATOM     17  C   UNL     1       5.466   4.173  18.304  0.00  0.00    +0.000 A 
ATOM     18  C   UNL     1       6.457   4.825  19.047  0.00  0.00    +0.000 A 
ATOM     19  C   UNL     1       7.185   5.873  18.485  0.00  0.00    +0.000 A 
ATOM     20  C   UNL     1       6.947   6.269  17.171  0.00  0.00    +0.000 A 
ATOM     21  C   UNL     1       5.967   5.613  16.423  0.00  0.00    +0.000 A 
ATOM     22  C   UNL     1       5.244   4.551  16.981  0.00  0.00    +0.000 A 
BRANCH  20  23
ATOM     23  O   UNL     1       7.704   7.319  16.734  0.00  0.00    +0.000 OA
ATOM     24  C   UNL     1       7.882   8.374  17.671  0.00  0.00    +0.000 C 
ENDBRANCH  20  23
ENDBRANCH  15  17
ENDBRANCH  13  15
ENDBRANCH   1  13
TORSDOF 7
ENDMDL
MODEL 2
REMARK VINA RESULT:      -6.7      0.536      1.145
REMARK  Name = 
REMARK  9 active torsions:
REMARK  status: ('A' for Active; 'I' for Inactive)
REMARK    1  A    between atoms: C_1  and  C_2
REMARK    2  A    between atoms: C_2  and  C_3
REMARK    3  A    between atoms: C_6  and  C_7
REMARK    4  A    between atoms: N_8  and  N_9
REMARK    5  A    between atoms: N_9  and  C_10
REMARK    6  A    between atoms: C_10  and  N_12
REMARK    7  A    between atoms: N_12  and  C_13
REMARK    8  A    between atoms: C_16  and  O_17
REMARK    9  A    between atoms: O_17  and  C_18
REMARK                            x       y       z     vdW  Elec       q    Type
REMARK                         _______ _______ _______ _____ _____    ______ ____
ROOT
ATOM      1  N   UNL     1       3.307   4.050  19.997  0.00  0.00    +0.000 N 
ATOM      2  H   UNL     1       3.543   3.612  20.882  0.00  0.00    +0.000 HD
ENDROOT
BRANCH   1   4
ATOM      3  C   UNL     1       2.984   6.234  19.523  0.00  0.00    +0.000 C 
ATOM      4  N   UNL     1       2.492   5.127  19.983  0.00  0.00    +0.000 NA
BRANCH   3   8
ATOM      5  C   UNL     1       0.615   9.695  19.771  0.00  0.00    +0.000 A 
ATOM      6  C   UNL     1       1.287   9.418  18.581  0.00  0.00    +0.000 A 
ATOM      7  C   UNL     1       2.091   8.292  18.496  0.00  0.00    +0.000 A 
ATOM      8  C   UNL     1       2.190   7.472  19.612  0.00  0.00    +0.000 A 
ATOM      9  N   UNL     1       1.547   7.689  20.783  0.00  0.00    +0.000 NA
ATOM     10  C   UNL     1       0.777   8.802  20.832  0.00  0.00    +0.000 A 
BRANCH   5  12
ATOM     11  C   UNL     1      -0.251  11.729  18.601  0.00  0.00    +0.000 C 
ATOM     12  C   UNL     1      -0.285  10.893  19.872  0.00  0.00    +0.000 C 
ENDBRANCH   5  12
ENDBRANCH   3   8
ENDBRANCH   1   4
BRANCH   1  13
ATOM     13  C   UNL     1       3.598   3.376  18.827  0.00  0.00    +0.000 C 
ATOM     14  S   UNL     1       2.498   2.589  17.843  0.00  0.00    +0.000 S 
BRANCH  13  15
ATOM     15  N   UNL     1       4.917   3.431  18.444  0.00  0.00    +0.000 N 
ATOM     16  H   UNL     1       5.476   2.629  18.715  0.00  0.00    +0.000 HD
BRANCH  15  17
ATOM     17  C   UNL     1       5.628   4.587  18.063  0.00  0.00    +0.000 A 
ATOM     18  C   UNL     1       5.302   5.327  16.921  0.00  0.00    +0.000 A 
ATOM     19  C   UNL     1       6.018   6.479  16.599  0.00  0.00    +0.000 A 
ATOM     20  C   UNL     1       7.055   6.915  17.421  0.00  0.00    +0.000 A 
ATOM     21  C   UNL     1       7.376   6.185  18.567  0.00  0.00    +0.000 A 
ATOM     22  C   UNL     1       6.649   5.036  18.900  0.00  0.00    +0.000 A 
BRANCH  20  23
ATOM     23  O   UNL     1       7.700   8.042  16.995  0.00  0.00    +0.000 OA
ATOM     24  C   UNL     1       8.246   8.859  18.023  0.00  0.00    +0.000 C 
ENDBRANCH  20  23
ENDBRANCH  15  17
ENDBRANCH  13  15
ENDBRANCH   1  13
TORSDOF 7
ENDMDL
MODEL 3
REMARK VINA RESULT:      -6.6      1.119      1.570
REMARK  Name = 
REMARK  9 active torsions:
REMARK  status: ('A' for Active; 'I' for Inactive)
REMARK    1  A    between atoms: C_1  and  C_2
REMARK    2  A    between atoms: C_2  and  C_3
REMARK    3  A    between atoms: C_6  and  C_7
REMARK    4  A    between atoms: N_8  and  N_9
REMARK    5  A    between atoms: N_9  and  C_10
REMARK    6  A    between atoms: C_10  and  N_12
REMARK    7  A    between atoms: N_12  and  C_13
REMARK    8  A    between atoms: C_16  and  O_17
REMARK    9  A    between atoms: O_17  and  C_18
REMARK                            x       y       z     vdW  Elec       q    Type
REMARK                         _______ _______ _______ _____ _____    ______ ____
ROOT
ATOM      1  N   UNL     1       2.597   3.542  18.413  0.00  0.00    +0.000 N 
ATOM      2  H   UNL     1       1.895   2.871  18.117  0.00  0.00    +0.000 HD
ENDROOT
BRANCH   1   4
ATOM      3  C   UNL     1       2.577   5.625  19.285  0.00  0.00    +0.000 C 
ATOM      4  N   UNL     1       2.361   4.864  18.259  0.00  0.00    +0.000 NA
BRANCH   3   8
ATOM      5  C   UNL     1       1.397   9.653  19.098  0.00  0.00    +0.000 A 
ATOM      6  C   UNL     1       1.930   9.050  17.959  0.00  0.00    +0.000 A 
ATOM      7  C   UNL     1       2.344   7.729  18.017  0.00  0.00    +0.000 A 
ATOM      8  C   UNL     1       2.206   7.049  19.220  0.00  0.00    +0.000 A 
ATOM      9  N   UNL     1       1.683   7.585  20.347  0.00  0.00    +0.000 NA
ATOM     10  C   UNL     1       1.295   8.880  20.256  0.00  0.00    +0.000 A 
BRANCH   5  12
ATOM     11  C   UNL     1       0.887  11.707  20.431  0.00  0.00    +0.000 C 
ATOM     12  C   UNL     1       0.914  11.075  19.048  0.00  0.00    +0.000 C 
ENDBRANCH   5  12
ENDBRANCH   3   8
ENDBRANCH   1   4
BRANCH   1  13
ATOM     13  C   UNL     1       3.868   3.086  18.706  0.00  0.00    +0.000 C 
ATOM     14  S   UNL     1       4.325   2.269  20.092  0.00  0.00    +0.000 S 
BRANCH  13  15
ATOM     15  N   UNL     1       4.798   3.295  17.717  0.00  0.00    +0.000 N 
ATOM     16  H   UNL     1       5.161   2.453  17.284  0.00  0.00    +0.000 HD
BRANCH  15  17
ATOM     17  C   UNL     1       5.542   4.474  17.506  0.00  0.00    +0.000 A 
ATOM     18  C   UNL     1       5.203   5.410  16.522  0.00  0.00    +0.000 A 
ATOM     19  C   UNL     1       5.954   6.575  16.367  0.00  0.00    +0.000 A 
ATOM     20  C   UNL     1       7.038   6.828  17.205  0.00  0.00    +0.000 A 
ATOM     21  C   UNL     1       7.372   5.901  18.195  0.00  0.00    +0.000 A 
ATOM     22  C   UNL     1       6.611   4.739  18.360  0.00  0.00    +0.000 A 
BRANCH  20  23
ATOM     23  O   UNL     1       7.712   7.988  16.947  0.00  0.00    +0.000 OA
ATOM     24  C   UNL     1       8.214   8.670  18.090  0.00  0.00    +0.000 C 
ENDBRANCH  20  23
ENDBRANCH  15  17
ENDBRANCH  13  15
ENDBRANCH   1  13
TORSDOF 7
ENDMDL
MODEL 4
REMARK VINA RESULT:      -6.6      2.356      3.460
REMARK  Name = 
REMARK  9 active torsions:
REMARK  status: ('A' for Active; 'I' for Inactive)
REMARK    1  A    between atoms: C_1  and  C_2
REMARK    2  A    between atoms: C_2  and  C_3
REMARK    3  A    between atoms: C_6  and  C_7
REMARK    4  A    between atoms: N_8  and  N_9
REMARK    5  A    between atoms: N_9  and  C_10
REMARK    6  A    between atoms: C_10  and  N_12
REMARK    7  A    between atoms: N_12  and  C_13
REMARK    8  A    between atoms: C_16  and  O_17
REMARK    9  A    between atoms: O_17  and  C_18
REMARK                            x       y       z     vdW  Elec       q    Type
REMARK                         _______ _______ _______ _____ _____    ______ ____
ROOT
ATOM      1  N   UNL     1       2.143   6.166  20.945  0.00  0.00    +0.000 N 
ATOM      2  H   UNL     1       2.968   6.187  21.538  0.00  0.00    +0.000 HD
ENDROOT
BRANCH   1   4
ATOM      3  C   UNL     1       1.577   8.332  21.235  0.00  0.00    +0.000 C 
ATOM      4  N   UNL     1       1.185   7.104  21.105  0.00  0.00    +0.000 NA
BRANCH   3   8
ATOM      5  C   UNL     1      -1.151  11.396  22.144  0.00  0.00    +0.000 A 
ATOM      6  C   UNL     1      -0.869  10.431  23.111  0.00  0.00    +0.000 A 
ATOM      7  C   UNL     1       0.010   9.403  22.813  0.00  0.00    +0.000 A 
ATOM      8  C   UNL     1       0.587   9.378  21.550  0.00  0.00    +0.000 A 
ATOM      9  N   UNL     1       0.357  10.297  20.584  0.00  0.00    +0.000 NA
ATOM     10  C   UNL     1      -0.513  11.284  20.908  0.00  0.00    +0.000 A 
BRANCH   5  12
ATOM     11  C   UNL     1      -3.090  12.156  23.529  0.00  0.00    +0.000 C 
ATOM     12  C   UNL     1      -2.078  12.536  22.458  0.00  0.00    +0.000 C 
ENDBRANCH   5  12
ENDBRANCH   3   8
ENDBRANCH   1   4
BRANCH   1  13
ATOM     13  C   UNL     1       1.900   5.035  20.190  0.00  0.00    +0.000 C 
ATOM     14  S   UNL     1       1.585   3.504  20.783  0.00  0.00    +0.000 S 
BRANCH  13  15
ATOM     15  N   UNL     1       1.869   5.245  18.832  0.00  0.00    +0.000 N 
ATOM     16  H   UNL     1       0.996   4.994  18.379  0.00  0.00    +0.000 HD
BRANCH  15  17
ATOM     17  C   UNL     1       2.985   5.409  17.987  0.00  0.00    +0.000 A 
ATOM     18  C   UNL     1       3.591   6.653  17.778  0.00  0.00    +0.000 A 
ATOM     19  C   UNL     1       4.710   6.763  16.952  0.00  0.00    +0.000 A 
ATOM     20  C   UNL     1       5.247   5.631  16.342  0.00  0.00    +0.000 A 
ATOM     21  C   UNL     1       4.650   4.386  16.558  0.00  0.00    +0.000 A 
ATOM     22  C   UNL     1       3.536   4.273  17.397  0.00  0.00    +0.000 A 
BRANCH  20  23
ATOM     23  O   UNL     1       6.328   5.861  15.540  0.00  0.00    +0.000 OA
ATOM     24  C   UNL     1       7.006   4.698  15.080  0.00  0.00    +0.000 C 
ENDBRANCH  20  23
ENDBRANCH  15  17
ENDBRANCH  13  15
ENDBRANCH   1  13
TORSDOF 7
ENDMDL
MODEL 5
REMARK VINA RESULT:      -6.5      4.672      7.243
REMARK  Name = 
REMARK  9 active torsions:
REMARK  status: ('A' for Active; 'I' for Inactive)
REMARK    1  A    between atoms: C_1  and  C_2
REMARK    2  A    between atoms: C_2  and  C_3
REMARK    3  A    between atoms: C_6  and  C_7
REMARK    4  A    between atoms: N_8  and  N_9
REMARK    5  A    between atoms: N_9  and  C_10
REMARK    6  A    between atoms: C_10  and  N_12
REMARK    7  A    between atoms: N_12  and  C_13
REMARK    8  A    between atoms: C_16  and  O_17
REMARK    9  A    between atoms: O_17  and  C_18
REMARK                            x       y       z     vdW  Elec       q    Type
REMARK                         _______ _______ _______ _____ _____    ______ ____
ROOT
ATOM      1  N   UNL     1       7.729   7.586  17.105  0.00  0.00    +0.000 N 
ATOM      2  H   UNL     1       8.139   7.590  16.177  0.00  0.00    +0.000 HD
ENDROOT
BRANCH   1   4
ATOM      3  C   UNL     1       8.318   9.725  17.525  0.00  0.00    +0.000 C 
ATOM      4  N   UNL     1       8.082   8.540  17.994  0.00  0.00    +0.000 NA
BRANCH   3   8
ATOM      5  C   UNL     1       9.911  12.708  20.019  0.00  0.00    +0.000 A 
ATOM      6  C   UNL     1       9.910  11.385  20.460  0.00  0.00    +0.000 A 
ATOM      7  C   UNL     1       9.365  10.397  19.656  0.00  0.00    +0.000 A 
ATOM      8  C   UNL     1       8.841  10.768  18.425  0.00  0.00    +0.000 A 
ATOM      9  N   UNL     1       8.830  12.034  17.946  0.00  0.00    +0.000 NA
ATOM     10  C   UNL     1       9.365  12.974  18.762  0.00  0.00    +0.000 A 
BRANCH   5  12
ATOM     11  C   UNL     1       9.609  14.192  22.009  0.00  0.00    +0.000 C 
ATOM     12  C   UNL     1      10.524  13.788  20.863  0.00  0.00    +0.000 C 
ENDBRANCH   5  12
ENDBRANCH   3   8
ENDBRANCH   1   4
BRANCH   1  13
ATOM     13  C   UNL     1       7.039   6.463  17.519  0.00  0.00    +0.000 C 
ATOM     14  S   UNL     1       7.279   5.632  18.951  0.00  0.00    +0.000 S 
BRANCH  13  15
ATOM     15  N   UNL     1       6.035   6.058  16.673  0.00  0.00    +0.000 N 
ATOM     16  H   UNL     1       6.091   6.432  15.731  0.00  0.00    +0.000 HD
BRANCH  15  17
ATOM     17  C   UNL     1       4.794   5.510  17.053  0.00  0.00    +0.000 A 
ATOM     18  C   UNL     1       4.482   4.157  16.869  0.00  0.00    +0.000 A 
ATOM     19  C   UNL     1       3.250   3.654  17.284  0.00  0.00    +0.000 A 
ATOM     20  C   UNL     1       2.323   4.490  17.904  0.00  0.00    +0.000 A 
ATOM     21  C   UNL     1       2.635   5.837  18.099  0.00  0.00    +0.000 A 
ATOM     22  C   UNL     1       3.877   6.340  17.695  0.00  0.00    +0.000 A 
BRANCH  20  23
ATOM     23  O   UNL     1       1.143   3.893  18.248  0.00  0.00    +0.000 OA
ATOM     24  C   UNL     1       1.244   2.539  18.672  0.00  0.00    +0.000 C 
ENDBRANCH  20  23
ENDBRANCH  15  17
ENDBRANCH  13  15
ENDBRANCH   1  13
TORSDOF 7
ENDMDL
MODEL 6
REMARK VINA RESULT:      -6.5      1.157      1.258
REMARK  Name = 
REMARK  9 active torsions:
REMARK  status: ('A' for Active; 'I' for Inactive)
REMARK    1  A    between atoms: C_1  and  C_2
REMARK    2  A    between atoms: C_2  and  C_3
REMARK    3  A    between atoms: C_6  and  C_7
REMARK    4  A    between atoms: N_8  and  N_9
REMARK    5  A    between atoms: N_9  and  C_10
REMARK    6  A    between atoms: C_10  and  N_12
REMARK    7  A    between atoms: N_12  and  C_13
REMARK    8  A    between atoms: C_16  and  O_17
REMARK    9  A    between atoms: O_17  and  C_18
REMARK                            x       y       z     vdW  Elec       q    Type
REMARK                         _______ _______ _______ _____ _____    ______ ____
ROOT
ATOM      1  N   UNL     1       3.154   3.999  18.341  0.00  0.00    +0.000 N 
ATOM      2  H   UNL     1       3.146   3.779  17.349  0.00  0.00    +0.000 HD
ENDROOT
BRANCH   1   4
ATOM      3  C   UNL     1       2.789   6.223  18.218  0.00  0.00    +0.000 C 
ATOM      4  N   UNL     1       2.501   5.094  18.785  0.00  0.00    +0.000 NA
BRANCH   3   8
ATOM      5  C   UNL     1       1.035   9.718  19.757  0.00  0.00    +0.000 A 
ATOM      6  C   UNL     1       1.327   9.650  18.395  0.00  0.00    +0.000 A 
ATOM      7  C   UNL     1       1.928   8.512  17.882  0.00  0.00    +0.000 A 
ATOM      8  C   UNL     1       2.212   7.469  18.754  0.00  0.00    +0.000 A 
ATOM      9  N   UNL     1       1.935   7.481  20.079  0.00  0.00    +0.000 NA
ATOM     10  C   UNL     1       1.355   8.612  20.547  0.00  0.00    +0.000 A 
BRANCH   5  12
ATOM     11  C   UNL     1      -0.447  10.590  21.574  0.00  0.00    +0.000 C 
ATOM     12  C   UNL     1       0.356  10.930  20.327  0.00  0.00    +0.000 C 
ENDBRANCH   5  12
ENDBRANCH   3   8
ENDBRANCH   1   4
BRANCH   1  13
ATOM     13  C   UNL     1       4.048   3.334  19.158  0.00  0.00    +0.000 C 
ATOM     14  S   UNL     1       3.660   2.425  20.507  0.00  0.00    +0.000 S 
BRANCH  13  15
ATOM     15  N   UNL     1       5.360   3.407  18.758  0.00  0.00    +0.000 N 
ATOM     16  H   UNL     1       5.946   2.639  19.064  0.00  0.00    +0.000 HD
BRANCH  15  17
ATOM     17  C   UNL     1       6.032   4.562  18.307  0.00  0.00    +0.000 A 
ATOM     18  C   UNL     1       6.770   5.385  19.167  0.00  0.00    +0.000 A 
ATOM     19  C   UNL     1       7.439   6.503  18.671  0.00  0.00    +0.000 A 
ATOM     20  C   UNL     1       7.394   6.803  17.311  0.00  0.00    +0.000 A 
ATOM     21  C   UNL     1       6.668   5.979  16.450  0.00  0.00    +0.000 A 
ATOM     22  C   UNL     1       6.007   4.848  16.943  0.00  0.00    +0.000 A 
BRANCH  20  23
ATOM     23  O   UNL     1       8.068   7.933  16.944  0.00  0.00    +0.000 OA
ATOM     24  C   UNL     1       8.191   8.927  17.955  0.00  0.00    +0.000 C 
ENDBRANCH  20  23
ENDBRANCH  15  17
ENDBRANCH  13  15
ENDBRANCH   1  13
TORSDOF 7
ENDMDL
MODEL 7
REMARK VINA RESULT:      -6.4      3.075      4.497
REMARK  Name = 
REMARK  9 active torsions:
REMARK  status: ('A' for Active; 'I' for Inactive)
REMARK    1  A    between atoms: C_1  and  C_2
REMARK    2  A    between atoms: C_2  and  C_3
REMARK    3  A    between atoms: C_6  and  C_7
REMARK    4  A    between atoms: N_8  and  N_9
REMARK    5  A    between atoms: N_9  and  C_10
REMARK    6  A    between atoms: C_10  and  N_12
REMARK    7  A    between atoms: N_12  and  C_13
REMARK    8  A    between atoms: C_16  and  O_17
REMARK    9  A    between atoms: O_17  and  C_18
REMARK                            x       y       z     vdW  Elec       q    Type
REMARK                         _______ _______ _______ _____ _____    ______ ____
ROOT
ATOM      1  N   UNL     1       4.459   6.979  16.789  0.00  0.00    +0.000 N 
ATOM      2  H   UNL     1       4.527   7.618  16.003  0.00  0.00    +0.000 HD
ENDROOT
BRANCH   1   4
ATOM      3  C   UNL     1       2.659   8.072  17.602  0.00  0.00    +0.000 C 
ATOM      4  N   UNL     1       3.668   7.294  17.837  0.00  0.00    +0.000 NA
BRANCH   3   8
ATOM      5  C   UNL     1       0.417   9.561  20.829  0.00  0.00    +0.000 A 
ATOM      6  C   UNL     1       1.182   8.408  21.009  0.00  0.00    +0.000 A 
ATOM      7  C   UNL     1       1.905   7.895  19.945  0.00  0.00    +0.000 A 
ATOM      8  C   UNL     1       1.844   8.561  18.728  0.00  0.00    +0.000 A 
ATOM      9  N   UNL     1       1.130   9.689  18.506  0.00  0.00    +0.000 NA
ATOM     10  C   UNL     1       0.430  10.158  19.567  0.00  0.00    +0.000 A 
BRANCH   5  12
ATOM     11  C   UNL     1       0.015   9.481  23.296  0.00  0.00    +0.000 C 
ATOM     12  C   UNL     1      -0.349  10.150  21.978  0.00  0.00    +0.000 C 
ENDBRANCH   5  12
ENDBRANCH   3   8
ENDBRANCH   1   4
BRANCH   1  13
ATOM     13  C   UNL     1       5.376   5.950  16.886  0.00  0.00    +0.000 C 
ATOM     14  S   UNL     1       7.030   6.119  17.066  0.00  0.00    +0.000 S 
BRANCH  13  15
ATOM     15  N   UNL     1       4.830   4.689  16.886  0.00  0.00    +0.000 N 
ATOM     16  H   UNL     1       4.930   4.178  16.016  0.00  0.00    +0.000 HD
BRANCH  15  17
ATOM     17  C   UNL     1       3.867   4.197  17.791  0.00  0.00    +0.000 A 
ATOM     18  C   UNL     1       4.118   4.080  19.163  0.00  0.00    +0.000 A 
ATOM     19  C   UNL     1       3.126   3.611  20.024  0.00  0.00    +0.000 A 
ATOM     20  C   UNL     1       1.868   3.274  19.529  0.00  0.00    +0.000 A 
ATOM     21  C   UNL     1       1.611   3.400  18.162  0.00  0.00    +0.000 A 
ATOM     22  C   UNL     1       2.602   3.884  17.299  0.00  0.00    +0.000 A 
BRANCH  20  23
ATOM     23  O   UNL     1       0.984   2.807  20.460  0.00  0.00    +0.000 OA
ATOM     24  C   UNL     1       1.529   2.562  21.751  0.00  0.00    +0.000 C 
ENDBRANCH  20  23
ENDBRANCH  15  17
ENDBRANCH  13  15
ENDBRANCH   1  13
TORSDOF 7
ENDMDL
MODEL 8
REMARK VINA RESULT:      -6.4      1.191      1.823
REMARK  Name = 
REMARK  9 active torsions:
REMARK  status: ('A' for Active; 'I' for Inactive)
REMARK    1  A    between atoms: C_1  and  C_2
REMARK    2  A    between atoms: C_2  and  C_3
REMARK    3  A    between atoms: C_6  and  C_7
REMARK    4  A    between atoms: N_8  and  N_9
REMARK    5  A    between atoms: N_9  and  C_10
REMARK    6  A    between atoms: C_10  and  N_12
REMARK    7  A    between atoms: N_12  and  C_13
REMARK    8  A    between atoms: C_16  and  O_17
REMARK    9  A    between atoms: O_17  and  C_18
REMARK                            x       y       z     vdW  Elec       q    Type
REMARK                         _______ _______ _______ _____ _____    ______ ____
ROOT
ATOM      1  N   UNL     1       2.352   4.365  20.782  0.00  0.00    +0.000 N 
ATOM      2  H   UNL     1       2.310   4.010  21.733  0.00  0.00    +0.000 HD
ENDROOT
BRANCH   1   4
ATOM      3  C   UNL     1       2.487   6.329  19.678  0.00  0.00    +0.000 C 
ATOM      4  N   UNL     1       1.827   5.577  20.500  0.00  0.00    +0.000 NA
BRANCH   3   8
ATOM      5  C   UNL     1       1.083  10.231  19.000  0.00  0.00    +0.000 A 
ATOM      6  C   UNL     1       1.710   9.546  17.959  0.00  0.00    +0.000 A 
ATOM      7  C   UNL     1       2.198   8.269  18.179  0.00  0.00    +0.000 A 
ATOM      8  C   UNL     1       2.036   7.712  19.441  0.00  0.00    +0.000 A 
ATOM      9  N   UNL     1       1.424   8.329  20.478  0.00  0.00    +0.000 NA
ATOM     10  C   UNL     1       0.966   9.580  20.229  0.00  0.00    +0.000 A 
BRANCH   5  12
ATOM     11  C   UNL     1       0.726  12.503  19.985  0.00  0.00    +0.000 C 
ATOM     12  C   UNL     1       0.520  11.605  18.773  0.00  0.00    +0.000 C 
ENDBRANCH   5  12
ENDBRANCH   3   8
ENDBRANCH   1   4
BRANCH   1  13
ATOM     13  C   UNL     1       2.694   3.494  19.766  0.00  0.00    +0.000 C 
ATOM     14  S   UNL     1       1.631   2.743  18.715  0.00  0.00    +0.000 S 
BRANCH  13  15
ATOM     15  N   UNL     1       4.044   3.300  19.603  0.00  0.00    +0.000 N 
ATOM     16  H   UNL     1       4.527   2.940  20.418  0.00  0.00    +0.000 HD
BRANCH  15  17
ATOM     17  C   UNL     1       4.854   3.869  18.599  0.00  0.00    +0.000 A 
ATOM     18  C   UNL     1       4.685   3.572  17.241  0.00  0.00    +0.000 A 
ATOM     19  C   UNL     1       5.494   4.180  16.281  0.00  0.00    +0.000 A 
ATOM     20  C   UNL     1       6.466   5.102  16.663  0.00  0.00    +0.000 A 
ATOM     21  C   UNL     1       6.629   5.408  18.016  0.00  0.00    +0.000 A 
ATOM     22  C   UNL     1       5.809   4.810  18.979  0.00  0.00    +0.000 A 
BRANCH  20  23
ATOM     23  O   UNL     1       7.213   5.615  15.640  0.00  0.00    +0.000 OA
ATOM     24  C   UNL     1       7.065   4.959  14.387  0.00  0.00    +0.000 C 
ENDBRANCH  20  23
ENDBRANCH  15  17
ENDBRANCH  13  15
ENDBRANCH   1  13
TORSDOF 7
ENDMDL
MODEL 9
REMARK VINA RESULT:      -6.4      3.072      4.479
REMARK  Name = 
REMARK  9 active torsions:
REMARK  status: ('A' for Active; 'I' for Inactive)
REMARK    1  A    between atoms: C_1  and  C_2
REMARK    2  A    between atoms: C_2  and  C_3
REMARK    3  A    between atoms: C_6  and  C_7
REMARK    4  A    between atoms: N_8  and  N_9
REMARK    5  A    between atoms: N_9  and  C_10
REMARK    6  A    between atoms: C_10  and  N_12
REMARK    7  A    between atoms: N_12  and  C_13
REMARK    8  A    between atoms: C_16  and  O_17
REMARK    9  A    between atoms: O_17  and  C_18
REMARK                            x       y       z     vdW  Elec       q    Type
REMARK                         _______ _______ _______ _____ _____    ______ ____
ROOT
ATOM      1  N   UNL     1       3.908   7.408  17.028  0.00  0.00    +0.000 N 
ATOM      2  H   UNL     1       3.793   8.025  16.229  0.00  0.00    +0.000 HD
ENDROOT
BRANCH   1   4
ATOM      3  C   UNL     1       2.130   8.286  18.107  0.00  0.00    +0.000 C 
ATOM      4  N   UNL     1       3.282   7.699  18.189  0.00  0.00    +0.000 NA
BRANCH   3   8
ATOM      5  C   UNL     1       0.160   9.515  21.610  0.00  0.00    +0.000 A 
ATOM      6  C   UNL     1      -0.070  10.211  20.423  0.00  0.00    +0.000 A 
ATOM      7  C   UNL     1       0.593   9.829  19.268  0.00  0.00    +0.000 A 
ATOM      8  C   UNL     1       1.466   8.752  19.337  0.00  0.00    +0.000 A 
ATOM      9  N   UNL     1       1.712   8.036  20.459  0.00  0.00    +0.000 NA
ATOM     10  C   UNL     1       1.053   8.442  21.571  0.00  0.00    +0.000 A 
BRANCH   5  12
ATOM     11  C   UNL     1      -1.052  11.337  22.820  0.00  0.00    +0.000 C 
ATOM     12  C   UNL     1      -0.572   9.894  22.865  0.00  0.00    +0.000 C 
ENDBRANCH   5  12
ENDBRANCH   3   8
ENDBRANCH   1   4
BRANCH   1  13
ATOM     13  C   UNL     1       4.905   6.453  16.988  0.00  0.00    +0.000 C 
ATOM     14  S   UNL     1       6.539   6.726  17.218  0.00  0.00    +0.000 S 
BRANCH  13  15
ATOM     15  N   UNL     1       4.464   5.166  16.795  0.00  0.00    +0.000 N 
ATOM     16  H   UNL     1       4.450   4.857  15.829  0.00  0.00    +0.000 HD
BRANCH  15  17
ATOM     17  C   UNL     1       3.712   4.397  17.706  0.00  0.00    +0.000 A 
ATOM     18  C   UNL     1       4.245   3.929  18.913  0.00  0.00    +0.000 A 
ATOM     19  C   UNL     1       3.454   3.192  19.795  0.00  0.00    +0.000 A 
ATOM     20  C   UNL     1       2.120   2.931  19.491  0.00  0.00    +0.000 A 
ATOM     21  C   UNL     1       1.582   3.405  18.293  0.00  0.00    +0.000 A 
ATOM     22  C   UNL     1       2.370   4.157  17.413  0.00  0.00    +0.000 A 
BRANCH  20  23
ATOM     23  O   UNL     1       1.450   2.182  20.417  0.00  0.00    +0.000 OA
ATOM     24  C   UNL     1       1.622   2.588  21.770  0.00  0.00    +0.000 C 
ENDBRANCH  20  23
ENDBRANCH  15  17
ENDBRANCH  13  15
ENDBRANCH   1  13
TORSDOF 7
ENDMDL
