MODEL 1
REMARK VINA RESULT:      -6.9      0.000      0.000
REMARK  Name = 
REMARK  5 active torsions:
REMARK  status: ('A' for Active; 'I' for Inactive)
REMARK    1  A    between atoms: C_1  and  O_2
REMARK    2  A    between atoms: O_2  and  C_3
REMARK    3  A    between atoms: C_6  and  C_7
REMARK    4  A    between atoms: C_8  and  C_9
REMARK    5  A    between atoms: C_9  and  C_11
REMARK                            x       y       z     vdW  Elec       q    Type
REMARK                         _______ _______ _______ _____ _____    ______ ____
ROOT
ATOM      1  C   UNL     1       4.659   4.791  16.599  0.00  0.00    +0.000 C 
ATOM      2  C   UNL     1       5.851   4.264  16.275  0.00  0.00    +0.000 C 
ENDROOT
BRANCH   1   6
ATOM      3  C   UNL     1       1.854   3.086  19.365  0.00  0.00    +0.000 A 
ATOM      4  C   UNL     1       1.846   4.449  19.073  0.00  0.00    +0.000 A 
ATOM      5  C   UNL     1       2.756   4.985  18.156  0.00  0.00    +0.000 A 
ATOM      6  C   UNL     1       3.712   4.169  17.537  0.00  0.00    +0.000 A 
ATOM      7  C   UNL     1       3.711   2.800  17.834  0.00  0.00    +0.000 A 
ATOM      8  C   UNL     1       2.794   2.263  18.749  0.00  0.00    +0.000 A 
BRANCH   3  10
ATOM      9  C   UNL     1       1.358   2.706  21.643  0.00  0.00    +0.000 C 
ATOM     10  O   UNL     1       0.930   2.678  20.286  0.00  0.00    +0.000 OA
ENDBRANCH   3  10
ENDBRANCH   1   6
BRANCH   2  11
ATOM     11  C   UNL     1       6.793   5.004  15.394  0.00  0.00    +0.000 C 
ATOM     12  O   UNL     1       7.511   5.906  15.813  0.00  0.00    +0.000 OA
BRANCH  11  13
ATOM     13  C   UNL     1       6.804   4.564  14.006  0.00  0.00    +0.000 A 
ATOM     14  C   UNL     1       6.015   3.600  13.303  0.00  0.00    +0.000 A 
ATOM     15  C   UNL     1       6.466   3.589  12.002  0.00  0.00    +0.000 A 
ATOM     16  O   UNL     1       7.478   4.476  11.848  0.00  0.00    +0.000 OA
ATOM     17  C   UNL     1       7.679   5.059  13.057  0.00  0.00    +0.000 A 
ENDBRANCH  11  13
ENDBRANCH   2  11
TORSDOF 4
ENDMDL
MODEL 2
REMARK VINA RESULT:      -6.9      0.538      1.075
REMARK  Name = 
REMARK  5 active torsions:
REMARK  status: ('A' for Active; 'I' for Inactive)
REMARK    1  A    between atoms: C_1  and  O_2
REMARK    2  A    between atoms: O_2  and  C_3
REMARK    3  A    between atoms: C_6  and  C_7
REMARK    4  A    between atoms: C_8  and  C_9
REMARK    5  A    between atoms: C_9  and  C_11
REMARK                            x       y       z     vdW  Elec       q    Type
REMARK                         _______ _______ _______ _____ _____    ______ ____
ROOT
ATOM      1  C   UNL     1       4.691   4.922  16.760  0.00  0.00    +0.000 C 
ATOM      2  C   UNL     1       5.812   4.317  16.335  0.00  0.00    +0.000 C 
ENDROOT
BRANCH   1   6
ATOM      3  C   UNL     1       1.996   3.094  19.557  0.00  0.00    +0.000 A 
ATOM      4  C   UNL     1       3.372   2.885  19.634  0.00  0.00    +0.000 A 
ATOM      5  C   UNL     1       4.237   3.502  18.725  0.00  0.00    +0.000 A 
ATOM      6  C   UNL     1       3.736   4.317  17.701  0.00  0.00    +0.000 A 
ATOM      7  C   UNL     1       2.352   4.525  17.634  0.00  0.00    +0.000 A 
ATOM      8  C   UNL     1       1.486   3.909  18.549  0.00  0.00    +0.000 A 
BRANCH   3  10
ATOM      9  C   UNL     1       1.628   2.636  21.845  0.00  0.00    +0.000 C 
ATOM     10  O   UNL     1       1.249   2.428  20.489  0.00  0.00    +0.000 OA
ENDBRANCH   3  10
ENDBRANCH   1   6
BRANCH   2  11
ATOM     11  C   UNL     1       6.776   5.035  15.459  0.00  0.00    +0.000 C 
ATOM     12  O   UNL     1       7.506   5.925  15.880  0.00  0.00    +0.000 OA
BRANCH  11  13
ATOM     13  C   UNL     1       6.791   4.587  14.073  0.00  0.00    +0.000 A 
ATOM     14  C   UNL     1       6.010   3.615  13.374  0.00  0.00    +0.000 A 
ATOM     15  C   UNL     1       6.462   3.600  12.074  0.00  0.00    +0.000 A 
ATOM     16  O   UNL     1       7.468   4.493  11.916  0.00  0.00    +0.000 OA
ATOM     17  C   UNL     1       7.663   5.084  13.122  0.00  0.00    +0.000 A 
ENDBRANCH  11  13
ENDBRANCH   2  11
TORSDOF 4
ENDMDL
MODEL 3
REMARK VINA RESULT:      -6.5      3.366      7.378
REMARK  Name = 
REMARK  5 active torsions:
REMARK  status: ('A' for Active; 'I' for Inactive)
REMARK    1  A    between atoms: C_1  and  O_2
REMARK    2  A    between atoms: O_2  and  C_3
REMARK    3  A    between atoms: C_6  and  C_7
REMARK    4  A    between atoms: C_8  and  C_9
REMARK    5  A    between atoms: C_9  and  C_11
REMARK                            x       y       z     vdW  Elec       q    Type
REMARK                         _______ _______ _______ _____ _____    ______ ____
ROOT
ATOM      1  C   UNL     1       5.225   4.030  19.066  0.00  0.00    +0.000 C 
ATOM      2  C   UNL     1       4.433   3.315  18.251  0.00  0.00    +0.000 C 
ENDROOT
BRANCH   1   6
ATOM      3  C   UNL     1       7.437   7.454  17.720  0.00  0.00    +0.000 A 
ATOM      4  C   UNL     1       6.188   7.142  17.186  0.00  0.00    +0.000 A 
ATOM      5  C   UNL     1       5.473   6.033  17.648  0.00  0.00    +0.000 A 
ATOM      6  C   UNL     1       6.012   5.196  18.634  0.00  0.00    +0.000 A 
ATOM      7  C   UNL     1       7.266   5.519  19.169  0.00  0.00    +0.000 A 
ATOM      8  C   UNL     1       7.979   6.635  18.708  0.00  0.00    +0.000 A 
BRANCH   3  10
ATOM      9  C   UNL     1       8.449   9.553  18.111  0.00  0.00    +0.000 C 
ATOM     10  O   UNL     1       8.048   8.552  17.181  0.00  0.00    +0.000 OA
ENDBRANCH   3  10
ENDBRANCH   1   6
BRANCH   2  11
ATOM     11  C   UNL     1       3.594   2.210  18.787  0.00  0.00    +0.000 C 
ATOM     12  O   UNL     1       3.639   1.073  18.331  0.00  0.00    +0.000 OA
BRANCH  11  13
ATOM     13  C   UNL     1       2.731   2.584  19.899  0.00  0.00    +0.000 A 
ATOM     14  C   UNL     1       1.438   3.193  19.943  0.00  0.00    +0.000 A 
ATOM     15  C   UNL     1       1.103   3.319  21.273  0.00  0.00    +0.000 A 
ATOM     16  O   UNL     1       2.095   2.832  22.056  0.00  0.00    +0.000 OA
ATOM     17  C   UNL     1       3.073   2.392  21.225  0.00  0.00    +0.000 A 
ENDBRANCH  11  13
ENDBRANCH   2  11
TORSDOF 4
ENDMDL
MODEL 4
REMARK VINA RESULT:      -6.5      0.917      1.261
REMARK  Name = 
REMARK  5 active torsions:
REMARK  status: ('A' for Active; 'I' for Inactive)
REMARK    1  A    between atoms: C_1  and  O_2
REMARK    2  A    between atoms: O_2  and  C_3
REMARK    3  A    between atoms: C_6  and  C_7
REMARK    4  A    between atoms: C_8  and  C_9
REMARK    5  A    between atoms: C_9  and  C_11
REMARK                            x       y       z     vdW  Elec       q    Type
REMARK                         _______ _______ _______ _____ _____    ______ ____
ROOT
ATOM      1  C   UNL     1       5.057   5.176  17.252  0.00  0.00    +0.000 C 
ATOM      2  C   UNL     1       5.365   4.727  16.024  0.00  0.00    +0.000 C 
ENDROOT
BRANCH   1   6
ATOM      3  C   UNL     1       1.786   3.791  19.663  0.00  0.00    +0.000 A 
ATOM      4  C   UNL     1       2.848   4.501  20.221  0.00  0.00    +0.000 A 
ATOM      5  C   UNL     1       3.897   4.960  19.418  0.00  0.00    +0.000 A 
ATOM      6  C   UNL     1       3.917   4.689  18.044  0.00  0.00    +0.000 A 
ATOM      7  C   UNL     1       2.844   3.977  17.491  0.00  0.00    +0.000 A 
ATOM      8  C   UNL     1       1.790   3.523  18.296  0.00  0.00    +0.000 A 
BRANCH   3  10
ATOM      9  C   UNL     1       1.304   2.713  21.709  0.00  0.00    +0.000 C 
ATOM     10  O   UNL     1       0.826   3.381  20.546  0.00  0.00    +0.000 OA
ENDBRANCH   3  10
ENDBRANCH   1   6
BRANCH   2  11
ATOM     11  C   UNL     1       6.593   5.200  15.330  0.00  0.00    +0.000 C 
ATOM     12  O   UNL     1       7.403   5.946  15.868  0.00  0.00    +0.000 OA
BRANCH  11  13
ATOM     13  C   UNL     1       6.758   4.696  13.974  0.00  0.00    +0.000 A 
ATOM     14  C   UNL     1       7.634   5.083  12.911  0.00  0.00    +0.000 A 
ATOM     15  C   UNL     1       7.350   4.262  11.843  0.00  0.00    +0.000 A 
ATOM     16  O   UNL     1       6.361   3.395  12.167  0.00  0.00    +0.000 OA
ATOM     17  C   UNL     1       6.008   3.661  13.449  0.00  0.00    +0.000 A 
ENDBRANCH  11  13
ENDBRANCH   2  11
TORSDOF 4
ENDMDL
MODEL 5
REMARK VINA RESULT:      -6.4      3.719      5.096
REMARK  Name = 
REMARK  5 active torsions:
REMARK  status: ('A' for Active; 'I' for Inactive)
REMARK    1  A    between atoms: C_1  and  O_2
REMARK    2  A    between atoms: O_2  and  C_3
REMARK    3  A    between atoms: C_6  and  C_7
REMARK    4  A    between atoms: C_8  and  C_9
REMARK    5  A    between atoms: C_9  and  C_11
REMARK                            x       y       z     vdW  Elec       q    Type
REMARK                         _______ _______ _______ _____ _____    ______ ____
ROOT
ATOM      1  C   UNL     1       3.512   6.016  18.272  0.00  0.00    +0.000 C 
ATOM      2  C   UNL     1       4.268   5.400  19.196  0.00  0.00    +0.000 C 
ENDROOT
BRANCH   1   6
ATOM      3  C   UNL     1       1.166   9.503  19.145  0.00  0.00    +0.000 A 
ATOM      4  C   UNL     1       1.409   8.532  20.115  0.00  0.00    +0.000 A 
ATOM      5  C   UNL     1       2.190   7.411  19.818  0.00  0.00    +0.000 A 
ATOM      6  C   UNL     1       2.716   7.226  18.534  0.00  0.00    +0.000 A 
ATOM      7  C   UNL     1       2.470   8.208  17.566  0.00  0.00    +0.000 A 
ATOM      8  C   UNL     1       1.692   9.335  17.866  0.00  0.00    +0.000 A 
BRANCH   3  10
ATOM      9  C   UNL     1       0.965  11.436  20.489  0.00  0.00    +0.000 C 
ATOM     10  O   UNL     1       0.378  10.547  19.545  0.00  0.00    +0.000 OA
ENDBRANCH   3  10
ENDBRANCH   1   6
BRANCH   2  11
ATOM     11  C   UNL     1       5.120   4.239  18.826  0.00  0.00    +0.000 C 
ATOM     12  O   UNL     1       5.138   3.204  19.483  0.00  0.00    +0.000 OA
BRANCH  11  13
ATOM     13  C   UNL     1       5.915   4.425  17.620  0.00  0.00    +0.000 A 
ATOM     14  C   UNL     1       5.590   4.302  16.233  0.00  0.00    +0.000 A 
ATOM     15  C   UNL     1       6.738   4.590  15.529  0.00  0.00    +0.000 A 
ATOM     16  O   UNL     1       7.750   4.882  16.379  0.00  0.00    +0.000 OA
ATOM     17  C   UNL     1       7.250   4.780  17.637  0.00  0.00    +0.000 A 
ENDBRANCH  11  13
ENDBRANCH   2  11
TORSDOF 4
ENDMDL
MODEL 6
REMARK VINA RESULT:      -6.4      1.702      7.377
REMARK  Name = 
REMARK  5 active torsions:
REMARK  status: ('A' for Active; 'I' for Inactive)
REMARK    1  A    between atoms: C_1  and  O_2
REMARK    2  A    between atoms: O_2  and  C_3
REMARK    3  A    between atoms: C_6  and  C_7
REMARK    4  A    between atoms: C_8  and  C_9
REMARK    5  A    between atoms: C_9  and  C_11
REMARK                            x       y       z     vdW  Elec       q    Type
REMARK                         _______ _______ _______ _____ _____    ______ ____
ROOT
ATOM      1  C   UNL     1       3.645   5.088  18.405  0.00  0.00    +0.000 C 
ATOM      2  C   UNL     1       3.151   6.203  18.967  0.00  0.00    +0.000 C 
ENDROOT
BRANCH   1   6
ATOM      3  C   UNL     1       6.776   5.174  15.470  0.00  0.00    +0.000 A 
ATOM      4  C   UNL     1       6.693   6.142  16.469  0.00  0.00    +0.000 A 
ATOM      5  C   UNL     1       5.676   6.089  17.428  0.00  0.00    +0.000 A 
ATOM      6  C   UNL     1       4.704   5.081  17.384  0.00  0.00    +0.000 A 
ATOM      7  C   UNL     1       4.797   4.110  16.378  0.00  0.00    +0.000 A 
ATOM      8  C   UNL     1       5.821   4.162  15.421  0.00  0.00    +0.000 A 
BRANCH   3  10
ATOM      9  C   UNL     1       7.490   5.050  13.221  0.00  0.00    +0.000 C 
ATOM     10  O   UNL     1       7.802   5.336  14.580  0.00  0.00    +0.000 OA
ENDBRANCH   3  10
ENDBRANCH   1   6
BRANCH   2  11
ATOM     11  C   UNL     1       2.150   6.120  20.064  0.00  0.00    +0.000 C 
ATOM     12  O   UNL     1       1.580   7.110  20.508  0.00  0.00    +0.000 OA
BRANCH  11  13
ATOM     13  C   UNL     1       1.893   4.772  20.554  0.00  0.00    +0.000 A 
ATOM     14  C   UNL     1       1.007   3.744  20.102  0.00  0.00    +0.000 A 
ATOM     15  C   UNL     1       1.176   2.673  20.950  0.00  0.00    +0.000 A 
ATOM     16  O   UNL     1       2.102   2.963  21.895  0.00  0.00    +0.000 OA
ATOM     17  C   UNL     1       2.529   4.228  21.653  0.00  0.00    +0.000 A 
ENDBRANCH  11  13
ENDBRANCH   2  11
TORSDOF 4
ENDMDL
MODEL 7
REMARK VINA RESULT:      -6.4      1.734      7.470
REMARK  Name = 
REMARK  5 active torsions:
REMARK  status: ('A' for Active; 'I' for Inactive)
REMARK    1  A    between atoms: C_1  and  O_2
REMARK    2  A    between atoms: O_2  and  C_3
REMARK    3  A    between atoms: C_6  and  C_7
REMARK    4  A    between atoms: C_8  and  C_9
REMARK    5  A    between atoms: C_9  and  C_11
REMARK                            x       y       z     vdW  Elec       q    Type
REMARK                         _______ _______ _______ _____ _____    ______ ____
ROOT
ATOM      1  C   UNL     1       3.456   5.303  18.397  0.00  0.00    +0.000 C 
ATOM      2  C   UNL     1       3.208   6.230  19.337  0.00  0.00    +0.000 C 
ENDROOT
BRANCH   1   6
ATOM      3  C   UNL     1       6.769   5.336  15.668  0.00  0.00    +0.000 A 
ATOM      4  C   UNL     1       5.712   4.441  15.513  0.00  0.00    +0.000 A 
ATOM      5  C   UNL     1       4.632   4.455  16.401  0.00  0.00    +0.000 A 
ATOM      6  C   UNL     1       4.606   5.348  17.481  0.00  0.00    +0.000 A 
ATOM      7  C   UNL     1       5.671   6.246  17.627  0.00  0.00    +0.000 A 
ATOM      8  C   UNL     1       6.751   6.234  16.732  0.00  0.00    +0.000 A 
BRANCH   3  10
ATOM      9  C   UNL     1       7.366   4.885  13.427  0.00  0.00    +0.000 C 
ATOM     10  O   UNL     1       7.775   5.219  14.749  0.00  0.00    +0.000 OA
ENDBRANCH   3  10
ENDBRANCH   1   6
BRANCH   2  11
ATOM     11  C   UNL     1       2.078   6.060  20.289  0.00  0.00    +0.000 C 
ATOM     12  O   UNL     1       1.400   7.005  20.676  0.00  0.00    +0.000 OA
BRANCH  11  13
ATOM     13  C   UNL     1       1.837   4.687  20.711  0.00  0.00    +0.000 A 
ATOM     14  C   UNL     1       0.914   3.695  20.253  0.00  0.00    +0.000 A 
ATOM     15  C   UNL     1       1.123   2.572  21.022  0.00  0.00    +0.000 A 
ATOM     16  O   UNL     1       2.109   2.797  21.923  0.00  0.00    +0.000 OA
ATOM     17  C   UNL     1       2.534   4.071  21.733  0.00  0.00    +0.000 A 
ENDBRANCH  11  13
ENDBRANCH   2  11
TORSDOF 4
ENDMDL
MODEL 8
REMARK VINA RESULT:      -6.4      3.588      4.677
REMARK  Name = 
REMARK  5 active torsions:
REMARK  status: ('A' for Active; 'I' for Inactive)
REMARK    1  A    between atoms: C_1  and  O_2
REMARK    2  A    between atoms: O_2  and  C_3
REMARK    3  A    between atoms: C_6  and  C_7
REMARK    4  A    between atoms: C_8  and  C_9
REMARK    5  A    between atoms: C_9  and  C_11
REMARK                            x       y       z     vdW  Elec       q    Type
REMARK                         _______ _______ _______ _____ _____    ______ ____
ROOT
ATOM      1  C   UNL     1       3.299   5.846  18.484  0.00  0.00    +0.000 C 
ATOM      2  C   UNL     1       3.979   5.788  17.327  0.00  0.00    +0.000 C 
ENDROOT
BRANCH   1   6
ATOM      3  C   UNL     1       1.117   9.338  19.696  0.00  0.00    +0.000 A 
ATOM      4  C   UNL     1       1.619   9.211  18.402  0.00  0.00    +0.000 A 
ATOM      5  C   UNL     1       2.313   8.058  18.019  0.00  0.00    +0.000 A 
ATOM      6  C   UNL     1       2.543   7.025  18.936  0.00  0.00    +0.000 A 
ATOM      7  C   UNL     1       2.032   7.160  20.233  0.00  0.00    +0.000 A 
ATOM      8  C   UNL     1       1.331   8.314  20.614  0.00  0.00    +0.000 A 
BRANCH   3  10
ATOM      9  C   UNL     1       0.349  11.411  18.862  0.00  0.00    +0.000 C 
ATOM     10  O   UNL     1       0.469  10.513  19.960  0.00  0.00    +0.000 OA
ENDBRANCH   3  10
ENDBRANCH   1   6
BRANCH   2  11
ATOM     11  C   UNL     1       4.636   4.525  16.896  0.00  0.00    +0.000 C 
ATOM     12  O   UNL     1       4.330   3.435  17.365  0.00  0.00    +0.000 OA
BRANCH  11  13
ATOM     13  C   UNL     1       5.655   4.688  15.868  0.00  0.00    +0.000 A 
ATOM     14  C   UNL     1       5.717   4.254  14.507  0.00  0.00    +0.000 A 
ATOM     15  C   UNL     1       6.925   4.685  14.007  0.00  0.00    +0.000 A 
ATOM     16  O   UNL     1       7.617   5.353  14.960  0.00  0.00    +0.000 OA
ATOM     17  C   UNL     1       6.849   5.351  16.079  0.00  0.00    +0.000 A 
ENDBRANCH  11  13
ENDBRANCH   2  11
TORSDOF 4
ENDMDL
MODEL 9
REMARK VINA RESULT:      -6.3      6.152      8.877
REMARK  Name = 
REMARK  5 active torsions:
REMARK  status: ('A' for Active; 'I' for Inactive)
REMARK    1  A    between atoms: C_1  and  O_2
REMARK    2  A    between atoms: O_2  and  C_3
REMARK    3  A    between atoms: C_6  and  C_7
REMARK    4  A    between atoms: C_8  and  C_9
REMARK    5  A    between atoms: C_9  and  C_11
REMARK                            x       y       z     vdW  Elec       q    Type
REMARK                         _______ _______ _______ _____ _____    ______ ____
ROOT
ATOM      1  C   UNL     1       7.855   9.057  17.670  0.00  0.00    +0.000 C 
ATOM      2  C   UNL     1       8.034   7.766  17.997  0.00  0.00    +0.000 C 
ENDROOT
BRANCH   1   6
ATOM      3  C   UNL     1      10.016  12.372  19.333  0.00  0.00    +0.000 A 
ATOM      4  C   UNL     1       9.250  12.513  18.177  0.00  0.00    +0.000 A 
ATOM      5  C   UNL     1       8.538  11.427  17.659  0.00  0.00    +0.000 A 
ATOM      6  C   UNL     1       8.606  10.169  18.273  0.00  0.00    +0.000 A 
ATOM      7  C   UNL     1       9.375  10.037  19.436  0.00  0.00    +0.000 A 
ATOM      8  C   UNL     1      10.084  11.129  19.958  0.00  0.00    +0.000 A 
BRANCH   3  10
ATOM      9  C   UNL     1      12.095  13.462  19.599  0.00  0.00    +0.000 C 
ATOM     10  O   UNL     1      10.679  13.498  19.738  0.00  0.00    +0.000 OA
ENDBRANCH   3  10
ENDBRANCH   1   6
BRANCH   2  11
ATOM     11  C   UNL     1       7.305   6.693  17.271  0.00  0.00    +0.000 C 
ATOM     12  O   UNL     1       7.693   6.248  16.197  0.00  0.00    +0.000 OA
BRANCH  11  13
ATOM     13  C   UNL     1       6.108   6.206  17.944  0.00  0.00    +0.000 A 
ATOM     14  C   UNL     1       4.716   6.395  17.674  0.00  0.00    +0.000 A 
ATOM     15  C   UNL     1       4.026   5.704  18.644  0.00  0.00    +0.000 A 
ATOM     16  O   UNL     1       4.888   5.102  19.496  0.00  0.00    +0.000 OA
ATOM     17  C   UNL     1       6.140   5.408  19.071  0.00  0.00    +0.000 A 
ENDBRANCH  11  13
ENDBRANCH   2  11
TORSDOF 4
ENDMDL
