MODEL 1
REMARK VINA RESULT:      -7.7      0.000      0.000
REMARK  Name = 
REMARK  6 active torsions:
REMARK  status: ('A' for Active; 'I' for Inactive)
REMARK    1  A    between atoms: C_1  and  O_2
REMARK    2  A    between atoms: O_2  and  C_3
REMARK    3  A    between atoms: C_6  and  O_7
REMARK    4  A    between atoms: O_7  and  C_8
REMARK    5  A    between atoms: C_9  and  N_10
REMARK    6  A    between atoms: C_13  and  C_14
REMARK                            x       y       z     vdW  Elec       q    Type
REMARK                         _______ _______ _______ _____ _____    ______ ____
ROOT
ATOM      1  N   UNL     1       5.292   3.273  16.829  0.00  0.00    +0.000 N 
ATOM      2  C   UNL     1       4.443   3.868  17.821  0.00  0.00    +0.000 A 
ATOM      3  C   UNL     1       3.845   2.920  18.641  0.00  0.00    +0.000 A 
ATOM      4  C   UNL     1       2.635   3.253  19.218  0.00  0.00    +0.000 A 
ATOM      5  C   UNL     1       1.454   2.355  18.944  0.00  0.00    +0.000 C 
ATOM      6  C   UNL     1       2.415   4.585  19.550  0.00  0.00    +0.000 A 
ATOM      7  C   UNL     1       1.471   4.937  20.535  0.00  0.00    +0.000 A 
ATOM      8  C   UNL     1       1.252   6.273  20.850  0.00  0.00    +0.000 A 
ATOM      9  C   UNL     1       1.948   7.238  20.137  0.00  0.00    +0.000 A 
ATOM     10  C   UNL     1       2.880   6.869  19.143  0.00  0.00    +0.000 A 
ATOM     11  C   UNL     1       3.175   5.537  18.850  0.00  0.00    +0.000 A 
ATOM     12  N   UNL     1       4.111   5.177  17.918  0.00  0.00    +0.000 NA
ATOM     13  H   UNL     1       4.802   2.436  16.548  0.00  0.00    +0.000 HD
ENDROOT
BRANCH   1  18
ATOM     14  C   UNL     1       6.182   3.845  13.238  0.00  0.00    +0.000 A 
ATOM     15  C   UNL     1       7.182   4.800  13.351  0.00  0.00    +0.000 A 
ATOM     16  C   UNL     1       7.579   5.241  14.608  0.00  0.00    +0.000 A 
ATOM     17  C   UNL     1       6.990   4.738  15.779  0.00  0.00    +0.000 A 
ATOM     18  C   UNL     1       5.979   3.744  15.690  0.00  0.00    +0.000 A 
ATOM     19  C   UNL     1       5.579   3.329  14.399  0.00  0.00    +0.000 A 
BRANCH  14  21
ATOM     20  C   UNL     1       4.507   3.248  11.668  0.00  0.00    +0.000 C 
ATOM     21  O   UNL     1       5.873   3.506  11.951  0.00  0.00    +0.000 OA
ENDBRANCH  14  21
BRANCH  17  22
ATOM     22  O   UNL     1       7.552   5.359  16.862  0.00  0.00    +0.000 OA
ATOM     23  C   UNL     1       7.270   6.686  17.244  0.00  0.00    +0.000 C 
ENDBRANCH  17  22
ENDBRANCH   1  18
TORSDOF 3
ENDMDL
MODEL 2
REMARK VINA RESULT:      -7.5      3.554      6.028
REMARK  Name = 
REMARK  6 active torsions:
REMARK  status: ('A' for Active; 'I' for Inactive)
REMARK    1  A    between atoms: C_1  and  O_2
REMARK    2  A    between atoms: O_2  and  C_3
REMARK    3  A    between atoms: C_6  and  O_7
REMARK    4  A    between atoms: O_7  and  C_8
REMARK    5  A    between atoms: C_9  and  N_10
REMARK    6  A    between atoms: C_13  and  C_14
REMARK                            x       y       z     vdW  Elec       q    Type
REMARK                         _______ _______ _______ _____ _____    ______ ____
ROOT
ATOM      1  N   UNL     1       2.737   7.041  18.037  0.00  0.00    +0.000 N 
ATOM      2  C   UNL     1       1.952   7.982  18.783  0.00  0.00    +0.000 A 
ATOM      3  C   UNL     1       1.586   9.084  18.020  0.00  0.00    +0.000 A 
ATOM      4  C   UNL     1       1.353  10.270  18.689  0.00  0.00    +0.000 A 
ATOM      5  C   UNL     1       2.168  11.475  18.288  0.00  0.00    +0.000 C 
ATOM      6  C   UNL     1       0.823  10.203  19.972  0.00  0.00    +0.000 A 
ATOM      7  C   UNL     1       0.126  11.296  20.524  0.00  0.00    +0.000 A 
ATOM      8  C   UNL     1      -0.390  11.220  21.812  0.00  0.00    +0.000 A 
ATOM      9  C   UNL     1      -0.157  10.066  22.546  0.00  0.00    +0.000 A 
ATOM     10  C   UNL     1       0.556   8.985  21.983  0.00  0.00    +0.000 A 
ATOM     11  C   UNL     1       1.027   9.001  20.670  0.00  0.00    +0.000 A 
ATOM     12  N   UNL     1       1.679   7.936  20.108  0.00  0.00    +0.000 NA
ATOM     13  H   UNL     1       3.332   7.613  17.457  0.00  0.00    +0.000 HD
ENDROOT
BRANCH   1  18
ATOM     14  C   UNL     1       5.659   4.790  18.677  0.00  0.00    +0.000 A 
ATOM     15  C   UNL     1       5.032   3.658  19.176  0.00  0.00    +0.000 A 
ATOM     16  C   UNL     1       3.646   3.626  19.283  0.00  0.00    +0.000 A 
ATOM     17  C   UNL     1       2.857   4.720  18.892  0.00  0.00    +0.000 A 
ATOM     18  C   UNL     1       3.475   5.882  18.358  0.00  0.00    +0.000 A 
ATOM     19  C   UNL     1       4.887   5.897  18.281  0.00  0.00    +0.000 A 
BRANCH  14  21
ATOM     20  C   UNL     1       7.750   5.823  19.114  0.00  0.00    +0.000 C 
ATOM     21  O   UNL     1       7.023   4.703  18.635  0.00  0.00    +0.000 OA
ENDBRANCH  14  21
BRANCH  17  22
ATOM     22  O   UNL     1       1.540   4.424  19.126  0.00  0.00    +0.000 OA
ATOM     23  C   UNL     1       1.017   4.106  20.395  0.00  0.00    +0.000 C 
ENDBRANCH  17  22
ENDBRANCH   1  18
TORSDOF 3
ENDMDL
MODEL 3
REMARK VINA RESULT:      -7.3      3.737      6.430
REMARK  Name = 
REMARK  6 active torsions:
REMARK  status: ('A' for Active; 'I' for Inactive)
REMARK    1  A    between atoms: C_1  and  O_2
REMARK    2  A    between atoms: O_2  and  C_3
REMARK    3  A    between atoms: C_6  and  O_7
REMARK    4  A    between atoms: O_7  and  C_8
REMARK    5  A    between atoms: C_9  and  N_10
REMARK    6  A    between atoms: C_13  and  C_14
REMARK                            x       y       z     vdW  Elec       q    Type
REMARK                         _______ _______ _______ _____ _____    ______ ____
ROOT
ATOM      1  N   UNL     1       2.208   7.045  20.562  0.00  0.00    +0.000 N 
ATOM      2  C   UNL     1       1.598   8.344  20.565  0.00  0.00    +0.000 A 
ATOM      3  C   UNL     1       1.433   8.846  21.850  0.00  0.00    +0.000 A 
ATOM      4  C   UNL     1       0.407   9.747  22.052  0.00  0.00    +0.000 A 
ATOM      5  C   UNL     1      -0.635   9.407  23.090  0.00  0.00    +0.000 C 
ATOM      6  C   UNL     1       0.072  10.601  21.007  0.00  0.00    +0.000 A 
ATOM      7  C   UNL     1      -0.588  11.821  21.254  0.00  0.00    +0.000 A 
ATOM      8  C   UNL     1      -0.926  12.661  20.200  0.00  0.00    +0.000 A 
ATOM      9  C   UNL     1      -0.641  12.242  18.909  0.00  0.00    +0.000 A 
ATOM     10  C   UNL     1       0.009  11.009  18.677  0.00  0.00    +0.000 A 
ATOM     11  C   UNL     1       0.424  10.175  19.715  0.00  0.00    +0.000 A 
ATOM     12  N   UNL     1       1.094   9.001  19.495  0.00  0.00    +0.000 NA
ATOM     13  H   UNL     1       1.805   6.576  21.359  0.00  0.00    +0.000 HD
ENDROOT
BRANCH   1  18
ATOM     14  C   UNL     1       3.668   5.314  17.581  0.00  0.00    +0.000 A 
ATOM     15  C   UNL     1       3.114   4.048  17.698  0.00  0.00    +0.000 A 
ATOM     16  C   UNL     1       2.243   3.768  18.745  0.00  0.00    +0.000 A 
ATOM     17  C   UNL     1       1.905   4.745  19.696  0.00  0.00    +0.000 A 
ATOM     18  C   UNL     1       2.443   6.055  19.584  0.00  0.00    +0.000 A 
ATOM     19  C   UNL     1       3.342   6.307  18.523  0.00  0.00    +0.000 A 
BRANCH  14  21
ATOM     20  C   UNL     1       5.308   6.636  16.488  0.00  0.00    +0.000 C 
ATOM     21  O   UNL     1       4.517   5.458  16.519  0.00  0.00    +0.000 OA
ENDBRANCH  14  21
BRANCH  17  22
ATOM     22  O   UNL     1       1.056   4.194  20.618  0.00  0.00    +0.000 OA
ATOM     23  C   UNL     1       1.257   2.936  21.220  0.00  0.00    +0.000 C 
ENDBRANCH  17  22
ENDBRANCH   1  18
TORSDOF 3
ENDMDL
MODEL 4
REMARK VINA RESULT:      -7.3      1.334      1.806
REMARK  Name = 
REMARK  6 active torsions:
REMARK  status: ('A' for Active; 'I' for Inactive)
REMARK    1  A    between atoms: C_1  and  O_2
REMARK    2  A    between atoms: O_2  and  C_3
REMARK    3  A    between atoms: C_6  and  O_7
REMARK    4  A    between atoms: O_7  and  C_8
REMARK    5  A    between atoms: C_9  and  N_10
REMARK    6  A    between atoms: C_13  and  C_14
REMARK                            x       y       z     vdW  Elec       q    Type
REMARK                         _______ _______ _______ _____ _____    ______ ____
ROOT
ATOM      1  N   UNL     1       4.957   4.580  18.033  0.00  0.00    +0.000 N 
ATOM      2  C   UNL     1       4.057   5.479  18.696  0.00  0.00    +0.000 A 
ATOM      3  C   UNL     1       3.541   4.940  19.868  0.00  0.00    +0.000 A 
ATOM      4  C   UNL     1       2.306   5.395  20.286  0.00  0.00    +0.000 A 
ATOM      5  C   UNL     1       1.208   4.376  20.474  0.00  0.00    +0.000 C 
ATOM      6  C   UNL     1       1.969   6.715  20.013  0.00  0.00    +0.000 A 
ATOM      7  C   UNL     1       0.997   7.386  20.780  0.00  0.00    +0.000 A 
ATOM      8  C   UNL     1       0.661   8.703  20.490  0.00  0.00    +0.000 A 
ATOM      9  C   UNL     1       1.272   9.312  19.403  0.00  0.00    +0.000 A 
ATOM     10  C   UNL     1       2.235   8.621  18.636  0.00  0.00    +0.000 A 
ATOM     11  C   UNL     1       2.645   7.323  18.942  0.00  0.00    +0.000 A 
ATOM     12  N   UNL     1       3.611   6.667  18.226  0.00  0.00    +0.000 NA
ATOM     13  H   UNL     1       4.542   3.669  18.162  0.00  0.00    +0.000 HD
ENDROOT
BRANCH   1  18
ATOM     14  C   UNL     1       5.493   4.146  14.354  0.00  0.00    +0.000 A 
ATOM     15  C   UNL     1       6.766   4.673  14.196  0.00  0.00    +0.000 A 
ATOM     16  C   UNL     1       7.458   5.152  15.303  0.00  0.00    +0.000 A 
ATOM     17  C   UNL     1       6.896   5.113  16.589  0.00  0.00    +0.000 A 
ATOM     18  C   UNL     1       5.602   4.559  16.779  0.00  0.00    +0.000 A 
ATOM     19  C   UNL     1       4.912   4.099  15.634  0.00  0.00    +0.000 A 
BRANCH  14  21
ATOM     20  C   UNL     1       5.785   3.233  12.183  0.00  0.00    +0.000 C 
ATOM     21  O   UNL     1       4.914   3.723  13.190  0.00  0.00    +0.000 OA
ENDBRANCH  14  21
BRANCH  17  22
ATOM     22  O   UNL     1       7.780   5.666  17.477  0.00  0.00    +0.000 OA
ATOM     23  C   UNL     1       7.679   6.981  17.976  0.00  0.00    +0.000 C 
ENDBRANCH  17  22
ENDBRANCH   1  18
TORSDOF 3
ENDMDL
MODEL 5
REMARK VINA RESULT:      -7.2      3.349      6.041
REMARK  Name = 
REMARK  6 active torsions:
REMARK  status: ('A' for Active; 'I' for Inactive)
REMARK    1  A    between atoms: C_1  and  O_2
REMARK    2  A    between atoms: O_2  and  C_3
REMARK    3  A    between atoms: C_6  and  O_7
REMARK    4  A    between atoms: O_7  and  C_8
REMARK    5  A    between atoms: C_9  and  N_10
REMARK    6  A    between atoms: C_13  and  C_14
REMARK                            x       y       z     vdW  Elec       q    Type
REMARK                         _______ _______ _______ _____ _____    ______ ____
ROOT
ATOM      1  N   UNL     1       2.625   7.277  18.346  0.00  0.00    +0.000 N 
ATOM      2  C   UNL     1       1.802   8.178  19.100  0.00  0.00    +0.000 A 
ATOM      3  C   UNL     1       1.375   9.261  18.342  0.00  0.00    +0.000 A 
ATOM      4  C   UNL     1       1.090  10.434  19.014  0.00  0.00    +0.000 A 
ATOM      5  C   UNL     1       1.842  11.678  18.607  0.00  0.00    +0.000 C 
ATOM      6  C   UNL     1       0.576  10.340  20.302  0.00  0.00    +0.000 A 
ATOM      7  C   UNL     1      -0.168  11.397  20.861  0.00  0.00    +0.000 A 
ATOM      8  C   UNL     1      -0.667  11.296  22.154  0.00  0.00    +0.000 A 
ATOM      9  C   UNL     1      -0.371  10.154  22.884  0.00  0.00    +0.000 A 
ATOM     10  C   UNL     1       0.388   9.109  22.314  0.00  0.00    +0.000 A 
ATOM     11  C   UNL     1       0.846   9.149  20.997  0.00  0.00    +0.000 A 
ATOM     12  N   UNL     1       1.544   8.118  20.427  0.00  0.00    +0.000 NA
ATOM     13  H   UNL     1       3.186   7.878  17.761  0.00  0.00    +0.000 HD
ENDROOT
BRANCH   1  18
ATOM     14  C   UNL     1       3.624   3.927  19.687  0.00  0.00    +0.000 A 
ATOM     15  C   UNL     1       4.899   3.788  19.159  0.00  0.00    +0.000 A 
ATOM     16  C   UNL     1       5.440   4.803  18.380  0.00  0.00    +0.000 A 
ATOM     17  C   UNL     1       4.722   5.980  18.112  0.00  0.00    +0.000 A 
ATOM     18  C   UNL     1       3.423   6.156  18.659  0.00  0.00    +0.000 A 
ATOM     19  C   UNL     1       2.888   5.098  19.431  0.00  0.00    +0.000 A 
BRANCH  14  21
ATOM     20  C   UNL     1       2.277   3.120  21.466  0.00  0.00    +0.000 C 
ATOM     21  O   UNL     1       3.201   2.855  20.423  0.00  0.00    +0.000 OA
ENDBRANCH  14  21
BRANCH  17  22
ATOM     22  O   UNL     1       5.479   6.790  17.308  0.00  0.00    +0.000 OA
ATOM     23  C   UNL     1       6.881   6.902  17.399  0.00  0.00    +0.000 C 
ENDBRANCH  17  22
ENDBRANCH   1  18
TORSDOF 3
ENDMDL
MODEL 6
REMARK VINA RESULT:      -7.2      4.202      7.172
REMARK  Name = 
REMARK  6 active torsions:
REMARK  status: ('A' for Active; 'I' for Inactive)
REMARK    1  A    between atoms: C_1  and  O_2
REMARK    2  A    between atoms: O_2  and  C_3
REMARK    3  A    between atoms: C_6  and  O_7
REMARK    4  A    between atoms: O_7  and  C_8
REMARK    5  A    between atoms: C_9  and  N_10
REMARK    6  A    between atoms: C_13  and  C_14
REMARK                            x       y       z     vdW  Elec       q    Type
REMARK                         _______ _______ _______ _____ _____    ______ ____
ROOT
ATOM      1  N   UNL     1       1.856   7.611  20.885  0.00  0.00    +0.000 N 
ATOM      2  C   UNL     1       1.113   8.818  20.661  0.00  0.00    +0.000 A 
ATOM      3  C   UNL     1       1.070   9.627  21.789  0.00  0.00    +0.000 A 
ATOM      4  C   UNL     1      -0.012  10.475  21.920  0.00  0.00    +0.000 A 
ATOM      5  C   UNL     1      -0.860  10.347  23.163  0.00  0.00    +0.000 C 
ATOM      6  C   UNL     1      -0.577  10.998  20.763  0.00  0.00    +0.000 A 
ATOM      7  C   UNL     1      -1.328  12.189  20.800  0.00  0.00    +0.000 A 
ATOM      8  C   UNL     1      -1.897  12.695  19.637  0.00  0.00    +0.000 A 
ATOM      9  C   UNL     1      -1.745  11.972  18.463  0.00  0.00    +0.000 A 
ATOM     10  C   UNL     1      -1.001  10.772  18.446  0.00  0.00    +0.000 A 
ATOM     11  C   UNL     1      -0.360  10.272  19.579  0.00  0.00    +0.000 A 
ATOM     12  N   UNL     1       0.399   9.133  19.555  0.00  0.00    +0.000 NA
ATOM     13  H   UNL     1       1.619   7.341  21.828  0.00  0.00    +0.000 HD
ENDROOT
BRANCH   1  18
ATOM     14  C   UNL     1       1.687   3.996  19.927  0.00  0.00    +0.000 A 
ATOM     15  C   UNL     1       2.270   4.017  18.669  0.00  0.00    +0.000 A 
ATOM     16  C   UNL     1       2.739   5.215  18.143  0.00  0.00    +0.000 A 
ATOM     17  C   UNL     1       2.638   6.418  18.861  0.00  0.00    +0.000 A 
ATOM     18  C   UNL     1       2.064   6.418  20.160  0.00  0.00    +0.000 A 
ATOM     19  C   UNL     1       1.576   5.190  20.663  0.00  0.00    +0.000 A 
BRANCH  14  21
ATOM     20  C   UNL     1       1.514   2.396  21.670  0.00  0.00    +0.000 C 
ATOM     21  O   UNL     1       1.254   2.762  20.325  0.00  0.00    +0.000 OA
ENDBRANCH  14  21
BRANCH  17  22
ATOM     22  O   UNL     1       3.153   7.434  18.101  0.00  0.00    +0.000 OA
ATOM     23  C   UNL     1       4.222   7.276  17.196  0.00  0.00    +0.000 C 
ENDBRANCH  17  22
ENDBRANCH   1  18
TORSDOF 3
ENDMDL
MODEL 7
REMARK VINA RESULT:      -7.0      4.004      7.412
REMARK  Name = 
REMARK  6 active torsions:
REMARK  status: ('A' for Active; 'I' for Inactive)
REMARK    1  A    between atoms: C_1  and  O_2
REMARK    2  A    between atoms: O_2  and  C_3
REMARK    3  A    between atoms: C_6  and  O_7
REMARK    4  A    between atoms: O_7  and  C_8
REMARK    5  A    between atoms: C_9  and  N_10
REMARK    6  A    between atoms: C_13  and  C_14
REMARK                            x       y       z     vdW  Elec       q    Type
REMARK                         _______ _______ _______ _____ _____    ______ ____
ROOT
ATOM      1  N   UNL     1       2.504   8.385  18.565  0.00  0.00    +0.000 N 
ATOM      2  C   UNL     1       2.841   7.000  18.401  0.00  0.00    +0.000 A 
ATOM      3  C   UNL     1       4.152   6.823  17.977  0.00  0.00    +0.000 A 
ATOM      4  C   UNL     1       4.437   5.680  17.257  0.00  0.00    +0.000 A 
ATOM      5  C   UNL     1       5.031   5.845  15.880  0.00  0.00    +0.000 C 
ATOM      6  C   UNL     1       3.724   4.525  17.556  0.00  0.00    +0.000 A 
ATOM      7  C   UNL     1       4.243   3.253  17.244  0.00  0.00    +0.000 A 
ATOM      8  C   UNL     1       3.515   2.107  17.538  0.00  0.00    +0.000 A 
ATOM      9  C   UNL     1       2.254   2.256  18.097  0.00  0.00    +0.000 A 
ATOM     10  C   UNL     1       1.742   3.538  18.391  0.00  0.00    +0.000 A 
ATOM     11  C   UNL     1       2.474   4.705  18.173  0.00  0.00    +0.000 A 
ATOM     12  N   UNL     1       1.997   5.947  18.498  0.00  0.00    +0.000 NA
ATOM     13  H   UNL     1       2.972   8.850  17.800  0.00  0.00    +0.000 HD
ENDROOT
BRANCH   1  18
ATOM     14  C   UNL     1      -0.779  10.073  17.943  0.00  0.00    +0.000 A 
ATOM     15  C   UNL     1      -1.192  10.359  19.236  0.00  0.00    +0.000 A 
ATOM     16  C   UNL     1      -0.382  10.016  20.312  0.00  0.00    +0.000 A 
ATOM     17  C   UNL     1       0.858   9.383  20.122  0.00  0.00    +0.000 A 
ATOM     18  C   UNL     1       1.311   9.100  18.806  0.00  0.00    +0.000 A 
ATOM     19  C   UNL     1       0.459   9.440  17.731  0.00  0.00    +0.000 A 
BRANCH  14  21
ATOM     20  C   UNL     1      -2.981   9.917  17.074  0.00  0.00    +0.000 C 
ATOM     21  O   UNL     1      -1.669  10.447  16.975  0.00  0.00    +0.000 OA
ENDBRANCH  14  21
BRANCH  17  22
ATOM     22  O   UNL     1       1.427   9.144  21.344  0.00  0.00    +0.000 OA
ATOM     23  C   UNL     1       0.756   9.310  22.572  0.00  0.00    +0.000 C 
ENDBRANCH  17  22
ENDBRANCH   1  18
TORSDOF 3
ENDMDL
MODEL 8
REMARK VINA RESULT:      -7.0      4.313      7.367
REMARK  Name = 
REMARK  6 active torsions:
REMARK  status: ('A' for Active; 'I' for Inactive)
REMARK    1  A    between atoms: C_1  and  O_2
REMARK    2  A    between atoms: O_2  and  C_3
REMARK    3  A    between atoms: C_6  and  O_7
REMARK    4  A    between atoms: O_7  and  C_8
REMARK    5  A    between atoms: C_9  and  N_10
REMARK    6  A    between atoms: C_13  and  C_14
REMARK                            x       y       z     vdW  Elec       q    Type
REMARK                         _______ _______ _______ _____ _____    ______ ____
ROOT
ATOM      1  N   UNL     1       2.247   8.361  18.728  0.00  0.00    +0.000 N 
ATOM      2  C   UNL     1       2.640   7.052  19.164  0.00  0.00    +0.000 A 
ATOM      3  C   UNL     1       3.732   6.566  18.456  0.00  0.00    +0.000 A 
ATOM      4  C   UNL     1       3.860   5.195  18.348  0.00  0.00    +0.000 A 
ATOM      5  C   UNL     1       3.918   4.601  16.962  0.00  0.00    +0.000 C 
ATOM      6  C   UNL     1       3.411   4.412  19.405  0.00  0.00    +0.000 A 
ATOM      7  C   UNL     1       3.912   3.111  19.603  0.00  0.00    +0.000 A 
ATOM      8  C   UNL     1       3.447   2.334  20.658  0.00  0.00    +0.000 A 
ATOM      9  C   UNL     1       2.451   2.857  21.470  0.00  0.00    +0.000 A 
ATOM     10  C   UNL     1       1.950   4.159  21.249  0.00  0.00    +0.000 A 
ATOM     11  C   UNL     1       2.443   4.990  20.244  0.00  0.00    +0.000 A 
ATOM     12  N   UNL     1       1.990   6.269  20.056  0.00  0.00    +0.000 NA
ATOM     13  H   UNL     1       2.371   8.340  17.727  0.00  0.00    +0.000 HD
ENDROOT
BRANCH   1  18
ATOM     14  C   UNL     1      -0.846  10.390  18.154  0.00  0.00    +0.000 A 
ATOM     15  C   UNL     1      -1.185  10.749  19.450  0.00  0.00    +0.000 A 
ATOM     16  C   UNL     1      -0.386  10.343  20.512  0.00  0.00    +0.000 A 
ATOM     17  C   UNL     1       0.769   9.572  20.304  0.00  0.00    +0.000 A 
ATOM     18  C   UNL     1       1.149   9.210  18.984  0.00  0.00    +0.000 A 
ATOM     19  C   UNL     1       0.307   9.618  17.924  0.00  0.00    +0.000 A 
BRANCH  14  21
ATOM     20  C   UNL     1      -2.685   9.913  16.732  0.00  0.00    +0.000 C 
ATOM     21  O   UNL     1      -1.718  10.839  17.201  0.00  0.00    +0.000 OA
ENDBRANCH  14  21
BRANCH  17  22
ATOM     22  O   UNL     1       1.345   9.298  21.516  0.00  0.00    +0.000 OA
ATOM     23  C   UNL     1       0.654   9.339  22.744  0.00  0.00    +0.000 C 
ENDBRANCH  17  22
ENDBRANCH   1  18
TORSDOF 3
ENDMDL
MODEL 9
REMARK VINA RESULT:      -6.8      3.420      5.855
REMARK  Name = 
REMARK  6 active torsions:
REMARK  status: ('A' for Active; 'I' for Inactive)
REMARK    1  A    between atoms: C_1  and  O_2
REMARK    2  A    between atoms: O_2  and  C_3
REMARK    3  A    between atoms: C_6  and  O_7
REMARK    4  A    between atoms: O_7  and  C_8
REMARK    5  A    between atoms: C_9  and  N_10
REMARK    6  A    between atoms: C_13  and  C_14
REMARK                            x       y       z     vdW  Elec       q    Type
REMARK                         _______ _______ _______ _____ _____    ______ ____
ROOT
ATOM      1  N   UNL     1       2.502   6.844  20.144  0.00  0.00    +0.000 N 
ATOM      2  C   UNL     1       1.778   8.082  20.137  0.00  0.00    +0.000 A 
ATOM      3  C   UNL     1       1.598   8.594  21.416  0.00  0.00    +0.000 A 
ATOM      4  C   UNL     1       0.500   9.405  21.626  0.00  0.00    +0.000 A 
ATOM      5  C   UNL     1      -0.483   8.994  22.696  0.00  0.00    +0.000 C 
ATOM      6  C   UNL     1       0.066  10.203  20.574  0.00  0.00    +0.000 A 
ATOM      7  C   UNL     1      -0.695  11.364  20.814  0.00  0.00    +0.000 A 
ATOM      8  C   UNL     1      -1.132  12.147  19.753  0.00  0.00    +0.000 A 
ATOM      9  C   UNL     1      -0.840  11.728  18.463  0.00  0.00    +0.000 A 
ATOM     10  C   UNL     1      -0.087  10.554  18.239  0.00  0.00    +0.000 A 
ATOM     11  C   UNL     1       0.425   9.783  19.282  0.00  0.00    +0.000 A 
ATOM     12  N   UNL     1       1.192   8.669  19.068  0.00  0.00    +0.000 NA
ATOM     13  H   UNL     1       2.161   6.357  20.960  0.00  0.00    +0.000 HD
ENDROOT
BRANCH   1  18
ATOM     14  C   UNL     1       2.232   3.724  18.091  0.00  0.00    +0.000 A 
ATOM     15  C   UNL     1       3.223   3.931  17.144  0.00  0.00    +0.000 A 
ATOM     16  C   UNL     1       3.995   5.086  17.190  0.00  0.00    +0.000 A 
ATOM     17  C   UNL     1       3.797   6.058  18.185  0.00  0.00    +0.000 A 
ATOM     18  C   UNL     1       2.802   5.858  19.179  0.00  0.00    +0.000 A 
ATOM     19  C   UNL     1       2.017   4.686  19.095  0.00  0.00    +0.000 A 
BRANCH  14  21
ATOM     20  C   UNL     1       0.635   2.203  18.965  0.00  0.00    +0.000 C 
ATOM     21  O   UNL     1       1.535   2.560  17.928  0.00  0.00    +0.000 OA
ENDBRANCH  14  21
BRANCH  17  22
ATOM     22  O   UNL     1       4.673   7.090  17.979  0.00  0.00    +0.000 OA
ATOM     23  C   UNL     1       5.832   6.993  17.182  0.00  0.00    +0.000 C 
ENDBRANCH  17  22
ENDBRANCH   1  18
TORSDOF 3
ENDMDL
