MODEL 1
REMARK VINA RESULT:      -6.4      0.000      0.000
REMARK  Name = 
REMARK  8 active torsions:
REMARK  status: ('A' for Active; 'I' for Inactive)
REMARK    1  A    between atoms: C_1  and  C_2
REMARK    2  A    between atoms: C_5  and  S_6
REMARK    3  A    between atoms: S_6  and  N_9
REMARK    4  A    between atoms: N_9  and  C_10
REMARK    5  A    between atoms: N_9  and  S_21
REMARK    6  A    between atoms: C_14  and  C_15
REMARK    7  A    between atoms: S_21  and  C_24
REMARK    8  A    between atoms: C_27  and  C_28
REMARK                            x       y       z     vdW  Elec       q    Type
REMARK                         _______ _______ _______ _____ _____    ______ ____
ROOT
ATOM      1  N   UNL     1      -1.407  14.389  22.089  0.00  0.00    +0.000 N 
ENDROOT
BRANCH   1   2
ATOM      2  C   UNL     1      -1.424  13.353  21.080  0.00  0.00    +0.000 A 
ATOM      3  S   UNL     1      -0.150  12.281  20.677  0.00  0.00    +0.000 S 
ATOM      4  C   UNL     1      -1.073  11.544  19.444  0.00  0.00    +0.000 A 
ATOM      5  C   UNL     1      -2.370  12.022  19.402  0.00  0.00    +0.000 A 
ATOM      6  C   UNL     1      -2.549  13.103  20.319  0.00  0.00    +0.000 A 
ATOM      7  C   UNL     1      -3.394  11.484  18.444  0.00  0.00    +0.000 C 
ATOM      8  C   UNL     1      -2.947  10.160  17.812  0.00  0.00    +0.000 C 
ATOM      9  C   UNL     1      -1.484  10.230  17.354  0.00  0.00    +0.000 C 
ATOM     10  C   UNL     1      -0.526  10.478  18.537  0.00  0.00    +0.000 C 
BRANCH   6  11
ATOM     11  C   UNL     1      -3.750  13.874  20.427  0.00  0.00    +0.000 C 
ATOM     12  N   UNL     1      -4.723  14.482  20.569  0.00  0.00    +0.000 NA
ENDBRANCH   6  11
ENDBRANCH   1   2
BRANCH   1  13
ATOM     13  S   UNL     1      -0.168  15.518  21.964  0.00  0.00    +0.000 S 
ATOM     14  O   UNL     1       1.122  14.890  22.156  0.00  0.00    +0.000 OA
ATOM     15  O   UNL     1      -0.544  16.681  22.743  0.00  0.00    +0.000 OA
BRANCH  13  20
ATOM     16  C   UNL     1       0.123  18.321  16.582  0.00  0.00    +0.000 C 
ATOM     17  C   UNL     1      -0.024  17.467  17.812  0.00  0.00    +0.000 A 
ATOM     18  C   UNL     1      -1.222  17.450  18.541  0.00  0.00    +0.000 A 
ATOM     19  C   UNL     1      -1.308  16.764  19.761  0.00  0.00    +0.000 A 
ATOM     20  C   UNL     1      -0.192  16.079  20.251  0.00  0.00    +0.000 A 
ATOM     21  C   UNL     1       0.994  16.050  19.505  0.00  0.00    +0.000 A 
ATOM     22  C   UNL     1       1.077  16.750  18.298  0.00  0.00    +0.000 A 
ENDBRANCH  13  20
ENDBRANCH   1  13
BRANCH   1  23
ATOM     23  S   UNL     1      -1.655  13.778  23.656  0.00  0.00    +0.000 S 
ATOM     24  O   UNL     1      -1.397  12.346  23.636  0.00  0.00    +0.000 OA
ATOM     25  O   UNL     1      -0.993  14.608  24.640  0.00  0.00    +0.000 OA
BRANCH  23  26
ATOM     26  C   UNL     1      -3.419  13.903  23.939  0.00  0.00    +0.000 A 
ATOM     27  C   UNL     1      -4.023  15.164  23.950  0.00  0.00    +0.000 A 
ATOM     28  C   UNL     1      -5.419  15.272  24.001  0.00  0.00    +0.000 A 
ATOM     29  C   UNL     1      -6.225  14.126  24.018  0.00  0.00    +0.000 A 
ATOM     30  C   UNL     1      -7.724  14.231  24.005  0.00  0.00    +0.000 C 
ATOM     31  C   UNL     1      -5.610  12.866  23.995  0.00  0.00    +0.000 A 
ATOM     32  C   UNL     1      -4.213  12.750  23.969  0.00  0.00    +0.000 A 
ENDBRANCH  23  26
ENDBRANCH   1  23
TORSDOF 6
ENDMDL
MODEL 2
REMARK VINA RESULT:      -6.3      2.499      6.389
REMARK  Name = 
REMARK  8 active torsions:
REMARK  status: ('A' for Active; 'I' for Inactive)
REMARK    1  A    between atoms: C_1  and  C_2
REMARK    2  A    between atoms: C_5  and  S_6
REMARK    3  A    between atoms: S_6  and  N_9
REMARK    4  A    between atoms: N_9  and  C_10
REMARK    5  A    between atoms: N_9  and  S_21
REMARK    6  A    between atoms: C_14  and  C_15
REMARK    7  A    between atoms: S_21  and  C_24
REMARK    8  A    between atoms: C_27  and  C_28
REMARK                            x       y       z     vdW  Elec       q    Type
REMARK                         _______ _______ _______ _____ _____    ______ ____
ROOT
ATOM      1  N   UNL     1      -1.760  13.741  21.186  0.00  0.00    +0.000 N 
ENDROOT
BRANCH   1   2
ATOM      2  C   UNL     1      -3.096  13.243  20.944  0.00  0.00    +0.000 A 
ATOM      3  S   UNL     1      -4.467  13.427  21.954  0.00  0.00    +0.000 S 
ATOM      4  C   UNL     1      -5.451  12.521  20.893  0.00  0.00    +0.000 A 
ATOM      5  C   UNL     1      -4.788  12.171  19.731  0.00  0.00    +0.000 A 
ATOM      6  C   UNL     1      -3.412  12.549  19.792  0.00  0.00    +0.000 A 
ATOM      7  C   UNL     1      -5.462  11.426  18.615  0.00  0.00    +0.000 C 
ATOM      8  C   UNL     1      -6.988  11.429  18.764  0.00  0.00    +0.000 C 
ATOM      9  C   UNL     1      -7.406  11.117  20.207  0.00  0.00    +0.000 C 
ATOM     10  C   UNL     1      -6.884  12.180  21.195  0.00  0.00    +0.000 C 
BRANCH   6  11
ATOM     11  C   UNL     1      -2.445  12.225  18.788  0.00  0.00    +0.000 C 
ATOM     12  N   UNL     1      -1.706  11.937  17.947  0.00  0.00    +0.000 NA
ENDBRANCH   6  11
ENDBRANCH   1   2
BRANCH   1  13
ATOM     13  S   UNL     1      -0.930  13.032  22.464  0.00  0.00    +0.000 S 
ATOM     14  O   UNL     1      -1.797  12.865  23.611  0.00  0.00    +0.000 OA
ATOM     15  O   UNL     1       0.346  13.708  22.598  0.00  0.00    +0.000 OA
BRANCH  13  20
ATOM     16  C   UNL     1       1.369   7.570  21.129  0.00  0.00    +0.000 C 
ATOM     17  C   UNL     1       0.638   8.867  21.347  0.00  0.00    +0.000 A 
ATOM     18  C   UNL     1       0.779   9.936  20.451  0.00  0.00    +0.000 A 
ATOM     19  C   UNL     1       0.210  11.186  20.733  0.00  0.00    +0.000 A 
ATOM     20  C   UNL     1      -0.518  11.366  21.913  0.00  0.00    +0.000 A 
ATOM     21  C   UNL     1      -0.706  10.289  22.790  0.00  0.00    +0.000 A 
ATOM     22  C   UNL     1      -0.120   9.051  22.511  0.00  0.00    +0.000 A 
ENDBRANCH  13  20
ENDBRANCH   1  13
BRANCH   1  23
ATOM     23  S   UNL     1      -1.678  15.438  21.141  0.00  0.00    +0.000 S 
ATOM     24  O   UNL     1      -2.770  15.929  20.313  0.00  0.00    +0.000 OA
ATOM     25  O   UNL     1      -1.495  15.977  22.472  0.00  0.00    +0.000 OA
BRANCH  23  26
ATOM     26  C   UNL     1      -0.205  15.816  20.195  0.00  0.00    +0.000 A 
ATOM     27  C   UNL     1       0.421  14.800  19.466  0.00  0.00    +0.000 A 
ATOM     28  C   UNL     1       1.469  15.110  18.590  0.00  0.00    +0.000 A 
ATOM     29  C   UNL     1       1.888  16.436  18.416  0.00  0.00    +0.000 A 
ATOM     30  C   UNL     1       2.966  16.786  17.430  0.00  0.00    +0.000 C 
ATOM     31  C   UNL     1       1.247  17.448  19.143  0.00  0.00    +0.000 A 
ATOM     32  C   UNL     1       0.214  17.144  20.040  0.00  0.00    +0.000 A 
ENDBRANCH  23  26
ENDBRANCH   1  23
TORSDOF 6
ENDMDL
MODEL 3
REMARK VINA RESULT:      -6.3      2.459      5.980
REMARK  Name = 
REMARK  8 active torsions:
REMARK  status: ('A' for Active; 'I' for Inactive)
REMARK    1  A    between atoms: C_1  and  C_2
REMARK    2  A    between atoms: C_5  and  S_6
REMARK    3  A    between atoms: S_6  and  N_9
REMARK    4  A    between atoms: N_9  and  C_10
REMARK    5  A    between atoms: N_9  and  S_21
REMARK    6  A    between atoms: C_14  and  C_15
REMARK    7  A    between atoms: S_21  and  C_24
REMARK    8  A    between atoms: C_27  and  C_28
REMARK                            x       y       z     vdW  Elec       q    Type
REMARK                         _______ _______ _______ _____ _____    ______ ____
ROOT
ATOM      1  N   UNL     1      -2.322  14.252  21.460  0.00  0.00    +0.000 N 
ENDROOT
BRANCH   1   2
ATOM      2  C   UNL     1      -3.468  13.469  21.053  0.00  0.00    +0.000 A 
ATOM      3  S   UNL     1      -4.965  13.324  21.871  0.00  0.00    +0.000 S 
ATOM      4  C   UNL     1      -5.573  12.235  20.704  0.00  0.00    +0.000 A 
ATOM      5  C   UNL     1      -4.701  12.061  19.645  0.00  0.00    +0.000 A 
ATOM      6  C   UNL     1      -3.466  12.739  19.880  0.00  0.00    +0.000 A 
ATOM      7  C   UNL     1      -5.037  11.200  18.461  0.00  0.00    +0.000 C 
ATOM      8  C   UNL     1      -6.531  10.857  18.408  0.00  0.00    +0.000 C 
ATOM      9  C   UNL     1      -7.053  10.437  19.789  0.00  0.00    +0.000 C 
ATOM     10  C   UNL     1      -6.918  11.575  20.821  0.00  0.00    +0.000 C 
BRANCH   6  11
ATOM     11  C   UNL     1      -2.328  12.656  19.015  0.00  0.00    +0.000 C 
ATOM     12  N   UNL     1      -1.440  12.559  18.281  0.00  0.00    +0.000 NA
ENDBRANCH   6  11
ENDBRANCH   1   2
BRANCH   1  13
ATOM     13  S   UNL     1      -1.445  13.650  22.761  0.00  0.00    +0.000 S 
ATOM     14  O   UNL     1      -2.307  13.421  23.901  0.00  0.00    +0.000 OA
ATOM     15  O   UNL     1      -0.243  14.449  22.897  0.00  0.00    +0.000 OA
BRANCH  13  20
ATOM     16  C   UNL     1       1.275   8.315  21.746  0.00  0.00    +0.000 C 
ATOM     17  C   UNL     1       0.471   9.581  21.851  0.00  0.00    +0.000 A 
ATOM     18  C   UNL     1       0.770  10.695  21.053  0.00  0.00    +0.000 A 
ATOM     19  C   UNL     1       0.110  11.917  21.252  0.00  0.00    +0.000 A 
ATOM     20  C   UNL     1      -0.866  12.023  22.247  0.00  0.00    +0.000 A 
ATOM     21  C   UNL     1      -1.205  10.902  23.016  0.00  0.00    +0.000 A 
ATOM     22  C   UNL     1      -0.531   9.692  22.823  0.00  0.00    +0.000 A 
ENDBRANCH  13  20
ENDBRANCH   1  13
BRANCH   1  23
ATOM     23  S   UNL     1      -2.664  15.915  21.542  0.00  0.00    +0.000 S 
ATOM     24  O   UNL     1      -4.054  16.117  21.162  0.00  0.00    +0.000 OA
ATOM     25  O   UNL     1      -2.175  16.477  22.783  0.00  0.00    +0.000 OA
BRANCH  23  26
ATOM     26  C   UNL     1      -1.731  16.656  20.205  0.00  0.00    +0.000 A 
ATOM     27  C   UNL     1      -0.694  15.932  19.609  0.00  0.00    +0.000 A 
ATOM     28  C   UNL     1      -0.067  16.425  18.457  0.00  0.00    +0.000 A 
ATOM     29  C   UNL     1      -0.481  17.631  17.878  0.00  0.00    +0.000 A 
ATOM     30  C   UNL     1       0.140  18.135  16.606  0.00  0.00    +0.000 C 
ATOM     31  C   UNL     1      -1.529  18.344  18.477  0.00  0.00    +0.000 A 
ATOM     32  C   UNL     1      -2.145  17.871  19.643  0.00  0.00    +0.000 A 
ENDBRANCH  23  26
ENDBRANCH   1  23
TORSDOF 6
ENDMDL
MODEL 4
REMARK VINA RESULT:      -6.2      2.547      6.243
REMARK  Name = 
REMARK  8 active torsions:
REMARK  status: ('A' for Active; 'I' for Inactive)
REMARK    1  A    between atoms: C_1  and  C_2
REMARK    2  A    between atoms: C_5  and  S_6
REMARK    3  A    between atoms: S_6  and  N_9
REMARK    4  A    between atoms: N_9  and  C_10
REMARK    5  A    between atoms: N_9  and  S_21
REMARK    6  A    between atoms: C_14  and  C_15
REMARK    7  A    between atoms: S_21  and  C_24
REMARK    8  A    between atoms: C_27  and  C_28
REMARK                            x       y       z     vdW  Elec       q    Type
REMARK                         _______ _______ _______ _____ _____    ______ ____
ROOT
ATOM      1  N   UNL     1      -0.311  11.805  20.712  0.00  0.00    +0.000 N 
ENDROOT
BRANCH   1   2
ATOM      2  C   UNL     1      -1.711  12.133  20.872  0.00  0.00    +0.000 A 
ATOM      3  S   UNL     1      -2.516  12.550  22.324  0.00  0.00    +0.000 S 
ATOM      4  C   UNL     1      -4.019  12.695  21.527  0.00  0.00    +0.000 A 
ATOM      5  C   UNL     1      -3.904  12.538  20.158  0.00  0.00    +0.000 A 
ATOM      6  C   UNL     1      -2.574  12.164  19.794  0.00  0.00    +0.000 A 
ATOM      7  C   UNL     1      -5.076  12.684  19.231  0.00  0.00    +0.000 C 
ATOM      8  C   UNL     1      -6.271  13.354  19.920  0.00  0.00    +0.000 C 
ATOM      9  C   UNL     1      -6.512  12.761  21.315  0.00  0.00    +0.000 C 
ATOM     10  C   UNL     1      -5.305  12.988  22.248  0.00  0.00    +0.000 C 
BRANCH   6  11
ATOM     11  C   UNL     1      -2.171  11.825  18.463  0.00  0.00    +0.000 C 
ATOM     12  N   UNL     1      -1.900  11.549  17.373  0.00  0.00    +0.000 NA
ENDBRANCH   6  11
ENDBRANCH   1   2
BRANCH   1  13
ATOM     13  S   UNL     1       0.190  10.360  21.409  0.00  0.00    +0.000 S 
ATOM     14  O   UNL     1      -0.943   9.602  21.894  0.00  0.00    +0.000 OA
ATOM     15  O   UNL     1       1.309  10.652  22.284  0.00  0.00    +0.000 OA
BRANCH  13  20
ATOM     16  C   UNL     1       3.489   7.474  17.204  0.00  0.00    +0.000 C 
ATOM     17  C   UNL     1       2.509   8.102  18.157  0.00  0.00    +0.000 A 
ATOM     18  C   UNL     1       1.908   9.335  17.866  0.00  0.00    +0.000 A 
ATOM     19  C   UNL     1       1.106   9.984  18.817  0.00  0.00    +0.000 A 
ATOM     20  C   UNL     1       0.892   9.389  20.064  0.00  0.00    +0.000 A 
ATOM     21  C   UNL     1       1.449   8.134  20.345  0.00  0.00    +0.000 A 
ATOM     22  C   UNL     1       2.262   7.502  19.398  0.00  0.00    +0.000 A 
ENDBRANCH  13  20
ENDBRANCH   1  13
BRANCH   1  23
ATOM     23  S   UNL     1       0.708  13.131  21.017  0.00  0.00    +0.000 S 
ATOM     24  O   UNL     1       0.601  13.479  22.425  0.00  0.00    +0.000 OA
ATOM     25  O   UNL     1       2.015  12.917  20.432  0.00  0.00    +0.000 OA
BRANCH  23  26
ATOM     26  C   UNL     1      -0.048  14.514  20.164  0.00  0.00    +0.000 A 
ATOM     27  C   UNL     1      -0.768  15.461  20.898  0.00  0.00    +0.000 A 
ATOM     28  C   UNL     1      -1.221  16.632  20.277  0.00  0.00    +0.000 A 
ATOM     29  C   UNL     1      -0.941  16.880  18.926  0.00  0.00    +0.000 A 
ATOM     30  C   UNL     1      -1.365  18.163  18.269  0.00  0.00    +0.000 C 
ATOM     31  C   UNL     1      -0.209  15.929  18.202  0.00  0.00    +0.000 A 
ATOM     32  C   UNL     1       0.226  14.743  18.809  0.00  0.00    +0.000 A 
ENDBRANCH  23  26
ENDBRANCH   1  23
TORSDOF 6
ENDMDL
MODEL 5
REMARK VINA RESULT:      -6.2      2.230      6.326
REMARK  Name = 
REMARK  8 active torsions:
REMARK  status: ('A' for Active; 'I' for Inactive)
REMARK    1  A    between atoms: C_1  and  C_2
REMARK    2  A    between atoms: C_5  and  S_6
REMARK    3  A    between atoms: S_6  and  N_9
REMARK    4  A    between atoms: N_9  and  C_10
REMARK    5  A    between atoms: N_9  and  S_21
REMARK    6  A    between atoms: C_14  and  C_15
REMARK    7  A    between atoms: S_21  and  C_24
REMARK    8  A    between atoms: C_27  and  C_28
REMARK                            x       y       z     vdW  Elec       q    Type
REMARK                         _______ _______ _______ _____ _____    ______ ____
ROOT
ATOM      1  N   UNL     1      -2.206  14.478  21.832  0.00  0.00    +0.000 N 
ENDROOT
BRANCH   1   2
ATOM      2  C   UNL     1      -3.555  14.005  22.055  0.00  0.00    +0.000 A 
ATOM      3  S   UNL     1      -4.612  14.454  23.325  0.00  0.00    +0.000 S 
ATOM      4  C   UNL     1      -5.834  13.399  22.769  0.00  0.00    +0.000 A 
ATOM      5  C   UNL     1      -5.498  12.790  21.574  0.00  0.00    +0.000 A 
ATOM      6  C   UNL     1      -4.158  13.108  21.195  0.00  0.00    +0.000 A 
ATOM      7  C   UNL     1      -6.436  11.866  20.851  0.00  0.00    +0.000 C 
ATOM      8  C   UNL     1      -7.869  11.972  21.387  0.00  0.00    +0.000 C 
ATOM      9  C   UNL     1      -7.889  11.979  22.921  0.00  0.00    +0.000 C 
ATOM     10  C   UNL     1      -7.133  13.193  23.497  0.00  0.00    +0.000 C 
BRANCH   6  11
ATOM     11  C   UNL     1      -3.487  12.542  20.064  0.00  0.00    +0.000 C 
ATOM     12  N   UNL     1      -2.997  12.075  19.127  0.00  0.00    +0.000 NA
ENDBRANCH   6  11
ENDBRANCH   1   2
BRANCH   1  13
ATOM     13  S   UNL     1      -1.031  13.864  22.864  0.00  0.00    +0.000 S 
ATOM     14  O   UNL     1      -1.558  13.694  24.202  0.00  0.00    +0.000 OA
ATOM     15  O   UNL     1       0.192  14.611  22.644  0.00  0.00    +0.000 OA
BRANCH  13  20
ATOM     16  C   UNL     1       1.025   8.323  21.461  0.00  0.00    +0.000 C 
ATOM     17  C   UNL     1       0.364   9.657  21.677  0.00  0.00    +0.000 A 
ATOM     18  C   UNL     1       0.677  10.758  20.867  0.00  0.00    +0.000 A 
ATOM     19  C   UNL     1       0.166  12.030  21.159  0.00  0.00    +0.000 A 
ATOM     20  C   UNL     1      -0.675  12.203  22.262  0.00  0.00    +0.000 A 
ATOM     21  C   UNL     1      -1.032  11.099  23.049  0.00  0.00    +0.000 A 
ATOM     22  C   UNL     1      -0.504   9.836  22.761  0.00  0.00    +0.000 A 
ENDBRANCH  13  20
ENDBRANCH   1  13
BRANCH   1  23
ATOM     23  S   UNL     1      -2.136  16.161  21.598  0.00  0.00    +0.000 S 
ATOM     24  O   UNL     1      -3.354  16.581  20.921  0.00  0.00    +0.000 OA
ATOM     25  O   UNL     1      -1.729  16.830  22.815  0.00  0.00    +0.000 OA
BRANCH  23  26
ATOM     26  C   UNL     1      -0.846  16.415  20.381  0.00  0.00    +0.000 A 
ATOM     27  C   UNL     1      -0.004  17.525  20.497  0.00  0.00    +0.000 A 
ATOM     28  C   UNL     1       1.111  17.649  19.658  0.00  0.00    +0.000 A 
ATOM     29  C   UNL     1       1.409  16.659  18.713  0.00  0.00    +0.000 A 
ATOM     30  C   UNL     1       2.639  16.750  17.855  0.00  0.00    +0.000 C 
ATOM     31  C   UNL     1       0.565  15.545  18.612  0.00  0.00    +0.000 A 
ATOM     32  C   UNL     1      -0.567  15.424  19.431  0.00  0.00    +0.000 A 
ENDBRANCH  23  26
ENDBRANCH   1  23
TORSDOF 6
ENDMDL
MODEL 6
REMARK VINA RESULT:      -6.2      3.002      6.879
REMARK  Name = 
REMARK  8 active torsions:
REMARK  status: ('A' for Active; 'I' for Inactive)
REMARK    1  A    between atoms: C_1  and  C_2
REMARK    2  A    between atoms: C_5  and  S_6
REMARK    3  A    between atoms: S_6  and  N_9
REMARK    4  A    between atoms: N_9  and  C_10
REMARK    5  A    between atoms: N_9  and  S_21
REMARK    6  A    between atoms: C_14  and  C_15
REMARK    7  A    between atoms: S_21  and  C_24
REMARK    8  A    between atoms: C_27  and  C_28
REMARK                            x       y       z     vdW  Elec       q    Type
REMARK                         _______ _______ _______ _____ _____    ______ ____
ROOT
ATOM      1  N   UNL     1      -0.969  12.522  20.131  0.00  0.00    +0.000 N 
ENDROOT
BRANCH   1   2
ATOM      2  C   UNL     1      -2.411  12.430  20.055  0.00  0.00    +0.000 A 
ATOM      3  S   UNL     1      -3.543  12.950  21.229  0.00  0.00    +0.000 S 
ATOM      4  C   UNL     1      -4.863  12.402  20.293  0.00  0.00    +0.000 A 
ATOM      5  C   UNL     1      -4.468  11.928  19.056  0.00  0.00    +0.000 A 
ATOM      6  C   UNL     1      -3.044  11.902  18.947  0.00  0.00    +0.000 A 
ATOM      7  C   UNL     1      -5.452  11.450  18.027  0.00  0.00    +0.000 C 
ATOM      8  C   UNL     1      -6.886  11.876  18.365  0.00  0.00    +0.000 C 
ATOM      9  C   UNL     1      -7.202  11.634  19.847  0.00  0.00    +0.000 C 
ATOM     10  C   UNL     1      -6.287  12.464  20.770  0.00  0.00    +0.000 C 
BRANCH   6  11
ATOM     11  C   UNL     1      -2.334  11.361  17.827  0.00  0.00    +0.000 C 
ATOM     12  N   UNL     1      -1.807  10.934  16.891  0.00  0.00    +0.000 NA
ENDBRANCH   6  11
ENDBRANCH   1   2
BRANCH   1  13
ATOM     13  S   UNL     1      -0.213  11.403  21.131  0.00  0.00    +0.000 S 
ATOM     14  O   UNL     1      -1.183  10.697  21.942  0.00  0.00    +0.000 OA
ATOM     15  O   UNL     1       0.927  12.053  21.747  0.00  0.00    +0.000 OA
BRANCH  13  20
ATOM     16  C   UNL     1       3.117   7.571  17.795  0.00  0.00    +0.000 C 
ATOM     17  C   UNL     1       2.130   8.439  18.527  0.00  0.00    +0.000 A 
ATOM     18  C   UNL     1       1.718   9.669  17.996  0.00  0.00    +0.000 A 
ATOM     19  C   UNL     1       0.909  10.537  18.744  0.00  0.00    +0.000 A 
ATOM     20  C   UNL     1       0.498  10.167  20.028  0.00  0.00    +0.000 A 
ATOM     21  C   UNL     1       0.865   8.918  20.547  0.00  0.00    +0.000 A 
ATOM     22  C   UNL     1       1.686   8.065  19.801  0.00  0.00    +0.000 A 
ENDBRANCH  13  20
ENDBRANCH   1  13
BRANCH   1  23
ATOM     23  S   UNL     1      -0.427  14.122  20.318  0.00  0.00    +0.000 S 
ATOM     24  O   UNL     1      -1.151  14.965  19.380  0.00  0.00    +0.000 OA
ATOM     25  O   UNL     1      -0.383  14.487  21.718  0.00  0.00    +0.000 OA
BRANCH  23  26
ATOM     26  C   UNL     1       1.257  14.125  19.705  0.00  0.00    +0.000 A 
ATOM     27  C   UNL     1       1.513  13.676  18.406  0.00  0.00    +0.000 A 
ATOM     28  C   UNL     1       2.791  13.828  17.852  0.00  0.00    +0.000 A 
ATOM     29  C   UNL     1       3.816  14.448  18.578  0.00  0.00    +0.000 A 
ATOM     30  C   UNL     1       5.170  14.676  17.968  0.00  0.00    +0.000 C 
ATOM     31  C   UNL     1       3.545  14.906  19.875  0.00  0.00    +0.000 A 
ATOM     32  C   UNL     1       2.277  14.735  20.446  0.00  0.00    +0.000 A 
ENDBRANCH  23  26
ENDBRANCH   1  23
TORSDOF 6
ENDMDL
MODEL 7
REMARK VINA RESULT:      -6.1      3.258      5.881
REMARK  Name = 
REMARK  8 active torsions:
REMARK  status: ('A' for Active; 'I' for Inactive)
REMARK    1  A    between atoms: C_1  and  C_2
REMARK    2  A    between atoms: C_5  and  S_6
REMARK    3  A    between atoms: S_6  and  N_9
REMARK    4  A    between atoms: N_9  and  C_10
REMARK    5  A    between atoms: N_9  and  S_21
REMARK    6  A    between atoms: C_14  and  C_15
REMARK    7  A    between atoms: S_21  and  C_24
REMARK    8  A    between atoms: C_27  and  C_28
REMARK                            x       y       z     vdW  Elec       q    Type
REMARK                         _______ _______ _______ _____ _____    ______ ____
ROOT
ATOM      1  N   UNL     1       0.108  11.578  19.815  0.00  0.00    +0.000 N 
ENDROOT
BRANCH   1   2
ATOM      2  C   UNL     1       0.788  10.338  19.510  0.00  0.00    +0.000 A 
ATOM      3  S   UNL     1       1.628   9.946  18.071  0.00  0.00    +0.000 S 
ATOM      4  C   UNL     1       1.994   8.376  18.635  0.00  0.00    +0.000 A 
ATOM      5  C   UNL     1       1.584   8.179  19.941  0.00  0.00    +0.000 A 
ATOM      6  C   UNL     1       0.843   9.302  20.421  0.00  0.00    +0.000 A 
ATOM      7  C   UNL     1       1.849   6.900  20.682  0.00  0.00    +0.000 C 
ATOM      8  C   UNL     1       2.897   6.033  19.971  0.00  0.00    +0.000 C 
ATOM      9  C   UNL     1       2.625   5.961  18.463  0.00  0.00    +0.000 C 
ATOM     10  C   UNL     1       2.708   7.351  17.800  0.00  0.00    +0.000 C 
BRANCH   6  11
ATOM     11  C   UNL     1       0.195   9.350  21.697  0.00  0.00    +0.000 C 
ATOM     12  N   UNL     1      -0.299   9.342  22.742  0.00  0.00    +0.000 NA
ENDBRANCH   6  11
ENDBRANCH   1   2
BRANCH   1  13
ATOM     13  S   UNL     1      -1.432  11.752  19.166  0.00  0.00    +0.000 S 
ATOM     14  O   UNL     1      -1.949  10.476  18.717  0.00  0.00    +0.000 OA
ATOM     15  O   UNL     1      -1.415  12.894  18.273  0.00  0.00    +0.000 OA
BRANCH  13  20
ATOM     16  C   UNL     1      -4.305  14.251  23.899  0.00  0.00    +0.000 C 
ATOM     17  C   UNL     1      -3.737  13.486  22.735  0.00  0.00    +0.000 A 
ATOM     18  C   UNL     1      -2.801  12.461  22.932  0.00  0.00    +0.000 A 
ATOM     19  C   UNL     1      -2.169  11.848  21.840  0.00  0.00    +0.000 A 
ATOM     20  C   UNL     1      -2.486  12.253  20.540  0.00  0.00    +0.000 A 
ATOM     21  C   UNL     1      -3.456  13.242  20.332  0.00  0.00    +0.000 A 
ATOM     22  C   UNL     1      -4.068  13.861  21.427  0.00  0.00    +0.000 A 
ENDBRANCH  13  20
ENDBRANCH   1  13
BRANCH   1  23
ATOM     23  S   UNL     1       1.114  12.936  19.627  0.00  0.00    +0.000 S 
ATOM     24  O   UNL     1       2.386  12.658  20.277  0.00  0.00    +0.000 OA
ATOM     25  O   UNL     1       1.100  13.398  18.256  0.00  0.00    +0.000 OA
BRANCH  23  26
ATOM     26  C   UNL     1       0.374  14.216  20.639  0.00  0.00    +0.000 A 
ATOM     27  C   UNL     1      -0.381  15.221  20.028  0.00  0.00    +0.000 A 
ATOM     28  C   UNL     1      -1.104  16.129  20.813  0.00  0.00    +0.000 A 
ATOM     29  C   UNL     1      -1.098  16.030  22.211  0.00  0.00    +0.000 A 
ATOM     30  C   UNL     1      -1.923  16.957  23.058  0.00  0.00    +0.000 C 
ATOM     31  C   UNL     1      -0.346  15.011  22.813  0.00  0.00    +0.000 A 
ATOM     32  C   UNL     1       0.399  14.114  22.036  0.00  0.00    +0.000 A 
ENDBRANCH  23  26
ENDBRANCH   1  23
TORSDOF 6
ENDMDL
MODEL 8
REMARK VINA RESULT:      -6.1      2.246      5.951
REMARK  Name = 
REMARK  8 active torsions:
REMARK  status: ('A' for Active; 'I' for Inactive)
REMARK    1  A    between atoms: C_1  and  C_2
REMARK    2  A    between atoms: C_5  and  S_6
REMARK    3  A    between atoms: S_6  and  N_9
REMARK    4  A    between atoms: N_9  and  C_10
REMARK    5  A    between atoms: N_9  and  S_21
REMARK    6  A    between atoms: C_14  and  C_15
REMARK    7  A    between atoms: S_21  and  C_24
REMARK    8  A    between atoms: C_27  and  C_28
REMARK                            x       y       z     vdW  Elec       q    Type
REMARK                         _______ _______ _______ _____ _____    ______ ____
ROOT
ATOM      1  N   UNL     1      -1.781  13.715  21.139  0.00  0.00    +0.000 N 
ENDROOT
BRANCH   1   2
ATOM      2  C   UNL     1      -3.138  13.236  20.996  0.00  0.00    +0.000 A 
ATOM      3  S   UNL     1      -4.441  13.482  22.079  0.00  0.00    +0.000 S 
ATOM      4  C   UNL     1      -5.505  12.561  21.112  0.00  0.00    +0.000 A 
ATOM      5  C   UNL     1      -4.920  12.159  19.925  0.00  0.00    +0.000 A 
ATOM      6  C   UNL     1      -3.536  12.512  19.889  0.00  0.00    +0.000 A 
ATOM      7  C   UNL     1      -5.674  11.391  18.877  0.00  0.00    +0.000 C 
ATOM      8  C   UNL     1      -7.188  11.430  19.118  0.00  0.00    +0.000 C 
ATOM      9  C   UNL     1      -7.522  11.174  20.593  0.00  0.00    +0.000 C 
ATOM     10  C   UNL     1      -6.922  12.258  21.511  0.00  0.00    +0.000 C 
BRANCH   6  11
ATOM     11  C   UNL     1      -2.638  12.135  18.840  0.00  0.00    +0.000 C 
ATOM     12  N   UNL     1      -1.914  11.885  17.974  0.00  0.00    +0.000 NA
ENDBRANCH   6  11
ENDBRANCH   1   2
BRANCH   1  13
ATOM     13  S   UNL     1      -0.796  12.834  22.177  0.00  0.00    +0.000 S 
ATOM     14  O   UNL     1      -1.588  12.012  23.066  0.00  0.00    +0.000 OA
ATOM     15  O   UNL     1       0.211  13.733  22.707  0.00  0.00    +0.000 OA
BRANCH  13  20
ATOM     16  C   UNL     1       1.510   9.160  17.924  0.00  0.00    +0.000 C 
ATOM     17  C   UNL     1       1.095  10.009  19.094  0.00  0.00    +0.000 A 
ATOM     18  C   UNL     1       0.257   9.499  20.096  0.00  0.00    +0.000 A 
ATOM     19  C   UNL     1      -0.240  10.334  21.108  0.00  0.00    +0.000 A 
ATOM     20  C   UNL     1       0.114  11.686  21.126  0.00  0.00    +0.000 A 
ATOM     21  C   UNL     1       0.991  12.193  20.158  0.00  0.00    +0.000 A 
ATOM     22  C   UNL     1       1.468  11.358  19.142  0.00  0.00    +0.000 A 
ENDBRANCH  13  20
ENDBRANCH   1  13
BRANCH   1  23
ATOM     23  S   UNL     1      -1.702  15.401  21.346  0.00  0.00    +0.000 S 
ATOM     24  O   UNL     1      -2.794  16.007  20.598  0.00  0.00    +0.000 OA
ATOM     25  O   UNL     1      -1.522  15.737  22.742  0.00  0.00    +0.000 OA
BRANCH  23  26
ATOM     26  C   UNL     1      -0.228  15.917  20.469  0.00  0.00    +0.000 A 
ATOM     27  C   UNL     1       0.767  16.620  21.155  0.00  0.00    +0.000 A 
ATOM     28  C   UNL     1       1.994  16.883  20.533  0.00  0.00    +0.000 A 
ATOM     29  C   UNL     1       2.249  16.429  19.232  0.00  0.00    +0.000 A 
ATOM     30  C   UNL     1       3.586  16.648  18.582  0.00  0.00    +0.000 C 
ATOM     31  C   UNL     1       1.249  15.715  18.557  0.00  0.00    +0.000 A 
ATOM     32  C   UNL     1       0.009  15.469  19.163  0.00  0.00    +0.000 A 
ENDBRANCH  23  26
ENDBRANCH   1  23
TORSDOF 6
ENDMDL
MODEL 9
REMARK VINA RESULT:      -6.0      3.141      5.234
REMARK  Name = 
REMARK  8 active torsions:
REMARK  status: ('A' for Active; 'I' for Inactive)
REMARK    1  A    between atoms: C_1  and  C_2
REMARK    2  A    between atoms: C_5  and  S_6
REMARK    3  A    between atoms: S_6  and  N_9
REMARK    4  A    between atoms: N_9  and  C_10
REMARK    5  A    between atoms: N_9  and  S_21
REMARK    6  A    between atoms: C_14  and  C_15
REMARK    7  A    between atoms: S_21  and  C_24
REMARK    8  A    between atoms: C_27  and  C_28
REMARK                            x       y       z     vdW  Elec       q    Type
REMARK                         _______ _______ _______ _____ _____    ______ ____
ROOT
ATOM      1  N   UNL     1      -0.165  11.896  20.037  0.00  0.00    +0.000 N 
ENDROOT
BRANCH   1   2
ATOM      2  C   UNL     1       0.552  10.689  19.688  0.00  0.00    +0.000 A 
ATOM      3  S   UNL     1       1.495  10.416  18.285  0.00  0.00    +0.000 S 
ATOM      4  C   UNL     1       1.844   8.811  18.753  0.00  0.00    +0.000 A 
ATOM      5  C   UNL     1       1.347   8.511  20.008  0.00  0.00    +0.000 A 
ATOM      6  C   UNL     1       0.558   9.586  20.519  0.00  0.00    +0.000 A 
ATOM      7  C   UNL     1       1.579   7.181  20.667  0.00  0.00    +0.000 C 
ATOM      8  C   UNL     1       2.686   6.381  19.968  0.00  0.00    +0.000 C 
ATOM      9  C   UNL     1       2.521   6.422  18.443  0.00  0.00    +0.000 C 
ATOM     10  C   UNL     1       2.629   7.859  17.895  0.00  0.00    +0.000 C 
BRANCH   6  11
ATOM     11  C   UNL     1      -0.177   9.531  21.746  0.00  0.00    +0.000 C 
ATOM     12  N   UNL     1      -0.723   9.500  22.765  0.00  0.00    +0.000 NA
ENDBRANCH   6  11
ENDBRANCH   1   2
BRANCH   1  13
ATOM     13  S   UNL     1      -1.294  12.432  18.913  0.00  0.00    +0.000 S 
ATOM     14  O   UNL     1      -1.871  11.318  18.191  0.00  0.00    +0.000 OA
ATOM     15  O   UNL     1      -0.715  13.553  18.198  0.00  0.00    +0.000 OA
BRANCH  13  20
ATOM     16  C   UNL     1      -5.166  14.741  22.985  0.00  0.00    +0.000 C 
ATOM     17  C   UNL     1      -4.358  14.193  21.841  0.00  0.00    +0.000 A 
ATOM     18  C   UNL     1      -4.396  12.829  21.517  0.00  0.00    +0.000 A 
ATOM     19  C   UNL     1      -3.537  12.300  20.543  0.00  0.00    +0.000 A 
ATOM     20  C   UNL     1      -2.641  13.142  19.878  0.00  0.00    +0.000 A 
ATOM     21  C   UNL     1      -2.630  14.515  20.160  0.00  0.00    +0.000 A 
ATOM     22  C   UNL     1      -3.478  15.032  21.145  0.00  0.00    +0.000 A 
ENDBRANCH  13  20
ENDBRANCH   1  13
BRANCH   1  23
ATOM     23  S   UNL     1       0.859  13.109  20.648  0.00  0.00    +0.000 S 
ATOM     24  O   UNL     1       2.074  12.478  21.141  0.00  0.00    +0.000 OA
ATOM     25  O   UNL     1       0.955  14.213  19.718  0.00  0.00    +0.000 OA
BRANCH  23  26
ATOM     26  C   UNL     1       0.046  13.713  22.126  0.00  0.00    +0.000 A 
ATOM     27  C   UNL     1       0.153  15.065  22.463  0.00  0.00    +0.000 A 
ATOM     28  C   UNL     1      -0.610  15.588  23.515  0.00  0.00    +0.000 A 
ATOM     29  C   UNL     1      -1.502  14.773  24.225  0.00  0.00    +0.000 A 
ATOM     30  C   UNL     1      -2.374  15.339  25.310  0.00  0.00    +0.000 C 
ATOM     31  C   UNL     1      -1.611  13.421  23.872  0.00  0.00    +0.000 A 
ATOM     32  C   UNL     1      -0.833  12.885  22.837  0.00  0.00    +0.000 A 
ENDBRANCH  23  26
ENDBRANCH   1  23
TORSDOF 6
ENDMDL
