MODEL 1
REMARK VINA RESULT:      -6.2      0.000      0.000
REMARK  Name = 
REMARK  8 active torsions:
REMARK  status: ('A' for Active; 'I' for Inactive)
REMARK    1  A    between atoms: C_1  and  C_2
REMARK    2  A    between atoms: C_2  and  C_3
REMARK    3  A    between atoms: C_3  and  N_4
REMARK    4  A    between atoms: N_4  and  C_12
REMARK    5  A    between atoms: C_5  and  C_7
REMARK    6  A    between atoms: C_16  and  C_18
REMARK    7  A    between atoms: C_21  and  C_22
REMARK    8  A    between atoms: C_23  and  C_24
REMARK                            x       y       z     vdW  Elec       q    Type
REMARK                         _______ _______ _______ _____ _____    ______ ____
ROOT
ATOM      1  C   UNL     1       1.880   6.925  18.816  0.00  0.00    +0.000 C 
ATOM      2  C   UNL     1       1.898   5.694  19.757  0.00  0.00    +0.000 C 
ATOM      3  C   UNL     1       3.272   5.264  20.292  0.00  0.00    +0.000 C 
ATOM      4  N   UNL     1       4.328   5.404  19.297  0.00  0.00    +0.000 N 
ATOM      5  C   UNL     1       4.938   4.252  18.755  0.00  0.00    +0.000 C 
ATOM      6  O   UNL     1       4.583   3.128  19.124  0.00  0.00    +0.000 OA
ATOM      7  C   UNL     1       4.408   6.746  18.738  0.00  0.00    +0.000 C 
ATOM      8  C   UNL     1       3.147   7.024  17.943  0.00  0.00    +0.000 C 
ENDROOT
BRANCH   5   9
ATOM      9  C   UNL     1       5.994   4.384  17.710  0.00  0.00    +0.000 A 
ATOM     10  N   UNL     1       7.315   4.417  17.981  0.00  0.00    +0.000 NA
ATOM     11  N   UNL     1       7.910   4.601  16.801  0.00  0.00    +0.000 N 
ATOM     12  C   UNL     1       7.045   4.622  15.741  0.00  0.00    +0.000 A 
ATOM     13  C   UNL     1       7.512   4.820  14.350  0.00  0.00    +0.000 C 
ATOM     14  C   UNL     1       5.788   4.432  16.286  0.00  0.00    +0.000 A 
ATOM     15  C   UNL     1       4.495   4.329  15.561  0.00  0.00    +0.000 C 
ATOM     16  H   UNL     1       8.917   4.710  16.782  0.00  0.00    +0.000 HD
ENDBRANCH   5   9
BRANCH   1  17
ATOM     17  N   UNL     1       1.504   8.260  19.385  0.00  0.00    +0.000 N 
ATOM     18  C   UNL     1       1.370   9.290  18.400  0.00  0.00    +0.000 C 
ATOM     19  O   UNL     1       1.399   8.962  17.208  0.00  0.00    +0.000 OA
BRANCH  18  20
ATOM     20  C   UNL     1       1.199  10.703  18.748  0.00  0.00    +0.000 A 
ATOM     21  C   UNL     1       2.056  11.789  18.799  0.00  0.00    +0.000 A 
ATOM     22  C   UNL     1       1.412  12.990  19.230  0.00  0.00    +0.000 A 
ATOM     23  C   UNL     1       0.058  12.820  19.394  0.00  0.00    +0.000 A 
ATOM     24  S   UNL     1      -0.422  11.219  19.078  0.00  0.00    +0.000 S 
ENDBRANCH  18  20
BRANCH  17  25
ATOM     25  C   UNL     1       1.582   8.477  20.834  0.00  0.00    +0.000 C 
BRANCH  25  27
ATOM     26  C   UNL     1       0.135   9.606  22.636  0.00  0.00    +0.000 C 
ATOM     27  C   UNL     1       0.254   8.496  21.607  0.00  0.00    +0.000 C 
ENDBRANCH  25  27
ENDBRANCH  17  25
ENDBRANCH   1  17
TORSDOF 5
ENDMDL
MODEL 2
REMARK VINA RESULT:      -6.1      2.063      3.305
REMARK  Name = 
REMARK  8 active torsions:
REMARK  status: ('A' for Active; 'I' for Inactive)
REMARK    1  A    between atoms: C_1  and  C_2
REMARK    2  A    between atoms: C_2  and  C_3
REMARK    3  A    between atoms: C_3  and  N_4
REMARK    4  A    between atoms: N_4  and  C_12
REMARK    5  A    between atoms: C_5  and  C_7
REMARK    6  A    between atoms: C_16  and  C_18
REMARK    7  A    between atoms: C_21  and  C_22
REMARK    8  A    between atoms: C_23  and  C_24
REMARK                            x       y       z     vdW  Elec       q    Type
REMARK                         _______ _______ _______ _____ _____    ______ ____
ROOT
ATOM      1  C   UNL     1       3.537   4.764  18.988  0.00  0.00    +0.000 C 
ATOM      2  C   UNL     1       4.899   4.821  19.724  0.00  0.00    +0.000 C 
ATOM      3  C   UNL     1       5.993   5.677  19.068  0.00  0.00    +0.000 C 
ATOM      4  N   UNL     1       5.983   5.580  17.614  0.00  0.00    +0.000 N 
ATOM      5  C   UNL     1       7.045   4.931  16.947  0.00  0.00    +0.000 C 
ATOM      6  O   UNL     1       7.983   4.451  17.591  0.00  0.00    +0.000 OA
ATOM      7  C   UNL     1       4.686   5.895  17.031  0.00  0.00    +0.000 C 
ATOM      8  C   UNL     1       3.685   4.837  17.455  0.00  0.00    +0.000 C 
ENDROOT
BRANCH   5   9
ATOM      9  C   UNL     1       7.025   4.793  15.462  0.00  0.00    +0.000 A 
ATOM     10  N   UNL     1       7.780   5.541  14.631  0.00  0.00    +0.000 NA
ATOM     11  N   UNL     1       7.432   5.158  13.401  0.00  0.00    +0.000 N 
ATOM     12  C   UNL     1       6.526   4.134  13.375  0.00  0.00    +0.000 A 
ATOM     13  C   UNL     1       6.012   3.571  12.105  0.00  0.00    +0.000 C 
ATOM     14  C   UNL     1       6.273   3.830  14.701  0.00  0.00    +0.000 A 
ATOM     15  C   UNL     1       5.389   2.759  15.230  0.00  0.00    +0.000 C 
ATOM     16  H   UNL     1       7.847   5.639  12.612  0.00  0.00    +0.000 HD
ENDBRANCH   5   9
BRANCH   1  17
ATOM     17  N   UNL     1       2.420   5.641  19.470  0.00  0.00    +0.000 N 
ATOM     18  C   UNL     1       2.597   7.025  19.157  0.00  0.00    +0.000 C 
ATOM     19  O   UNL     1       3.522   7.336  18.397  0.00  0.00    +0.000 OA
BRANCH  18  20
ATOM     20  C   UNL     1       1.731   8.078  19.695  0.00  0.00    +0.000 A 
ATOM     21  C   UNL     1       1.215   8.346  20.951  0.00  0.00    +0.000 A 
ATOM     22  C   UNL     1       0.380   9.506  20.976  0.00  0.00    +0.000 A 
ATOM     23  C   UNL     1       0.363  10.158  19.766  0.00  0.00    +0.000 A 
ATOM     24  S   UNL     1       1.307   9.353  18.601  0.00  0.00    +0.000 S 
ENDBRANCH  18  20
BRANCH  17  25
ATOM     25  C   UNL     1       1.439   5.104  20.420  0.00  0.00    +0.000 C 
BRANCH  25  27
ATOM     26  C   UNL     1       1.554   2.780  21.516  0.00  0.00    +0.000 C 
ATOM     27  C   UNL     1       1.120   3.604  20.318  0.00  0.00    +0.000 C 
ENDBRANCH  25  27
ENDBRANCH  17  25
ENDBRANCH   1  17
TORSDOF 5
ENDMDL
MODEL 3
REMARK VINA RESULT:      -6.0      3.046      7.944
REMARK  Name = 
REMARK  8 active torsions:
REMARK  status: ('A' for Active; 'I' for Inactive)
REMARK    1  A    between atoms: C_1  and  C_2
REMARK    2  A    between atoms: C_2  and  C_3
REMARK    3  A    between atoms: C_3  and  N_4
REMARK    4  A    between atoms: N_4  and  C_12
REMARK    5  A    between atoms: C_5  and  C_7
REMARK    6  A    between atoms: C_16  and  C_18
REMARK    7  A    between atoms: C_21  and  C_22
REMARK    8  A    between atoms: C_23  and  C_24
REMARK                            x       y       z     vdW  Elec       q    Type
REMARK                         _______ _______ _______ _____ _____    ______ ____
ROOT
ATOM      1  C   UNL     1       4.611   6.109  17.988  0.00  0.00    +0.000 C 
ATOM      2  C   UNL     1       4.191   5.604  19.391  0.00  0.00    +0.000 C 
ATOM      3  C   UNL     1       2.706   5.757  19.755  0.00  0.00    +0.000 C 
ATOM      4  N   UNL     1       2.133   6.999  19.254  0.00  0.00    +0.000 N 
ATOM      5  C   UNL     1       1.755   8.014  20.161  0.00  0.00    +0.000 C 
ATOM      6  O   UNL     1       1.906   7.849  21.376  0.00  0.00    +0.000 OA
ATOM      7  C   UNL     1       2.315   7.172  17.820  0.00  0.00    +0.000 C 
ATOM      8  C   UNL     1       3.795   7.333  17.528  0.00  0.00    +0.000 C 
ENDROOT
BRANCH   5   9
ATOM      9  C   UNL     1       1.202   9.302  19.656  0.00  0.00    +0.000 A 
ATOM     10  N   UNL     1       1.515   9.833  18.455  0.00  0.00    +0.000 NA
ATOM     11  N   UNL     1       0.869  10.999  18.408  0.00  0.00    +0.000 N 
ATOM     12  C   UNL     1       0.080  11.240  19.499  0.00  0.00    +0.000 A 
ATOM     13  C   UNL     1      -0.713  12.484  19.635  0.00  0.00    +0.000 C 
ATOM     14  C   UNL     1       0.228  10.133  20.315  0.00  0.00    +0.000 A 
ATOM     15  C   UNL     1      -0.449   9.868  21.611  0.00  0.00    +0.000 C 
ATOM     16  H   UNL     1       1.010  11.595  17.601  0.00  0.00    +0.000 HD
ENDBRANCH   5   9
BRANCH   1  17
ATOM     17  N   UNL     1       4.768   5.111  16.881  0.00  0.00    +0.000 N 
ATOM     18  C   UNL     1       5.752   5.475  15.909  0.00  0.00    +0.000 C 
ATOM     19  O   UNL     1       6.478   6.447  16.153  0.00  0.00    +0.000 OA
BRANCH  18  20
ATOM     20  C   UNL     1       5.934   4.748  14.650  0.00  0.00    +0.000 A 
ATOM     21  C   UNL     1       5.120   3.923  13.894  0.00  0.00    +0.000 A 
ATOM     22  C   UNL     1       5.769   3.417  12.724  0.00  0.00    +0.000 A 
ATOM     23  C   UNL     1       7.023   3.952  12.557  0.00  0.00    +0.000 A 
ATOM     24  S   UNL     1       7.433   5.015  13.822  0.00  0.00    +0.000 S 
ENDBRANCH  18  20
BRANCH  17  25
ATOM     25  C   UNL     1       3.768   4.049  16.718  0.00  0.00    +0.000 C 
BRANCH  25  27
ATOM     26  C   UNL     1       2.661   2.130  18.025  0.00  0.00    +0.000 C 
ATOM     27  C   UNL     1       3.953   2.783  17.569  0.00  0.00    +0.000 C 
ENDBRANCH  25  27
ENDBRANCH  17  25
ENDBRANCH   1  17
TORSDOF 5
ENDMDL
MODEL 4
REMARK VINA RESULT:      -5.9      3.914      9.175
REMARK  Name = 
REMARK  8 active torsions:
REMARK  status: ('A' for Active; 'I' for Inactive)
REMARK    1  A    between atoms: C_1  and  C_2
REMARK    2  A    between atoms: C_2  and  C_3
REMARK    3  A    between atoms: C_3  and  N_4
REMARK    4  A    between atoms: N_4  and  C_12
REMARK    5  A    between atoms: C_5  and  C_7
REMARK    6  A    between atoms: C_16  and  C_18
REMARK    7  A    between atoms: C_21  and  C_22
REMARK    8  A    between atoms: C_23  and  C_24
REMARK                            x       y       z     vdW  Elec       q    Type
REMARK                         _______ _______ _______ _____ _____    ______ ____
ROOT
ATOM      1  C   UNL     1       0.647  10.133  18.866  0.00  0.00    +0.000 C 
ATOM      2  C   UNL     1       1.064  11.556  19.317  0.00  0.00    +0.000 C 
ATOM      3  C   UNL     1       0.247  12.176  20.460  0.00  0.00    +0.000 C 
ATOM      4  N   UNL     1      -1.171  11.854  20.372  0.00  0.00    +0.000 N 
ATOM      5  C   UNL     1      -2.104  12.870  20.068  0.00  0.00    +0.000 C 
ATOM      6  O   UNL     1      -1.721  14.030  19.881  0.00  0.00    +0.000 OA
ATOM      7  C   UNL     1      -1.427  10.423  20.297  0.00  0.00    +0.000 C 
ATOM      8  C   UNL     1      -0.871   9.892  18.989  0.00  0.00    +0.000 C 
ENDROOT
BRANCH   5   9
ATOM      9  C   UNL     1      -3.553  12.544  19.940  0.00  0.00    +0.000 A 
ATOM     10  N   UNL     1      -4.468  12.816  20.892  0.00  0.00    +0.000 NA
ATOM     11  N   UNL     1      -5.617  12.322  20.426  0.00  0.00    +0.000 N 
ATOM     12  C   UNL     1      -5.522  11.792  19.169  0.00  0.00    +0.000 A 
ATOM     13  C   UNL     1      -6.687  11.191  18.480  0.00  0.00    +0.000 C 
ATOM     14  C   UNL     1      -4.202  11.964  18.793  0.00  0.00    +0.000 A 
ATOM     15  C   UNL     1      -3.577  11.600  17.495  0.00  0.00    +0.000 C 
ATOM     16  H   UNL     1      -6.437  12.373  21.018  0.00  0.00    +0.000 HD
ENDBRANCH   5   9
BRANCH   1  17
ATOM     17  N   UNL     1       1.428   8.959  19.373  0.00  0.00    +0.000 N 
ATOM     18  C   UNL     1       2.248   8.338  18.379  0.00  0.00    +0.000 C 
ATOM     19  O   UNL     1       2.371   8.907  17.287  0.00  0.00    +0.000 OA
BRANCH  18  20
ATOM     20  C   UNL     1       2.943   7.067  18.602  0.00  0.00    +0.000 A 
ATOM     21  C   UNL     1       2.747   6.007  19.470  0.00  0.00    +0.000 A 
ATOM     22  C   UNL     1       3.728   4.977  19.324  0.00  0.00    +0.000 A 
ATOM     23  C   UNL     1       4.584   5.222  18.278  0.00  0.00    +0.000 A 
ATOM     24  S   UNL     1       4.239   6.702  17.511  0.00  0.00    +0.000 S 
ENDBRANCH  18  20
BRANCH  17  25
ATOM     25  C   UNL     1       1.100   8.383  20.682  0.00  0.00    +0.000 C 
BRANCH  25  27
ATOM     26  C   UNL     1       0.511   9.394  22.973  0.00  0.00    +0.000 C 
ATOM     27  C   UNL     1       1.579   9.156  21.921  0.00  0.00    +0.000 C 
ENDBRANCH  25  27
ENDBRANCH  17  25
ENDBRANCH   1  17
TORSDOF 5
ENDMDL
MODEL 5
REMARK VINA RESULT:      -5.9      3.992      9.577
REMARK  Name = 
REMARK  8 active torsions:
REMARK  status: ('A' for Active; 'I' for Inactive)
REMARK    1  A    between atoms: C_1  and  C_2
REMARK    2  A    between atoms: C_2  and  C_3
REMARK    3  A    between atoms: C_3  and  N_4
REMARK    4  A    between atoms: N_4  and  C_12
REMARK    5  A    between atoms: C_5  and  C_7
REMARK    6  A    between atoms: C_16  and  C_18
REMARK    7  A    between atoms: C_21  and  C_22
REMARK    8  A    between atoms: C_23  and  C_24
REMARK                            x       y       z     vdW  Elec       q    Type
REMARK                         _______ _______ _______ _____ _____    ______ ____
ROOT
ATOM      1  C   UNL     1       0.552  10.290  19.011  0.00  0.00    +0.000 C 
ATOM      2  C   UNL     1       1.050  11.684  19.470  0.00  0.00    +0.000 C 
ATOM      3  C   UNL     1       0.333  12.299  20.682  0.00  0.00    +0.000 C 
ATOM      4  N   UNL     1      -1.099  12.029  20.680  0.00  0.00    +0.000 N 
ATOM      5  C   UNL     1      -2.012  13.085  20.465  0.00  0.00    +0.000 C 
ATOM      6  O   UNL     1      -1.600  14.236  20.284  0.00  0.00    +0.000 OA
ATOM      7  C   UNL     1      -1.411  10.610  20.584  0.00  0.00    +0.000 C 
ATOM      8  C   UNL     1      -0.962  10.099  19.228  0.00  0.00    +0.000 C 
ENDROOT
BRANCH   5   9
ATOM      9  C   UNL     1      -3.477  12.813  20.425  0.00  0.00    +0.000 A 
ATOM     10  N   UNL     1      -4.149  12.498  19.299  0.00  0.00    +0.000 NA
ATOM     11  N   UNL     1      -5.426  12.393  19.671  0.00  0.00    +0.000 N 
ATOM     12  C   UNL     1      -5.628  12.557  21.013  0.00  0.00    +0.000 A 
ATOM     13  C   UNL     1      -6.977  12.481  21.620  0.00  0.00    +0.000 C 
ATOM     14  C   UNL     1      -4.373  12.782  21.551  0.00  0.00    +0.000 A 
ATOM     15  C   UNL     1      -4.026  12.980  22.982  0.00  0.00    +0.000 C 
ATOM     16  H   UNL     1      -6.121  12.211  18.957  0.00  0.00    +0.000 HD
ENDBRANCH   5   9
BRANCH   1  17
ATOM     17  N   UNL     1       1.322   9.075  19.434  0.00  0.00    +0.000 N 
ATOM     18  C   UNL     1       2.085   8.479  18.380  0.00  0.00    +0.000 C 
ATOM     19  O   UNL     1       2.180   9.094  17.311  0.00  0.00    +0.000 OA
BRANCH  18  20
ATOM     20  C   UNL     1       2.755   7.183  18.520  0.00  0.00    +0.000 A 
ATOM     21  C   UNL     1       2.476   6.032  19.235  0.00  0.00    +0.000 A 
ATOM     22  C   UNL     1       3.465   5.014  19.064  0.00  0.00    +0.000 A 
ATOM     23  C   UNL     1       4.418   5.369  18.140  0.00  0.00    +0.000 A 
ATOM     24  S   UNL     1       4.150   6.932  17.522  0.00  0.00    +0.000 S 
ENDBRANCH  18  20
BRANCH  17  25
ATOM     25  C   UNL     1       1.031   8.450  20.728  0.00  0.00    +0.000 C 
BRANCH  25  27
ATOM     26  C   UNL     1       0.525   9.382  23.072  0.00  0.00    +0.000 C 
ATOM     27  C   UNL     1       1.559   9.166  21.981  0.00  0.00    +0.000 C 
ENDBRANCH  25  27
ENDBRANCH  17  25
ENDBRANCH   1  17
TORSDOF 5
ENDMDL
MODEL 6
REMARK VINA RESULT:      -5.9      3.225      8.501
REMARK  Name = 
REMARK  8 active torsions:
REMARK  status: ('A' for Active; 'I' for Inactive)
REMARK    1  A    between atoms: C_1  and  C_2
REMARK    2  A    between atoms: C_2  and  C_3
REMARK    3  A    between atoms: C_3  and  N_4
REMARK    4  A    between atoms: N_4  and  C_12
REMARK    5  A    between atoms: C_5  and  C_7
REMARK    6  A    between atoms: C_16  and  C_18
REMARK    7  A    between atoms: C_21  and  C_22
REMARK    8  A    between atoms: C_23  and  C_24
REMARK                            x       y       z     vdW  Elec       q    Type
REMARK                         _______ _______ _______ _____ _____    ______ ____
ROOT
ATOM      1  C   UNL     1       2.033   8.061  19.984  0.00  0.00    +0.000 C 
ATOM      2  C   UNL     1       1.166   7.922  21.260  0.00  0.00    +0.000 C 
ATOM      3  C   UNL     1      -0.251   8.509  21.189  0.00  0.00    +0.000 C 
ATOM      4  N   UNL     1      -0.302   9.757  20.438  0.00  0.00    +0.000 N 
ATOM      5  C   UNL     1      -0.569  10.970  21.109  0.00  0.00    +0.000 C 
ATOM      6  O   UNL     1      -0.763  10.976  22.329  0.00  0.00    +0.000 OA
ATOM      7  C   UNL     1       0.255   9.638  19.098  0.00  0.00    +0.000 C 
ATOM      8  C   UNL     1       1.743   9.361  19.207  0.00  0.00    +0.000 C 
ENDROOT
BRANCH   5   9
ATOM      9  C   UNL     1      -0.587  12.256  20.356  0.00  0.00    +0.000 A 
ATOM     10  N   UNL     1      -1.691  12.766  19.772  0.00  0.00    +0.000 NA
ATOM     11  N   UNL     1      -1.281  13.879  19.159  0.00  0.00    +0.000 N 
ATOM     12  C   UNL     1       0.039  14.172  19.367  0.00  0.00    +0.000 A 
ATOM     13  C   UNL     1       0.682  15.363  18.768  0.00  0.00    +0.000 C 
ATOM     14  C   UNL     1       0.517  13.165  20.187  0.00  0.00    +0.000 A 
ATOM     15  C   UNL     1       1.886  13.031  20.749  0.00  0.00    +0.000 C 
ATOM     16  H   UNL     1      -1.952  14.398  18.606  0.00  0.00    +0.000 HD
ENDBRANCH   5   9
BRANCH   1  17
ATOM     17  N   UNL     1       2.148   6.887  19.058  0.00  0.00    +0.000 N 
ATOM     18  C   UNL     1       2.084   5.621  19.721  0.00  0.00    +0.000 C 
ATOM     19  O   UNL     1       1.775   5.606  20.919  0.00  0.00    +0.000 OA
BRANCH  18  20
ATOM     20  C   UNL     1       2.365   4.353  19.042  0.00  0.00    +0.000 A 
ATOM     21  C   UNL     1       1.754   3.662  18.011  0.00  0.00    +0.000 A 
ATOM     22  C   UNL     1       2.401   2.424  17.707  0.00  0.00    +0.000 A 
ATOM     23  C   UNL     1       3.552   2.249  18.437  0.00  0.00    +0.000 A 
ATOM     24  S   UNL     1       3.823   3.541  19.511  0.00  0.00    +0.000 S 
ENDBRANCH  18  20
BRANCH  17  25
ATOM     25  C   UNL     1       2.582   7.098  17.673  0.00  0.00    +0.000 C 
BRANCH  25  27
ATOM     26  C   UNL     1       4.666   5.972  16.670  0.00  0.00    +0.000 C 
ATOM     27  C   UNL     1       4.097   7.161  17.421  0.00  0.00    +0.000 C 
ENDBRANCH  25  27
ENDBRANCH  17  25
ENDBRANCH   1  17
TORSDOF 5
ENDMDL
MODEL 7
REMARK VINA RESULT:      -5.8      3.415      5.221
REMARK  Name = 
REMARK  8 active torsions:
REMARK  status: ('A' for Active; 'I' for Inactive)
REMARK    1  A    between atoms: C_1  and  C_2
REMARK    2  A    between atoms: C_2  and  C_3
REMARK    3  A    between atoms: C_3  and  N_4
REMARK    4  A    between atoms: N_4  and  C_12
REMARK    5  A    between atoms: C_5  and  C_7
REMARK    6  A    between atoms: C_16  and  C_18
REMARK    7  A    between atoms: C_21  and  C_22
REMARK    8  A    between atoms: C_23  and  C_24
REMARK                            x       y       z     vdW  Elec       q    Type
REMARK                         _______ _______ _______ _____ _____    ______ ____
ROOT
ATOM      1  C   UNL     1       1.139  11.048  19.755  0.00  0.00    +0.000 C 
ATOM      2  C   UNL     1       1.987  10.896  18.468  0.00  0.00    +0.000 C 
ATOM      3  C   UNL     1       1.770   9.611  17.655  0.00  0.00    +0.000 C 
ATOM      4  N   UNL     1       1.562   8.443  18.501  0.00  0.00    +0.000 N 
ATOM      5  C   UNL     1       2.546   7.431  18.554  0.00  0.00    +0.000 C 
ATOM      6  O   UNL     1       3.578   7.531  17.883  0.00  0.00    +0.000 OA
ATOM      7  C   UNL     1       0.477   8.618  19.456  0.00  0.00    +0.000 C 
ATOM      8  C   UNL     1       0.865   9.698  20.448  0.00  0.00    +0.000 C 
ENDROOT
BRANCH   5   9
ATOM      9  C   UNL     1       2.359   6.250  19.445  0.00  0.00    +0.000 A 
ATOM     10  N   UNL     1       2.476   6.299  20.788  0.00  0.00    +0.000 NA
ATOM     11  N   UNL     1       2.297   5.043  21.201  0.00  0.00    +0.000 N 
ATOM     12  C   UNL     1       1.995   4.166  20.196  0.00  0.00    +0.000 A 
ATOM     13  C   UNL     1       1.765   2.726  20.453  0.00  0.00    +0.000 C 
ATOM     14  C   UNL     1       1.974   4.923  19.038  0.00  0.00    +0.000 A 
ATOM     15  C   UNL     1       1.654   4.462  17.663  0.00  0.00    +0.000 C 
ATOM     16  H   UNL     1       2.397   4.844  22.189  0.00  0.00    +0.000 HD
ENDBRANCH   5   9
BRANCH   1  17
ATOM     17  N   UNL     1      -0.095  11.897  19.709  0.00  0.00    +0.000 N 
ATOM     18  C   UNL     1      -0.496  12.404  20.985  0.00  0.00    +0.000 C 
ATOM     19  O   UNL     1       0.276  12.252  21.940  0.00  0.00    +0.000 OA
BRANCH  18  20
ATOM     20  C   UNL     1      -1.771  13.093  21.202  0.00  0.00    +0.000 A 
ATOM     21  C   UNL     1      -2.996  12.703  21.716  0.00  0.00    +0.000 A 
ATOM     22  C   UNL     1      -3.967  13.752  21.700  0.00  0.00    +0.000 A 
ATOM     23  C   UNL     1      -3.434  14.945  21.276  0.00  0.00    +0.000 A 
ATOM     24  S   UNL     1      -1.792  14.791  20.856  0.00  0.00    +0.000 S 
ENDBRANCH  18  20
BRANCH  17  25
ATOM     25  C   UNL     1      -0.919  11.909  18.495  0.00  0.00    +0.000 C 
BRANCH  25  27
ATOM     26  C   UNL     1      -1.986  10.044  17.080  0.00  0.00    +0.000 C 
ATOM     27  C   UNL     1      -2.005  10.828  18.380  0.00  0.00    +0.000 C 
ENDBRANCH  25  27
ENDBRANCH  17  25
ENDBRANCH   1  17
TORSDOF 5
ENDMDL
MODEL 8
REMARK VINA RESULT:      -5.8      3.384      8.588
REMARK  Name = 
REMARK  8 active torsions:
REMARK  status: ('A' for Active; 'I' for Inactive)
REMARK    1  A    between atoms: C_1  and  C_2
REMARK    2  A    between atoms: C_2  and  C_3
REMARK    3  A    between atoms: C_3  and  N_4
REMARK    4  A    between atoms: N_4  and  C_12
REMARK    5  A    between atoms: C_5  and  C_7
REMARK    6  A    between atoms: C_16  and  C_18
REMARK    7  A    between atoms: C_21  and  C_22
REMARK    8  A    between atoms: C_23  and  C_24
REMARK                            x       y       z     vdW  Elec       q    Type
REMARK                         _______ _______ _______ _____ _____    ______ ____
ROOT
ATOM      1  C   UNL     1       1.724   9.138  17.924  0.00  0.00    +0.000 C 
ATOM      2  C   UNL     1       2.310  10.571  17.981  0.00  0.00    +0.000 C 
ATOM      3  C   UNL     1       1.694  11.519  19.021  0.00  0.00    +0.000 C 
ATOM      4  N   UNL     1       0.254  11.343  19.154  0.00  0.00    +0.000 N 
ATOM      5  C   UNL     1      -0.621  12.360  18.712  0.00  0.00    +0.000 C 
ATOM      6  O   UNL     1      -0.169  13.398  18.219  0.00  0.00    +0.000 OA
ATOM      7  C   UNL     1      -0.127   9.969  19.445  0.00  0.00    +0.000 C 
ATOM      8  C   UNL     1       0.218   9.099  18.252  0.00  0.00    +0.000 C 
ENDROOT
BRANCH   5   9
ATOM      9  C   UNL     1      -2.097  12.174  18.810  0.00  0.00    +0.000 A 
ATOM     10  N   UNL     1      -2.842  12.628  19.839  0.00  0.00    +0.000 NA
ATOM     11  N   UNL     1      -4.084  12.213  19.583  0.00  0.00    +0.000 N 
ATOM     12  C   UNL     1      -4.214  11.558  18.389  0.00  0.00    +0.000 A 
ATOM     13  C   UNL     1      -5.513  11.017  17.927  0.00  0.00    +0.000 C 
ATOM     14  C   UNL     1      -2.949  11.557  17.828  0.00  0.00    +0.000 A 
ATOM     15  C   UNL     1      -2.548  11.008  16.507  0.00  0.00    +0.000 C 
ATOM     16  H   UNL     1      -4.805  12.403  20.267  0.00  0.00    +0.000 HD
ENDBRANCH   5   9
BRANCH   1  17
ATOM     17  N   UNL     1       2.461   8.030  18.615  0.00  0.00    +0.000 N 
ATOM     18  C   UNL     1       3.317   7.278  17.749  0.00  0.00    +0.000 C 
ATOM     19  O   UNL     1       3.500   7.701  16.601  0.00  0.00    +0.000 OA
BRANCH  18  20
ATOM     20  C   UNL     1       3.979   6.039  18.167  0.00  0.00    +0.000 A 
ATOM     21  C   UNL     1       5.012   5.753  19.042  0.00  0.00    +0.000 A 
ATOM     22  C   UNL     1       5.327   4.359  19.097  0.00  0.00    +0.000 A 
ATOM     23  C   UNL     1       4.460   3.603  18.347  0.00  0.00    +0.000 A 
ATOM     24  S   UNL     1       3.308   4.566  17.547  0.00  0.00    +0.000 S 
ENDBRANCH  18  20
BRANCH  17  25
ATOM     25  C   UNL     1       2.063   7.631  19.969  0.00  0.00    +0.000 C 
BRANCH  25  27
ATOM     26  C   UNL     1       1.938   5.273  20.988  0.00  0.00    +0.000 C 
ATOM     27  C   UNL     1       1.279   6.316  20.105  0.00  0.00    +0.000 C 
ENDBRANCH  25  27
ENDBRANCH  17  25
ENDBRANCH   1  17
TORSDOF 5
ENDMDL
MODEL 9
REMARK VINA RESULT:      -5.7      2.882      4.446
REMARK  Name = 
REMARK  8 active torsions:
REMARK  status: ('A' for Active; 'I' for Inactive)
REMARK    1  A    between atoms: C_1  and  C_2
REMARK    2  A    between atoms: C_2  and  C_3
REMARK    3  A    between atoms: C_3  and  N_4
REMARK    4  A    between atoms: N_4  and  C_12
REMARK    5  A    between atoms: C_5  and  C_7
REMARK    6  A    between atoms: C_16  and  C_18
REMARK    7  A    between atoms: C_21  and  C_22
REMARK    8  A    between atoms: C_23  and  C_24
REMARK                            x       y       z     vdW  Elec       q    Type
REMARK                         _______ _______ _______ _____ _____    ______ ____
ROOT
ATOM      1  C   UNL     1       1.457  10.128  19.723  0.00  0.00    +0.000 C 
ATOM      2  C   UNL     1       2.067  10.282  18.307  0.00  0.00    +0.000 C 
ATOM      3  C   UNL     1       1.955   9.062  17.380  0.00  0.00    +0.000 C 
ATOM      4  N   UNL     1       2.134   7.802  18.090  0.00  0.00    +0.000 N 
ATOM      5  C   UNL     1       3.287   7.021  17.853  0.00  0.00    +0.000 C 
ATOM      6  O   UNL     1       4.139   7.400  17.043  0.00  0.00    +0.000 OA
ATOM      7  C   UNL     1       1.231   7.653  19.222  0.00  0.00    +0.000 C 
ATOM      8  C   UNL     1       1.579   8.692  20.270  0.00  0.00    +0.000 C 
ENDROOT
BRANCH   5   9
ATOM      9  C   UNL     1       3.497   5.749  18.601  0.00  0.00    +0.000 A 
ATOM     10  N   UNL     1       4.445   5.585  19.547  0.00  0.00    +0.000 NA
ATOM     11  N   UNL     1       4.346   4.309  19.925  0.00  0.00    +0.000 N 
ATOM     12  C   UNL     1       3.324   3.630  19.322  0.00  0.00    +0.000 A 
ATOM     13  C   UNL     1       3.053   2.203  19.607  0.00  0.00    +0.000 C 
ATOM     14  C   UNL     1       2.711   4.549  18.488  0.00  0.00    +0.000 A 
ATOM     15  C   UNL     1       1.515   4.335  17.633  0.00  0.00    +0.000 C 
ATOM     16  H   UNL     1       5.012   3.955  20.601  0.00  0.00    +0.000 HD
ENDBRANCH   5   9
BRANCH   1  17
ATOM     17  N   UNL     1       0.095  10.698  19.986  0.00  0.00    +0.000 N 
ATOM     18  C   UNL     1       0.056  11.621  21.079  0.00  0.00    +0.000 C 
ATOM     19  O   UNL     1       1.131  11.985  21.571  0.00  0.00    +0.000 OA
BRANCH  18  20
ATOM     20  C   UNL     1      -1.196  12.147  21.630  0.00  0.00    +0.000 A 
ATOM     21  C   UNL     1      -2.149  13.036  21.165  0.00  0.00    +0.000 A 
ATOM     22  C   UNL     1      -3.209  13.257  22.099  0.00  0.00    +0.000 A 
ATOM     23  C   UNL     1      -3.098  12.454  23.208  0.00  0.00    +0.000 A 
ATOM     24  S   UNL     1      -1.705  11.477  23.145  0.00  0.00    +0.000 S 
ENDBRANCH  18  20
BRANCH  17  25
ATOM     25  C   UNL     1      -1.078  10.093  19.344  0.00  0.00    +0.000 C 
BRANCH  25  27
ATOM     26  C   UNL     1      -2.471   9.883  17.192  0.00  0.00    +0.000 C 
ATOM     27  C   UNL     1      -1.592  10.764  18.061  0.00  0.00    +0.000 C 
ENDBRANCH  25  27
ENDBRANCH  17  25
ENDBRANCH   1  17
TORSDOF 5
ENDMDL
