MODEL 1
REMARK VINA RESULT:      -6.8      0.000      0.000
REMARK  Name = 
REMARK  12 active torsions:
REMARK  status: ('A' for Active; 'I' for Inactive)
REMARK    1  A    between atoms: C_1  and  C_2
REMARK    2  A    between atoms: C_2  and  O_4
REMARK    3  A    between atoms: O_4  and  C_5
REMARK    4  A    between atoms: C_11  and  C_12
REMARK    5  A    between atoms: C_12  and  C_13
REMARK    6  A    between atoms: C_18  and  C_19
REMARK    7  A    between atoms: C_22  and  O_23
REMARK    8  A    between atoms: O_23  and  C_24
REMARK    9  A    between atoms: C_24  and  C_25
REMARK   10  A    between atoms: C_27  and  C_28
REMARK   11  A    between atoms: C_27  and  C_29
REMARK   12  A    between atoms: C_29  and  O_30
REMARK                            x       y       z     vdW  Elec       q    Type
REMARK                         _______ _______ _______ _____ _____    ______ ____
ROOT
ATOM      1  C   UNL     1       0.660   8.902  19.861  0.00  0.00    +0.000 C 
ATOM      2  C   UNL     1       0.867   9.345  18.423  0.00  0.00    +0.000 C 
ATOM      3  C   UNL     1      -0.325  10.021  17.808  0.00  0.00    +0.000 C 
ATOM      4  C   UNL     1      -0.831  11.209  18.646  0.00  0.00    +0.000 C 
ATOM      5  C   UNL     1      -0.926  10.952  20.176  0.00  0.00    +0.000 C 
ATOM      6  C   UNL     1       0.363  10.236  20.721  0.00  0.00    +0.000 C 
ATOM      7  C   UNL     1       1.612  11.150  20.603  0.00  0.00    +0.000 C 
ATOM      8  C   UNL     1       0.161   9.837  22.198  0.00  0.00    +0.000 C 
ATOM      9  C   UNL     1      -0.881  10.536  23.058  0.00  0.00    +0.000 C 
ATOM     10  C   UNL     1      -1.718  11.702  22.524  0.00  0.00    +0.000 C 
ATOM     11  C   UNL     1      -1.430  12.195  21.064  0.00  0.00    +0.000 C 
ATOM     12  C   UNL     1      -2.793  12.699  20.493  0.00  0.00    +0.000 C 
ATOM     13  C   UNL     1       2.258   9.576  17.851  0.00  0.00    +0.000 C 
ATOM     14  O   UNL     1       1.494   8.407  17.540  0.00  0.00    +0.000 OA
ENDROOT
BRANCH   1  15
ATOM     15  C   UNL     1       1.784   8.010  20.479  0.00  0.00    +0.000 C 
BRANCH  15  22
ATOM     16  C   UNL     1       3.656   5.468  19.513  0.00  0.00    +0.000 C 
ATOM     17  C   UNL     1       3.561   4.107  18.845  0.00  0.00    +0.000 C 
ATOM     18  O   UNL     1       2.735   3.303  19.684  0.00  0.00    +0.000 OA
ATOM     19  C   UNL     1       1.937   4.107  20.432  0.00  0.00    +0.000 C 
ATOM     20  O   UNL     1       1.019   3.722  21.122  0.00  0.00    +0.000 OA
ATOM     21  C   UNL     1       2.359   5.513  20.240  0.00  0.00    +0.000 C 
ATOM     22  C   UNL     1       1.585   6.529  20.658  0.00  0.00    +0.000 C 
BRANCH  16  23
ATOM     23  O   UNL     1       3.796   6.528  18.568  0.00  0.00    +0.000 OA
BRANCH  23  25
ATOM     24  C   UNL     1       4.659   6.774  16.393  0.00  0.00    +0.000 C 
ATOM     25  C   UNL     1       4.935   6.450  17.829  0.00  0.00    +0.000 C 
ATOM     26  O   UNL     1       6.043   6.191  18.271  0.00  0.00    +0.000 OA
ENDBRANCH  23  25
ENDBRANCH  16  23
ENDBRANCH  15  22
ENDBRANCH   1  15
BRANCH  10  27
ATOM     27  O   UNL     1      -1.633  12.809  23.469  0.00  0.00    +0.000 OA
BRANCH  27  28
ATOM     28  C   UNL     1      -2.798  13.433  23.805  0.00  0.00    +0.000 C 
ATOM     29  C   UNL     1      -3.851  12.439  24.201  0.00  0.00    +0.000 C 
ATOM     30  O   UNL     1      -2.988  14.640  23.761  0.00  0.00    +0.000 OA
ENDBRANCH  27  28
ENDBRANCH  10  27
BRANCH  11  31
ATOM     31  C   UNL     1      -0.566  13.491  21.124  0.00  0.00    +0.000 C 
BRANCH  31  32
ATOM     32  O   UNL     1      -1.340  14.678  21.075  0.00  0.00    +0.000 OA
ATOM     33  H   UNL     1      -1.065  15.237  21.825  0.00  0.00    +0.000 HD
ENDBRANCH  31  32
ENDBRANCH  11  31
TORSDOF 8
ENDMDL
MODEL 2
REMARK VINA RESULT:      -6.7      2.552      9.581
REMARK  Name = 
REMARK  12 active torsions:
REMARK  status: ('A' for Active; 'I' for Inactive)
REMARK    1  A    between atoms: C_1  and  C_2
REMARK    2  A    between atoms: C_2  and  O_4
REMARK    3  A    between atoms: O_4  and  C_5
REMARK    4  A    between atoms: C_11  and  C_12
REMARK    5  A    between atoms: C_12  and  C_13
REMARK    6  A    between atoms: C_18  and  C_19
REMARK    7  A    between atoms: C_22  and  O_23
REMARK    8  A    between atoms: O_23  and  C_24
REMARK    9  A    between atoms: C_24  and  C_25
REMARK   10  A    between atoms: C_27  and  C_28
REMARK   11  A    between atoms: C_27  and  C_29
REMARK   12  A    between atoms: C_29  and  O_30
REMARK                            x       y       z     vdW  Elec       q    Type
REMARK                         _______ _______ _______ _____ _____    ______ ____
ROOT
ATOM      1  C   UNL     1       2.520   6.221  18.412  0.00  0.00    +0.000 C 
ATOM      2  C   UNL     1       2.190   5.093  19.374  0.00  0.00    +0.000 C 
ATOM      3  C   UNL     1       2.217   3.725  18.753  0.00  0.00    +0.000 C 
ATOM      4  C   UNL     1       3.548   3.424  18.042  0.00  0.00    +0.000 C 
ATOM      5  C   UNL     1       4.103   4.571  17.151  0.00  0.00    +0.000 C 
ATOM      6  C   UNL     1       4.023   5.959  17.885  0.00  0.00    +0.000 C 
ATOM      7  C   UNL     1       4.961   6.001  19.122  0.00  0.00    +0.000 C 
ATOM      8  C   UNL     1       4.411   7.093  16.913  0.00  0.00    +0.000 C 
ATOM      9  C   UNL     1       5.244   6.805  15.673  0.00  0.00    +0.000 C 
ATOM     10  C   UNL     1       5.791   5.407  15.375  0.00  0.00    +0.000 C 
ATOM     11  C   UNL     1       5.506   4.276  16.423  0.00  0.00    +0.000 C 
ATOM     12  C   UNL     1       5.381   2.947  15.614  0.00  0.00    +0.000 C 
ATOM     13  C   UNL     1       2.348   5.255  20.879  0.00  0.00    +0.000 C 
ATOM     14  O   UNL     1       1.067   5.290  20.242  0.00  0.00    +0.000 OA
ENDROOT
BRANCH   1  15
ATOM     15  C   UNL     1       2.299   7.673  18.946  0.00  0.00    +0.000 C 
BRANCH  15  22
ATOM     16  C   UNL     1       0.769  10.268  20.293  0.00  0.00    +0.000 C 
ATOM     17  C   UNL     1      -0.618  10.842  20.526  0.00  0.00    +0.000 C 
ATOM     18  O   UNL     1      -1.188  11.056  19.236  0.00  0.00    +0.000 OA
ATOM     19  C   UNL     1      -0.583  10.238  18.338  0.00  0.00    +0.000 C 
ATOM     20  O   UNL     1      -0.952  10.071  17.196  0.00  0.00    +0.000 OA
ATOM     21  C   UNL     1       0.569   9.577  18.992  0.00  0.00    +0.000 C 
ATOM     22  C   UNL     1       1.185   8.533  18.413  0.00  0.00    +0.000 C 
BRANCH  16  23
ATOM     23  O   UNL     1       1.170   9.380  21.335  0.00  0.00    +0.000 OA
BRANCH  23  25
ATOM     24  C   UNL     1      -0.012   9.532  23.364  0.00  0.00    +0.000 C 
ATOM     25  C   UNL     1       0.127   8.856  22.034  0.00  0.00    +0.000 C 
ATOM     26  O   UNL     1      -0.623   7.983  21.629  0.00  0.00    +0.000 OA
ENDBRANCH  23  25
ENDBRANCH  16  23
ENDBRANCH  15  22
ENDBRANCH   1  15
BRANCH  10  27
ATOM     27  O   UNL     1       7.219   5.511  15.103  0.00  0.00    +0.000 OA
BRANCH  27  28
ATOM     28  C   UNL     1       7.620   5.358  13.808  0.00  0.00    +0.000 C 
ATOM     29  C   UNL     1       6.742   4.384  13.079  0.00  0.00    +0.000 C 
ATOM     30  O   UNL     1       8.589   5.907  13.302  0.00  0.00    +0.000 OA
ENDBRANCH  27  28
ENDBRANCH  10  27
BRANCH  11  31
ATOM     31  C   UNL     1       6.783   4.049  17.288  0.00  0.00    +0.000 C 
BRANCH  31  32
ATOM     32  O   UNL     1       7.450   5.254  17.621  0.00  0.00    +0.000 OA
ATOM     33  H   UNL     1       6.874   5.747  18.235  0.00  0.00    +0.000 HD
ENDBRANCH  31  32
ENDBRANCH  11  31
TORSDOF 8
ENDMDL
MODEL 3
REMARK VINA RESULT:      -6.4      2.563      9.516
REMARK  Name = 
REMARK  12 active torsions:
REMARK  status: ('A' for Active; 'I' for Inactive)
REMARK    1  A    between atoms: C_1  and  C_2
REMARK    2  A    between atoms: C_2  and  O_4
REMARK    3  A    between atoms: O_4  and  C_5
REMARK    4  A    between atoms: C_11  and  C_12
REMARK    5  A    between atoms: C_12  and  C_13
REMARK    6  A    between atoms: C_18  and  C_19
REMARK    7  A    between atoms: C_22  and  O_23
REMARK    8  A    between atoms: O_23  and  C_24
REMARK    9  A    between atoms: C_24  and  C_25
REMARK   10  A    between atoms: C_27  and  C_28
REMARK   11  A    between atoms: C_27  and  C_29
REMARK   12  A    between atoms: C_29  and  O_30
REMARK                            x       y       z     vdW  Elec       q    Type
REMARK                         _______ _______ _______ _____ _____    ______ ____
ROOT
ATOM      1  C   UNL     1       2.304   6.204  18.291  0.00  0.00    +0.000 C 
ATOM      2  C   UNL     1       2.118   5.204  19.419  0.00  0.00    +0.000 C 
ATOM      3  C   UNL     1       2.376   3.777  19.027  0.00  0.00    +0.000 C 
ATOM      4  C   UNL     1       3.762   3.580  18.386  0.00  0.00    +0.000 C 
ATOM      5  C   UNL     1       4.164   4.645  17.327  0.00  0.00    +0.000 C 
ATOM      6  C   UNL     1       3.847   6.102  17.828  0.00  0.00    +0.000 C 
ATOM      7  C   UNL     1       4.724   6.484  19.050  0.00  0.00    +0.000 C 
ATOM      8  C   UNL     1       4.090   7.115  16.690  0.00  0.00    +0.000 C 
ATOM      9  C   UNL     1       5.000   6.769  15.520  0.00  0.00    +0.000 C 
ATOM     10  C   UNL     1       5.764   5.445  15.456  0.00  0.00    +0.000 C 
ATOM     11  C   UNL     1       5.620   4.463  16.670  0.00  0.00    +0.000 C 
ATOM     12  C   UNL     1       5.728   3.019  16.085  0.00  0.00    +0.000 C 
ATOM     13  C   UNL     1       2.197   5.624  20.880  0.00  0.00    +0.000 C 
ATOM     14  O   UNL     1       0.949   5.356  20.233  0.00  0.00    +0.000 OA
ENDROOT
BRANCH   1  15
ATOM     15  C   UNL     1       1.845   7.669  18.582  0.00  0.00    +0.000 C 
BRANCH  15  22
ATOM     16  C   UNL     1      -0.219   9.820  20.000  0.00  0.00    +0.000 C 
ATOM     17  C   UNL     1      -0.227  11.047  20.895  0.00  0.00    +0.000 C 
ATOM     18  O   UNL     1       0.358  10.647  22.133  0.00  0.00    +0.000 OA
ATOM     19  C   UNL     1       1.154   9.567  21.925  0.00  0.00    +0.000 C 
ATOM     20  O   UNL     1       1.907   9.096  22.747  0.00  0.00    +0.000 OA
ATOM     21  C   UNL     1       0.963   9.092  20.536  0.00  0.00    +0.000 C 
ATOM     22  C   UNL     1       1.808   8.203  19.988  0.00  0.00    +0.000 C 
BRANCH  16  23
ATOM     23  O   UNL     1      -0.081  10.156  18.620  0.00  0.00    +0.000 OA
BRANCH  23  25
ATOM     24  C   UNL     1      -2.301   9.876  17.893  0.00  0.00    +0.000 C 
ATOM     25  C   UNL     1      -1.155  10.816  18.111  0.00  0.00    +0.000 C 
ATOM     26  O   UNL     1      -1.204  12.017  17.894  0.00  0.00    +0.000 OA
ENDBRANCH  23  25
ENDBRANCH  16  23
ENDBRANCH  15  22
ENDBRANCH   1  15
BRANCH  10  27
ATOM     27  O   UNL     1       7.168   5.727  15.185  0.00  0.00    +0.000 OA
BRANCH  27  28
ATOM     28  C   UNL     1       7.632   5.443  13.934  0.00  0.00    +0.000 C 
ATOM     29  C   UNL     1       6.780   4.405  13.263  0.00  0.00    +0.000 C 
ATOM     30  O   UNL     1       8.630   5.932  13.425  0.00  0.00    +0.000 OA
ENDBRANCH  27  28
ENDBRANCH  10  27
BRANCH  11  31
ATOM     31  C   UNL     1       6.886   4.578  17.573  0.00  0.00    +0.000 C 
BRANCH  31  32
ATOM     32  O   UNL     1       8.025   3.941  17.018  0.00  0.00    +0.000 OA
ATOM     33  H   UNL     1       8.792   4.181  17.569  0.00  0.00    +0.000 HD
ENDBRANCH  31  32
ENDBRANCH  11  31
TORSDOF 8
ENDMDL
MODEL 4
REMARK VINA RESULT:      -6.4      4.867      8.246
REMARK  Name = 
REMARK  12 active torsions:
REMARK  status: ('A' for Active; 'I' for Inactive)
REMARK    1  A    between atoms: C_1  and  C_2
REMARK    2  A    between atoms: C_2  and  O_4
REMARK    3  A    between atoms: O_4  and  C_5
REMARK    4  A    between atoms: C_11  and  C_12
REMARK    5  A    between atoms: C_12  and  C_13
REMARK    6  A    between atoms: C_18  and  C_19
REMARK    7  A    between atoms: C_22  and  O_23
REMARK    8  A    between atoms: O_23  and  C_24
REMARK    9  A    between atoms: C_24  and  C_25
REMARK   10  A    between atoms: C_27  and  C_28
REMARK   11  A    between atoms: C_27  and  C_29
REMARK   12  A    between atoms: C_29  and  O_30
REMARK                            x       y       z     vdW  Elec       q    Type
REMARK                         _______ _______ _______ _____ _____    ______ ____
ROOT
ATOM      1  C   UNL     1      -2.598  15.236  23.265  0.00  0.00    +0.000 C 
ATOM      2  C   UNL     1      -2.898  16.118  24.464  0.00  0.00    +0.000 C 
ATOM      3  C   UNL     1      -4.218  16.832  24.390  0.00  0.00    +0.000 C 
ATOM      4  C   UNL     1      -5.397  15.873  24.149  0.00  0.00    +0.000 C 
ATOM      5  C   UNL     1      -5.162  14.790  23.057  0.00  0.00    +0.000 C 
ATOM      6  C   UNL     1      -3.753  14.109  23.215  0.00  0.00    +0.000 C 
ATOM      7  C   UNL     1      -3.662  13.294  24.533  0.00  0.00    +0.000 C 
ATOM      8  C   UNL     1      -3.482  13.175  22.018  0.00  0.00    +0.000 C 
ATOM      9  C   UNL     1      -4.628  12.629  21.180  0.00  0.00    +0.000 C 
ATOM     10  C   UNL     1      -6.091  12.920  21.526  0.00  0.00    +0.000 C 
ATOM     11  C   UNL     1      -6.379  13.767  22.814  0.00  0.00    +0.000 C 
ATOM     12  C   UNL     1      -7.674  14.588  22.522  0.00  0.00    +0.000 C 
ATOM     13  C   UNL     1      -2.221  15.896  25.809  0.00  0.00    +0.000 C 
ATOM     14  O   UNL     1      -1.835  16.958  24.931  0.00  0.00    +0.000 OA
ENDROOT
BRANCH   1  15
ATOM     15  C   UNL     1      -1.155  14.640  23.187  0.00  0.00    +0.000 C 
BRANCH  15  22
ATOM     16  C   UNL     1       0.558  12.991  20.898  0.00  0.00    +0.000 C 
ATOM     17  C   UNL     1       1.956  12.870  20.316  0.00  0.00    +0.000 C 
ATOM     18  O   UNL     1       2.279  14.148  19.773  0.00  0.00    +0.000 OA
ATOM     19  C   UNL     1       1.533  15.100  20.390  0.00  0.00    +0.000 C 
ATOM     20  O   UNL     1       1.691  16.293  20.263  0.00  0.00    +0.000 OA
ATOM     21  C   UNL     1       0.527  14.436  21.251  0.00  0.00    +0.000 C 
ATOM     22  C   UNL     1      -0.168  15.134  22.164  0.00  0.00    +0.000 C 
BRANCH  16  23
ATOM     23  O   UNL     1       0.365  12.142  22.028  0.00  0.00    +0.000 OA
BRANCH  23  25
ATOM     24  C   UNL     1      -1.039  10.569  23.073  0.00  0.00    +0.000 C 
ATOM     25  C   UNL     1      -0.481  11.104  21.790  0.00  0.00    +0.000 C 
ATOM     26  O   UNL     1      -0.782  10.682  20.685  0.00  0.00    +0.000 OA
ENDBRANCH  23  25
ENDBRANCH  16  23
ENDBRANCH  15  22
ENDBRANCH   1  15
BRANCH  10  27
ATOM     27  O   UNL     1      -6.823  11.661  21.561  0.00  0.00    +0.000 OA
BRANCH  27  28
ATOM     28  C   UNL     1      -7.157  11.099  20.365  0.00  0.00    +0.000 C 
ATOM     29  C   UNL     1      -7.511  12.149  19.352  0.00  0.00    +0.000 C 
ATOM     30  O   UNL     1      -7.203   9.898  20.139  0.00  0.00    +0.000 OA
ENDBRANCH  27  28
ENDBRANCH  10  27
BRANCH  11  31
ATOM     31  C   UNL     1      -6.815  12.811  23.966  0.00  0.00    +0.000 C 
BRANCH  31  32
ATOM     32  O   UNL     1      -7.806  13.373  24.810  0.00  0.00    +0.000 OA
ATOM     33  H   UNL     1      -7.882  14.318  24.582  0.00  0.00    +0.000 HD
ENDBRANCH  31  32
ENDBRANCH  11  31
TORSDOF 8
ENDMDL
MODEL 5
REMARK VINA RESULT:      -6.2      1.993      4.223
REMARK  Name = 
REMARK  12 active torsions:
REMARK  status: ('A' for Active; 'I' for Inactive)
REMARK    1  A    between atoms: C_1  and  C_2
REMARK    2  A    between atoms: C_2  and  O_4
REMARK    3  A    between atoms: O_4  and  C_5
REMARK    4  A    between atoms: C_11  and  C_12
REMARK    5  A    between atoms: C_12  and  C_13
REMARK    6  A    between atoms: C_18  and  C_19
REMARK    7  A    between atoms: C_22  and  O_23
REMARK    8  A    between atoms: O_23  and  C_24
REMARK    9  A    between atoms: C_24  and  C_25
REMARK   10  A    between atoms: C_27  and  C_28
REMARK   11  A    between atoms: C_27  and  C_29
REMARK   12  A    between atoms: C_29  and  O_30
REMARK                            x       y       z     vdW  Elec       q    Type
REMARK                         _______ _______ _______ _____ _____    ______ ____
ROOT
ATOM      1  C   UNL     1       1.553   9.207  19.799  0.00  0.00    +0.000 C 
ATOM      2  C   UNL     1       0.940   8.526  21.010  0.00  0.00    +0.000 C 
ATOM      3  C   UNL     1       0.964   9.356  22.263  0.00  0.00    +0.000 C 
ATOM      4  C   UNL     1       0.319  10.739  22.069  0.00  0.00    +0.000 C 
ATOM      5  C   UNL     1       0.724  11.487  20.767  0.00  0.00    +0.000 C 
ATOM      6  C   UNL     1       0.676  10.533  19.517  0.00  0.00    +0.000 C 
ATOM      7  C   UNL     1      -0.775  10.072  19.212  0.00  0.00    +0.000 C 
ATOM      8  C   UNL     1       1.253  11.253  18.281  0.00  0.00    +0.000 C 
ATOM      9  C   UNL     1       1.309  12.773  18.221  0.00  0.00    +0.000 C 
ATOM     10  C   UNL     1       0.737  13.647  19.340  0.00  0.00    +0.000 C 
ATOM     11  C   UNL     1       0.037  12.923  20.542  0.00  0.00    +0.000 C 
ATOM     12  C   UNL     1       0.300  13.807  21.802  0.00  0.00    +0.000 C 
ATOM     13  C   UNL     1      -0.057   7.385  20.866  0.00  0.00    +0.000 C 
ATOM     14  O   UNL     1       1.307   7.159  21.239  0.00  0.00    +0.000 OA
ENDROOT
BRANCH   1  15
ATOM     15  C   UNL     1       1.748   8.318  18.529  0.00  0.00    +0.000 C 
BRANCH  15  22
ATOM     16  C   UNL     1       3.002   5.338  17.863  0.00  0.00    +0.000 C 
ATOM     17  C   UNL     1       4.231   4.481  18.116  0.00  0.00    +0.000 C 
ATOM     18  O   UNL     1       5.334   5.178  17.541  0.00  0.00    +0.000 OA
ATOM     19  C   UNL     1       5.037   6.501  17.462  0.00  0.00    +0.000 C 
ATOM     20  O   UNL     1       5.827   7.370  17.168  0.00  0.00    +0.000 OA
ATOM     21  C   UNL     1       3.613   6.694  17.818  0.00  0.00    +0.000 C 
ATOM     22  C   UNL     1       3.124   7.920  18.068  0.00  0.00    +0.000 C 
BRANCH  16  23
ATOM     23  O   UNL     1       2.028   5.206  18.897  0.00  0.00    +0.000 OA
BRANCH  23  25
ATOM     24  C   UNL     1       1.041   3.577  20.279  0.00  0.00    +0.000 C 
ATOM     25  C   UNL     1       1.382   4.009  18.886  0.00  0.00    +0.000 C 
ATOM     26  O   UNL     1       1.082   3.382  17.882  0.00  0.00    +0.000 OA
ENDBRANCH  23  25
ENDBRANCH  16  23
ENDBRANCH  15  22
ENDBRANCH   1  15
BRANCH  10  27
ATOM     27  O   UNL     1      -0.149  14.642  18.750  0.00  0.00    +0.000 OA
BRANCH  27  28
ATOM     28  C   UNL     1       0.279  15.937  18.749  0.00  0.00    +0.000 C 
ATOM     29  C   UNL     1      -0.857  16.884  19.006  0.00  0.00    +0.000 C 
ATOM     30  O   UNL     1       1.427  16.299  18.532  0.00  0.00    +0.000 OA
ENDBRANCH  27  28
ENDBRANCH  10  27
BRANCH  11  31
ATOM     31  C   UNL     1      -1.509  13.011  20.360  0.00  0.00    +0.000 C 
BRANCH  31  32
ATOM     32  O   UNL     1      -2.074  14.168  20.953  0.00  0.00    +0.000 OA
ATOM     33  H   UNL     1      -2.334  13.932  21.863  0.00  0.00    +0.000 HD
ENDBRANCH  31  32
ENDBRANCH  11  31
TORSDOF 8
ENDMDL
MODEL 6
REMARK VINA RESULT:      -6.1      2.632      9.011
REMARK  Name = 
REMARK  12 active torsions:
REMARK  status: ('A' for Active; 'I' for Inactive)
REMARK    1  A    between atoms: C_1  and  C_2
REMARK    2  A    between atoms: C_2  and  O_4
REMARK    3  A    between atoms: O_4  and  C_5
REMARK    4  A    between atoms: C_11  and  C_12
REMARK    5  A    between atoms: C_12  and  C_13
REMARK    6  A    between atoms: C_18  and  C_19
REMARK    7  A    between atoms: C_22  and  O_23
REMARK    8  A    between atoms: O_23  and  C_24
REMARK    9  A    between atoms: C_24  and  C_25
REMARK   10  A    between atoms: C_27  and  C_28
REMARK   11  A    between atoms: C_27  and  C_29
REMARK   12  A    between atoms: C_29  and  O_30
REMARK                            x       y       z     vdW  Elec       q    Type
REMARK                         _______ _______ _______ _____ _____    ______ ____
ROOT
ATOM      1  C   UNL     1       2.213   5.612  18.481  0.00  0.00    +0.000 C 
ATOM      2  C   UNL     1       1.889   4.181  18.873  0.00  0.00    +0.000 C 
ATOM      3  C   UNL     1       2.278   3.156  17.845  0.00  0.00    +0.000 C 
ATOM      4  C   UNL     1       3.759   3.257  17.440  0.00  0.00    +0.000 C 
ATOM      5  C   UNL     1       4.281   4.697  17.176  0.00  0.00    +0.000 C 
ATOM      6  C   UNL     1       3.815   5.693  18.300  0.00  0.00    +0.000 C 
ATOM      7  C   UNL     1       4.455   5.342  19.670  0.00  0.00    +0.000 C 
ATOM      8  C   UNL     1       4.196   7.138  17.915  0.00  0.00    +0.000 C 
ATOM      9  C   UNL     1       5.305   7.410  16.910  0.00  0.00    +0.000 C 
ATOM     10  C   UNL     1       6.132   6.278  16.295  0.00  0.00    +0.000 C 
ATOM     11  C   UNL     1       5.834   4.816  16.775  0.00  0.00    +0.000 C 
ATOM     12  C   UNL     1       6.109   3.886  15.552  0.00  0.00    +0.000 C 
ATOM     13  C   UNL     1       1.701   3.774  20.328  0.00  0.00    +0.000 C 
ATOM     14  O   UNL     1       0.593   3.941  19.437  0.00  0.00    +0.000 OA
ENDROOT
BRANCH   1  15
ATOM     15  C   UNL     1       1.641   6.730  19.410  0.00  0.00    +0.000 C 
BRANCH  15  22
ATOM     16  C   UNL     1       1.402   9.761  20.695  0.00  0.00    +0.000 C 
ATOM     17  C   UNL     1       0.417  10.904  20.873  0.00  0.00    +0.000 C 
ATOM     18  O   UNL     1       0.050  11.328  19.562  0.00  0.00    +0.000 OA
ATOM     19  C   UNL     1       0.251  10.309  18.688  0.00  0.00    +0.000 C 
ATOM     20  O   UNL     1      -0.114  10.306  17.533  0.00  0.00    +0.000 OA
ATOM     21  C   UNL     1       0.957   9.211  19.387  0.00  0.00    +0.000 C 
ATOM     22  C   UNL     1       1.055   7.990  18.834  0.00  0.00    +0.000 C 
BRANCH  16  23
ATOM     23  O   UNL     1       1.322   8.806  21.752  0.00  0.00    +0.000 OA
BRANCH  23  25
ATOM     24  C   UNL     1      -0.016   9.522  23.550  0.00  0.00    +0.000 C 
ATOM     25  C   UNL     1       0.081   8.704  22.299  0.00  0.00    +0.000 C 
ATOM     26  O   UNL     1      -0.846   8.067  21.824  0.00  0.00    +0.000 OA
ENDBRANCH  23  25
ENDBRANCH  16  23
ENDBRANCH  15  22
ENDBRANCH   1  15
BRANCH  10  27
ATOM     27  O   UNL     1       7.546   6.595  16.451  0.00  0.00    +0.000 OA
BRANCH  27  28
ATOM     28  C   UNL     1       7.872   7.580  17.336  0.00  0.00    +0.000 C 
ATOM     29  C   UNL     1       8.161   7.013  18.696  0.00  0.00    +0.000 C 
ATOM     30  O   UNL     1       7.895   8.776  17.082  0.00  0.00    +0.000 OA
ENDBRANCH  27  28
ENDBRANCH  10  27
BRANCH  11  31
ATOM     31  C   UNL     1       6.924   4.385  17.804  0.00  0.00    +0.000 C 
BRANCH  31  32
ATOM     32  O   UNL     1       8.148   4.011  17.194  0.00  0.00    +0.000 OA
ATOM     33  H   UNL     1       8.089   3.061  16.980  0.00  0.00    +0.000 HD
ENDBRANCH  31  32
ENDBRANCH  11  31
TORSDOF 8
ENDMDL
MODEL 7
REMARK VINA RESULT:      -6.1      4.380      7.928
REMARK  Name = 
REMARK  12 active torsions:
REMARK  status: ('A' for Active; 'I' for Inactive)
REMARK    1  A    between atoms: C_1  and  C_2
REMARK    2  A    between atoms: C_2  and  O_4
REMARK    3  A    between atoms: O_4  and  C_5
REMARK    4  A    between atoms: C_11  and  C_12
REMARK    5  A    between atoms: C_12  and  C_13
REMARK    6  A    between atoms: C_18  and  C_19
REMARK    7  A    between atoms: C_22  and  O_23
REMARK    8  A    between atoms: O_23  and  C_24
REMARK    9  A    between atoms: C_24  and  C_25
REMARK   10  A    between atoms: C_27  and  C_28
REMARK   11  A    between atoms: C_27  and  C_29
REMARK   12  A    between atoms: C_29  and  O_30
REMARK                            x       y       z     vdW  Elec       q    Type
REMARK                         _______ _______ _______ _____ _____    ______ ____
ROOT
ATOM      1  C   UNL     1      -2.422  14.803  23.189  0.00  0.00    +0.000 C 
ATOM      2  C   UNL     1      -2.595  15.746  24.366  0.00  0.00    +0.000 C 
ATOM      3  C   UNL     1      -3.829  16.600  24.297  0.00  0.00    +0.000 C 
ATOM      4  C   UNL     1      -5.112  15.772  24.108  0.00  0.00    +0.000 C 
ATOM      5  C   UNL     1      -5.024  14.640  23.045  0.00  0.00    +0.000 C 
ATOM      6  C   UNL     1      -3.697  13.812  23.196  0.00  0.00    +0.000 C 
ATOM      7  C   UNL     1      -3.667  13.028  24.536  0.00  0.00    +0.000 C 
ATOM      8  C   UNL     1      -3.558  12.820  22.022  0.00  0.00    +0.000 C 
ATOM      9  C   UNL     1      -4.777  12.382  21.224  0.00  0.00    +0.000 C 
ATOM     10  C   UNL     1      -6.190  12.845  21.590  0.00  0.00    +0.000 C 
ATOM     11  C   UNL     1      -6.352  13.753  22.857  0.00  0.00    +0.000 C 
ATOM     12  C   UNL     1      -7.554  14.706  22.566  0.00  0.00    +0.000 C 
ATOM     13  C   UNL     1      -1.917  15.487  25.704  0.00  0.00    +0.000 C 
ATOM     14  O   UNL     1      -1.435  16.475  24.788  0.00  0.00    +0.000 OA
ENDROOT
BRANCH   1  15
ATOM     15  C   UNL     1      -1.057  14.048  23.101  0.00  0.00    +0.000 C 
BRANCH  15  22
ATOM     16  C   UNL     1       0.392  12.936  20.352  0.00  0.00    +0.000 C 
ATOM     17  C   UNL     1       1.763  12.690  19.746  0.00  0.00    +0.000 C 
ATOM     18  O   UNL     1       2.412  13.959  19.688  0.00  0.00    +0.000 OA
ATOM     19  C   UNL     1       1.862  14.787  20.612  0.00  0.00    +0.000 C 
ATOM     20  O   UNL     1       2.300  15.874  20.914  0.00  0.00    +0.000 OA
ATOM     21  C   UNL     1       0.670  14.129  21.195  0.00  0.00    +0.000 C 
ATOM     22  C   UNL     1       0.089  14.612  22.306  0.00  0.00    +0.000 C 
BRANCH  16  23
ATOM     23  O   UNL     1      -0.073  11.820  21.109  0.00  0.00    +0.000 OA
BRANCH  23  25
ATOM     24  C   UNL     1      -1.540  11.294  19.346  0.00  0.00    +0.000 C 
ATOM     25  C   UNL     1      -0.538  10.798  20.342  0.00  0.00    +0.000 C 
ATOM     26  O   UNL     1      -0.168   9.637  20.421  0.00  0.00    +0.000 OA
ENDBRANCH  23  25
ENDBRANCH  16  23
ENDBRANCH  15  22
ENDBRANCH   1  15
BRANCH  10  27
ATOM     27  O   UNL     1      -7.057  11.676  21.677  0.00  0.00    +0.000 OA
BRANCH  27  28
ATOM     28  C   UNL     1      -7.492  11.132  20.505  0.00  0.00    +0.000 C 
ATOM     29  C   UNL     1      -7.780   9.668  20.661  0.00  0.00    +0.000 C 
ATOM     30  O   UNL     1      -7.603  11.736  19.447  0.00  0.00    +0.000 OA
ENDBRANCH  27  28
ENDBRANCH  10  27
BRANCH  11  31
ATOM     31  C   UNL     1      -6.865  12.884  24.046  0.00  0.00    +0.000 C 
BRANCH  31  32
ATOM     32  O   UNL     1      -7.916  13.500  24.771  0.00  0.00    +0.000 OA
ATOM     33  H   UNL     1      -7.907  13.126  25.672  0.00  0.00    +0.000 HD
ENDBRANCH  31  32
ENDBRANCH  11  31
TORSDOF 8
ENDMDL
MODEL 8
REMARK VINA RESULT:      -5.9      2.285      4.532
REMARK  Name = 
REMARK  12 active torsions:
REMARK  status: ('A' for Active; 'I' for Inactive)
REMARK    1  A    between atoms: C_1  and  C_2
REMARK    2  A    between atoms: C_2  and  O_4
REMARK    3  A    between atoms: O_4  and  C_5
REMARK    4  A    between atoms: C_11  and  C_12
REMARK    5  A    between atoms: C_12  and  C_13
REMARK    6  A    between atoms: C_18  and  C_19
REMARK    7  A    between atoms: C_22  and  O_23
REMARK    8  A    between atoms: O_23  and  C_24
REMARK    9  A    between atoms: C_24  and  C_25
REMARK   10  A    between atoms: C_27  and  C_28
REMARK   11  A    between atoms: C_27  and  C_29
REMARK   12  A    between atoms: C_29  and  O_30
REMARK                            x       y       z     vdW  Elec       q    Type
REMARK                         _______ _______ _______ _____ _____    ______ ____
ROOT
ATOM      1  C   UNL     1       1.359   9.349  19.968  0.00  0.00    +0.000 C 
ATOM      2  C   UNL     1       0.476   8.975  21.146  0.00  0.00    +0.000 C 
ATOM      3  C   UNL     1       0.611   9.887  22.332  0.00  0.00    +0.000 C 
ATOM      4  C   UNL     1       0.391  11.366  21.971  0.00  0.00    +0.000 C 
ATOM      5  C   UNL     1       1.102  11.849  20.675  0.00  0.00    +0.000 C 
ATOM      6  C   UNL     1       0.908  10.826  19.497  0.00  0.00    +0.000 C 
ATOM      7  C   UNL     1      -0.579  10.739  19.061  0.00  0.00    +0.000 C 
ATOM      8  C   UNL     1       1.771  11.244  18.288  0.00  0.00    +0.000 C 
ATOM      9  C   UNL     1       2.246  12.680  18.130  0.00  0.00    +0.000 C 
ATOM     10  C   UNL     1       1.836  13.779  19.114  0.00  0.00    +0.000 C 
ATOM     11  C   UNL     1       0.859  13.388  20.275  0.00  0.00    +0.000 C 
ATOM     12  C   UNL     1       1.237  14.288  21.493  0.00  0.00    +0.000 C 
ATOM     13  C   UNL     1      -0.778   8.131  20.967  0.00  0.00    +0.000 C 
ATOM     14  O   UNL     1       0.431   7.590  21.508  0.00  0.00    +0.000 OA
ENDROOT
BRANCH   1  15
ATOM     15  C   UNL     1       1.418   8.320  18.793  0.00  0.00    +0.000 C 
BRANCH  15  22
ATOM     16  C   UNL     1       2.838   5.341  18.848  0.00  0.00    +0.000 C 
ATOM     17  C   UNL     1       4.169   4.662  19.123  0.00  0.00    +0.000 C 
ATOM     18  O   UNL     1       5.095   5.191  18.177  0.00  0.00    +0.000 OA
ATOM     19  C   UNL     1       4.661   6.406  17.755  0.00  0.00    +0.000 C 
ATOM     20  O   UNL     1       5.307   7.173  17.075  0.00  0.00    +0.000 OA
ATOM     21  C   UNL     1       3.298   6.639  18.285  0.00  0.00    +0.000 C 
ATOM     22  C   UNL     1       2.737   7.858  18.235  0.00  0.00    +0.000 C 
BRANCH  16  23
ATOM     23  O   UNL     1       2.055   5.498  20.030  0.00  0.00    +0.000 OA
BRANCH  23  25
ATOM     24  C   UNL     1       0.844   3.492  19.815  0.00  0.00    +0.000 C 
ATOM     25  C   UNL     1       1.767   4.324  20.651  0.00  0.00    +0.000 C 
ATOM     26  O   UNL     1       2.223   3.968  21.727  0.00  0.00    +0.000 OA
ENDBRANCH  23  25
ENDBRANCH  16  23
ENDBRANCH  15  22
ENDBRANCH   1  15
BRANCH  10  27
ATOM     27  O   UNL     1       1.314  14.912  18.360  0.00  0.00    +0.000 OA
BRANCH  27  28
ATOM     28  C   UNL     1       1.947  16.110  18.514  0.00  0.00    +0.000 C 
ATOM     29  C   UNL     1       3.188  16.181  17.673  0.00  0.00    +0.000 C 
ATOM     30  O   UNL     1       1.585  17.006  19.264  0.00  0.00    +0.000 OA
ENDBRANCH  27  28
ENDBRANCH  10  27
BRANCH  11  31
ATOM     31  C   UNL     1      -0.581  13.864  19.913  0.00  0.00    +0.000 C 
BRANCH  31  32
ATOM     32  O   UNL     1      -0.838  15.203  20.302  0.00  0.00    +0.000 OA
ATOM     33  H   UNL     1      -0.178  15.442  20.979  0.00  0.00    +0.000 HD
ENDBRANCH  31  32
ENDBRANCH  11  31
TORSDOF 8
ENDMDL
MODEL 9
REMARK VINA RESULT:      -5.9      4.054      8.194
REMARK  Name = 
REMARK  12 active torsions:
REMARK  status: ('A' for Active; 'I' for Inactive)
REMARK    1  A    between atoms: C_1  and  C_2
REMARK    2  A    between atoms: C_2  and  O_4
REMARK    3  A    between atoms: O_4  and  C_5
REMARK    4  A    between atoms: C_11  and  C_12
REMARK    5  A    between atoms: C_12  and  C_13
REMARK    6  A    between atoms: C_18  and  C_19
REMARK    7  A    between atoms: C_22  and  O_23
REMARK    8  A    between atoms: O_23  and  C_24
REMARK    9  A    between atoms: C_24  and  C_25
REMARK   10  A    between atoms: C_27  and  C_28
REMARK   11  A    between atoms: C_27  and  C_29
REMARK   12  A    between atoms: C_29  and  O_30
REMARK                            x       y       z     vdW  Elec       q    Type
REMARK                         _______ _______ _______ _____ _____    ______ ____
ROOT
ATOM      1  C   UNL     1      -0.813  11.749  21.043  0.00  0.00    +0.000 C 
ATOM      2  C   UNL     1       0.523  11.202  20.571  0.00  0.00    +0.000 C 
ATOM      3  C   UNL     1       0.425   9.922  19.792  0.00  0.00    +0.000 C 
ATOM      4  C   UNL     1      -0.539  10.028  18.597  0.00  0.00    +0.000 C 
ATOM      5  C   UNL     1      -1.893  10.733  18.894  0.00  0.00    +0.000 C 
ATOM      6  C   UNL     1      -1.684  12.055  19.719  0.00  0.00    +0.000 C 
ATOM      7  C   UNL     1      -0.915  13.122  18.894  0.00  0.00    +0.000 C 
ATOM      8  C   UNL     1      -3.050  12.631  20.148  0.00  0.00    +0.000 C 
ATOM      9  C   UNL     1      -4.322  12.256  19.402  0.00  0.00    +0.000 C 
ATOM     10  C   UNL     1      -4.296  11.358  18.162  0.00  0.00    +0.000 C 
ATOM     11  C   UNL     1      -2.898  10.871  17.646  0.00  0.00    +0.000 C 
ATOM     12  C   UNL     1      -3.125   9.457  17.026  0.00  0.00    +0.000 C 
ATOM     13  C   UNL     1       1.746  12.097  20.425  0.00  0.00    +0.000 C 
ATOM     14  O   UNL     1       1.593  11.194  21.525  0.00  0.00    +0.000 OA
ENDROOT
BRANCH   1  15
ATOM     15  C   UNL     1      -0.756  12.956  22.034  0.00  0.00    +0.000 C 
BRANCH  15  22
ATOM     16  C   UNL     1      -1.362  15.524  24.018  0.00  0.00    +0.000 C 
ATOM     17  C   UNL     1      -1.682  15.860  25.464  0.00  0.00    +0.000 C 
ATOM     18  O   UNL     1      -2.918  15.215  25.764  0.00  0.00    +0.000 OA
ATOM     19  C   UNL     1      -3.094  14.167  24.919  0.00  0.00    +0.000 C 
ATOM     20  O   UNL     1      -3.965  13.333  25.025  0.00  0.00    +0.000 OA
ATOM     21  C   UNL     1      -2.038  14.206  23.882  0.00  0.00    +0.000 C 
ATOM     22  C   UNL     1      -1.824  13.153  23.076  0.00  0.00    +0.000 C 
BRANCH  16  23
ATOM     23  O   UNL     1       0.042  15.451  23.776  0.00  0.00    +0.000 OA
BRANCH  23  25
ATOM     24  C   UNL     1       0.864  16.154  21.686  0.00  0.00    +0.000 C 
ATOM     25  C   UNL     1       0.534  16.524  23.099  0.00  0.00    +0.000 C 
ATOM     26  O   UNL     1       0.656  17.648  23.558  0.00  0.00    +0.000 OA
ENDBRANCH  23  25
ENDBRANCH  16  23
ENDBRANCH  15  22
ENDBRANCH   1  15
BRANCH  10  27
ATOM     27  O   UNL     1      -5.040  12.014  17.094  0.00  0.00    +0.000 OA
BRANCH  27  28
ATOM     28  C   UNL     1      -6.345  12.324  17.342  0.00  0.00    +0.000 C 
ATOM     29  C   UNL     1      -6.668  13.717  16.885  0.00  0.00    +0.000 C 
ATOM     30  O   UNL     1      -7.150  11.589  17.896  0.00  0.00    +0.000 OA
ENDBRANCH  27  28
ENDBRANCH  10  27
BRANCH  11  31
ATOM     31  C   UNL     1      -2.477  11.736  16.419  0.00  0.00    +0.000 C 
BRANCH  31  32
ATOM     32  O   UNL     1      -3.158  11.379  15.227  0.00  0.00    +0.000 OA
ATOM     33  H   UNL     1      -3.274  10.411  15.237  0.00  0.00    +0.000 HD
ENDBRANCH  31  32
ENDBRANCH  11  31
TORSDOF 8
ENDMDL
