MODEL 1
REMARK VINA RESULT:      -7.7      0.000      0.000
REMARK  Name = 
REMARK  4 active torsions:
REMARK  status: ('A' for Active; 'I' for Inactive)
REMARK    1  A    between atoms: C_1  and  S_2
REMARK    2  A    between atoms: S_2  and  C_5
REMARK    3  A    between atoms: C_8  and  N_9
REMARK    4  A    between atoms: C_13  and  C_14
REMARK                            x       y       z     vdW  Elec       q    Type
REMARK                         _______ _______ _______ _____ _____    ______ ____
ROOT
ATOM      1  N   UNL     1       2.701   4.770  20.210  0.00  0.00    +0.000 N 
ATOM      2  N   UNL     1       2.211   4.220  21.350  0.00  0.00    +0.000 NA
ATOM      3  N   UNL     1       2.492   2.927  21.345  0.00  0.00    +0.000 NA
ATOM      4  C   UNL     1       3.279   2.679  20.264  0.00  0.00    +0.000 A 
ATOM      5  C   UNL     1       3.505   3.839  19.544  0.00  0.00    +0.000 A 
ENDROOT
BRANCH   5   6
ATOM      6  C   UNL     1       4.438   4.084  18.433  0.00  0.00    +0.000 A 
ATOM      7  C   UNL     1       4.077   3.758  17.116  0.00  0.00    +0.000 A 
ATOM      8  C   UNL     1       4.951   4.002  16.050  0.00  0.00    +0.000 A 
ATOM      9  C   UNL     1       6.190   4.593  16.287  0.00  0.00    +0.000 A 
ATOM     10 CL   UNL     1       7.246   4.942  14.978  0.00  0.00    +0.000 Cl
ATOM     11  C   UNL     1       6.580   4.895  17.586  0.00  0.00    +0.000 A 
ATOM     12  C   UNL     1       5.724   4.603  18.650  0.00  0.00    +0.000 A 
ENDBRANCH   5   6
BRANCH   1  16
ATOM     13  C   UNL     1       1.599   8.684  19.127  0.00  0.00    +0.000 A 
ATOM     14  C   UNL     1       2.239   7.858  18.197  0.00  0.00    +0.000 A 
ATOM     15  C   UNL     1       2.643   6.575  18.577  0.00  0.00    +0.000 A 
ATOM     16  C   UNL     1       2.377   6.112  19.875  0.00  0.00    +0.000 A 
ATOM     17  C   UNL     1       1.787   6.968  20.814  0.00  0.00    +0.000 A 
ATOM     18  C   UNL     1       1.394   8.254  20.438  0.00  0.00    +0.000 A 
BRANCH  13  20
ATOM     19  C   UNL     1       0.920  11.171  20.212  0.00  0.00    +0.000 C 
ATOM     20  S   UNL     1       1.124  10.335  18.662  0.00  0.00    +0.000 S 
ATOM     21  O   UNL     1      -0.178  10.246  18.026  0.00  0.00    +0.000 OA
ATOM     22  O   UNL     1       2.250  10.933  17.974  0.00  0.00    +0.000 OA
ENDBRANCH  13  20
ENDBRANCH   1  16
TORSDOF 3
ENDMDL
MODEL 2
REMARK VINA RESULT:      -7.7      0.097      1.040
REMARK  Name = 
REMARK  4 active torsions:
REMARK  status: ('A' for Active; 'I' for Inactive)
REMARK    1  A    between atoms: C_1  and  S_2
REMARK    2  A    between atoms: S_2  and  C_5
REMARK    3  A    between atoms: C_8  and  N_9
REMARK    4  A    between atoms: C_13  and  C_14
REMARK                            x       y       z     vdW  Elec       q    Type
REMARK                         _______ _______ _______ _____ _____    ______ ____
ROOT
ATOM      1  N   UNL     1       2.683   4.754  20.232  0.00  0.00    +0.000 N 
ATOM      2  N   UNL     1       2.233   4.227  21.398  0.00  0.00    +0.000 NA
ATOM      3  N   UNL     1       2.589   2.955  21.448  0.00  0.00    +0.000 NA
ATOM      4  C   UNL     1       3.384   2.706  20.374  0.00  0.00    +0.000 A 
ATOM      5  C   UNL     1       3.538   3.844  19.602  0.00  0.00    +0.000 A 
ENDROOT
BRANCH   5   6
ATOM      6  C   UNL     1       4.449   4.093  18.474  0.00  0.00    +0.000 A 
ATOM      7  C   UNL     1       4.094   3.705  17.173  0.00  0.00    +0.000 A 
ATOM      8  C   UNL     1       4.948   3.953  16.090  0.00  0.00    +0.000 A 
ATOM      9  C   UNL     1       6.159   4.609  16.296  0.00  0.00    +0.000 A 
ATOM     10 CL   UNL     1       7.187   4.962  14.965  0.00  0.00    +0.000 Cl
ATOM     11  C   UNL     1       6.545   4.973  17.580  0.00  0.00    +0.000 A 
ATOM     12  C   UNL     1       5.712   4.679  18.661  0.00  0.00    +0.000 A 
ENDBRANCH   5   6
BRANCH   1  16
ATOM     13  C   UNL     1       1.627   8.683  19.159  0.00  0.00    +0.000 A 
ATOM     14  C   UNL     1       1.343   8.213  20.445  0.00  0.00    +0.000 A 
ATOM     15  C   UNL     1       1.656   6.892  20.781  0.00  0.00    +0.000 A 
ATOM     16  C   UNL     1       2.279   6.058  19.839  0.00  0.00    +0.000 A 
ATOM     17  C   UNL     1       2.507   6.523  18.538  0.00  0.00    +0.000 A 
ATOM     18  C   UNL     1       2.185   7.839  18.198  0.00  0.00    +0.000 A 
BRANCH  13  20
ATOM     19  C   UNL     1       1.070  11.190  20.267  0.00  0.00    +0.000 C 
ATOM     20  S   UNL     1       1.191  10.350  18.711  0.00  0.00    +0.000 S 
ATOM     21  O   UNL     1      -0.135  10.305  18.121  0.00  0.00    +0.000 OA
ATOM     22  O   UNL     1       2.311  10.911  17.984  0.00  0.00    +0.000 OA
ENDBRANCH  13  20
ENDBRANCH   1  16
TORSDOF 3
ENDMDL
MODEL 3
REMARK VINA RESULT:      -7.6      0.078      1.029
REMARK  Name = 
REMARK  4 active torsions:
REMARK  status: ('A' for Active; 'I' for Inactive)
REMARK    1  A    between atoms: C_1  and  S_2
REMARK    2  A    between atoms: S_2  and  C_5
REMARK    3  A    between atoms: C_8  and  N_9
REMARK    4  A    between atoms: C_13  and  C_14
REMARK                            x       y       z     vdW  Elec       q    Type
REMARK                         _______ _______ _______ _____ _____    ______ ____
ROOT
ATOM      1  N   UNL     1       2.695   4.794  20.178  0.00  0.00    +0.000 N 
ATOM      2  N   UNL     1       2.220   4.228  21.316  0.00  0.00    +0.000 NA
ATOM      3  N   UNL     1       2.503   2.936  21.290  0.00  0.00    +0.000 NA
ATOM      4  C   UNL     1       3.278   2.704  20.197  0.00  0.00    +0.000 A 
ATOM      5  C   UNL     1       3.494   3.874  19.490  0.00  0.00    +0.000 A 
ENDROOT
BRANCH   5   6
ATOM      6  C   UNL     1       4.413   4.135  18.371  0.00  0.00    +0.000 A 
ATOM      7  C   UNL     1       5.687   4.675  18.608  0.00  0.00    +0.000 A 
ATOM      8  C   UNL     1       6.575   4.912  17.551  0.00  0.00    +0.000 A 
ATOM      9  C   UNL     1       6.204   4.595  16.247  0.00  0.00    +0.000 A 
ATOM     10 CL   UNL     1       7.308   4.836  14.953  0.00  0.00    +0.000 Cl
ATOM     11  C   UNL     1       4.936   4.090  15.986  0.00  0.00    +0.000 A 
ATOM     12  C   UNL     1       4.038   3.902  17.039  0.00  0.00    +0.000 A 
ENDBRANCH   5   6
BRANCH   1  16
ATOM     13  C   UNL     1       1.575   8.720  19.160  0.00  0.00    +0.000 A 
ATOM     14  C   UNL     1       2.203   7.907  18.210  0.00  0.00    +0.000 A 
ATOM     15  C   UNL     1       2.614   6.619  18.568  0.00  0.00    +0.000 A 
ATOM     16  C   UNL     1       2.366   6.140  19.864  0.00  0.00    +0.000 A 
ATOM     17  C   UNL     1       1.787   6.983  20.822  0.00  0.00    +0.000 A 
ATOM     18  C   UNL     1       1.387   8.273  20.468  0.00  0.00    +0.000 A 
BRANCH  13  20
ATOM     19  C   UNL     1       0.905  11.191  20.286  0.00  0.00    +0.000 C 
ATOM     20  S   UNL     1       1.091  10.377  18.723  0.00  0.00    +0.000 S 
ATOM     21  O   UNL     1      -0.219  10.293  18.102  0.00  0.00    +0.000 OA
ATOM     22  O   UNL     1       2.207  10.985  18.029  0.00  0.00    +0.000 OA
ENDBRANCH  13  20
ENDBRANCH   1  16
TORSDOF 3
ENDMDL
MODEL 4
REMARK VINA RESULT:      -7.6      0.781      1.731
REMARK  Name = 
REMARK  4 active torsions:
REMARK  status: ('A' for Active; 'I' for Inactive)
REMARK    1  A    between atoms: C_1  and  S_2
REMARK    2  A    between atoms: S_2  and  C_5
REMARK    3  A    between atoms: C_8  and  N_9
REMARK    4  A    between atoms: C_13  and  C_14
REMARK                            x       y       z     vdW  Elec       q    Type
REMARK                         _______ _______ _______ _____ _____    ______ ____
ROOT
ATOM      1  N   UNL     1       2.685   4.675  20.216  0.00  0.00    +0.000 N 
ATOM      2  N   UNL     1       2.234   4.102  21.360  0.00  0.00    +0.000 NA
ATOM      3  N   UNL     1       2.584   2.826  21.355  0.00  0.00    +0.000 NA
ATOM      4  C   UNL     1       3.375   2.618  20.270  0.00  0.00    +0.000 A 
ATOM      5  C   UNL     1       3.534   3.787  19.546  0.00  0.00    +0.000 A 
ENDROOT
BRANCH   5   6
ATOM      6  C   UNL     1       4.444   4.079  18.427  0.00  0.00    +0.000 A 
ATOM      7  C   UNL     1       5.693   4.674  18.663  0.00  0.00    +0.000 A 
ATOM      8  C   UNL     1       6.573   4.941  17.607  0.00  0.00    +0.000 A 
ATOM      9  C   UNL     1       6.220   4.599  16.304  0.00  0.00    +0.000 A 
ATOM     10 CL   UNL     1       7.316   4.877  15.010  0.00  0.00    +0.000 Cl
ATOM     11  C   UNL     1       4.975   4.039  16.044  0.00  0.00    +0.000 A 
ATOM     12  C   UNL     1       4.082   3.821  17.096  0.00  0.00    +0.000 A 
ENDBRANCH   5   6
BRANCH   1  16
ATOM     13  C   UNL     1       1.651   8.652  19.311  0.00  0.00    +0.000 A 
ATOM     14  C   UNL     1       1.377   8.133  20.581  0.00  0.00    +0.000 A 
ATOM     15  C   UNL     1       1.682   6.797  20.861  0.00  0.00    +0.000 A 
ATOM     16  C   UNL     1       2.288   5.997  19.880  0.00  0.00    +0.000 A 
ATOM     17  C   UNL     1       2.505   6.511  18.595  0.00  0.00    +0.000 A 
ATOM     18  C   UNL     1       2.190   7.841  18.312  0.00  0.00    +0.000 A 
BRANCH  13  20
ATOM     19  C   UNL     1      -0.375  10.213  18.179  0.00  0.00    +0.000 C 
ATOM     20  S   UNL     1       1.223  10.338  18.935  0.00  0.00    +0.000 S 
ATOM     21  O   UNL     1       2.160  10.807  17.930  0.00  0.00    +0.000 OA
ATOM     22  O   UNL     1       1.071  11.037  20.195  0.00  0.00    +0.000 OA
ENDBRANCH  13  20
ENDBRANCH   1  16
TORSDOF 3
ENDMDL
MODEL 5
REMARK VINA RESULT:      -7.3      3.730      6.007
REMARK  Name = 
REMARK  4 active torsions:
REMARK  status: ('A' for Active; 'I' for Inactive)
REMARK    1  A    between atoms: C_1  and  S_2
REMARK    2  A    between atoms: S_2  and  C_5
REMARK    3  A    between atoms: C_8  and  N_9
REMARK    4  A    between atoms: C_13  and  C_14
REMARK                            x       y       z     vdW  Elec       q    Type
REMARK                         _______ _______ _______ _____ _____    ______ ____
ROOT
ATOM      1  N   UNL     1       3.218   3.806  19.937  0.00  0.00    +0.000 N 
ATOM      2  N   UNL     1       3.073   2.560  20.456  0.00  0.00    +0.000 NA
ATOM      3  N   UNL     1       2.413   2.657  21.598  0.00  0.00    +0.000 NA
ATOM      4  C   UNL     1       2.019   3.951  21.740  0.00  0.00    +0.000 A 
ATOM      5  C   UNL     1       2.445   4.714  20.667  0.00  0.00    +0.000 A 
ENDROOT
BRANCH   5   6
ATOM      6  C   UNL     1       2.092   6.096  20.303  0.00  0.00    +0.000 A 
ATOM      7  C   UNL     1       1.392   6.913  21.205  0.00  0.00    +0.000 A 
ATOM      8  C   UNL     1       1.066   8.234  20.874  0.00  0.00    +0.000 A 
ATOM      9  C   UNL     1       1.453   8.758  19.643  0.00  0.00    +0.000 A 
ATOM     10 CL   UNL     1       1.101  10.394  19.252  0.00  0.00    +0.000 Cl
ATOM     11  C   UNL     1       2.118   7.958  18.723  0.00  0.00    +0.000 A 
ATOM     12  C   UNL     1       2.396   6.626  19.039  0.00  0.00    +0.000 A 
ENDBRANCH   5   6
BRANCH   1  16
ATOM     13  C   UNL     1       5.586   4.553  16.540  0.00  0.00    +0.000 A 
ATOM     14  C   UNL     1       4.337   3.940  16.397  0.00  0.00    +0.000 A 
ATOM     15  C   UNL     1       3.574   3.654  17.533  0.00  0.00    +0.000 A 
ATOM     16  C   UNL     1       4.051   4.010  18.805  0.00  0.00    +0.000 A 
ATOM     17  C   UNL     1       5.328   4.570  18.940  0.00  0.00    +0.000 A 
ATOM     18  C   UNL     1       6.095   4.846  17.806  0.00  0.00    +0.000 A 
BRANCH  13  20
ATOM     19  C   UNL     1       6.153   3.571  13.983  0.00  0.00    +0.000 C 
ATOM     20  S   UNL     1       6.581   4.878  15.100  0.00  0.00    +0.000 S 
ATOM     21  O   UNL     1       7.970   4.702  15.487  0.00  0.00    +0.000 OA
ATOM     22  O   UNL     1       6.119   6.127  14.529  0.00  0.00    +0.000 OA
ENDBRANCH  13  20
ENDBRANCH   1  16
TORSDOF 3
ENDMDL
MODEL 6
REMARK VINA RESULT:      -7.2      3.738      5.977
REMARK  Name = 
REMARK  4 active torsions:
REMARK  status: ('A' for Active; 'I' for Inactive)
REMARK    1  A    between atoms: C_1  and  S_2
REMARK    2  A    between atoms: S_2  and  C_5
REMARK    3  A    between atoms: C_8  and  N_9
REMARK    4  A    between atoms: C_13  and  C_14
REMARK                            x       y       z     vdW  Elec       q    Type
REMARK                         _______ _______ _______ _____ _____    ______ ____
ROOT
ATOM      1  N   UNL     1       3.099   3.771  19.849  0.00  0.00    +0.000 N 
ATOM      2  N   UNL     1       2.896   2.517  20.326  0.00  0.00    +0.000 NA
ATOM      3  N   UNL     1       2.225   2.605  21.462  0.00  0.00    +0.000 NA
ATOM      4  C   UNL     1       1.882   3.909  21.640  0.00  0.00    +0.000 A 
ATOM      5  C   UNL     1       2.353   4.688  20.597  0.00  0.00    +0.000 A 
ENDROOT
BRANCH   5   6
ATOM      6  C   UNL     1       2.062   6.093  20.273  0.00  0.00    +0.000 A 
ATOM      7  C   UNL     1       2.465   6.638  19.044  0.00  0.00    +0.000 A 
ATOM      8  C   UNL     1       2.179   7.970  18.720  0.00  0.00    +0.000 A 
ATOM      9  C   UNL     1       1.469   8.766  19.615  0.00  0.00    +0.000 A 
ATOM     10 CL   UNL     1       1.069  10.385  19.201  0.00  0.00    +0.000 Cl
ATOM     11  C   UNL     1       1.087   8.257  20.850  0.00  0.00    +0.000 A 
ATOM     12  C   UNL     1       1.420   6.943  21.187  0.00  0.00    +0.000 A 
ENDBRANCH   5   6
BRANCH   1  16
ATOM     13  C   UNL     1       5.543   4.525  16.508  0.00  0.00    +0.000 A 
ATOM     14  C   UNL     1       4.276   3.959  16.330  0.00  0.00    +0.000 A 
ATOM     15  C   UNL     1       3.487   3.669  17.448  0.00  0.00    +0.000 A 
ATOM     16  C   UNL     1       3.956   3.976  18.734  0.00  0.00    +0.000 A 
ATOM     17  C   UNL     1       5.249   4.490  18.903  0.00  0.00    +0.000 A 
ATOM     18  C   UNL     1       6.041   4.769  17.788  0.00  0.00    +0.000 A 
BRANCH  13  20
ATOM     19  C   UNL     1       6.121   3.586  13.937  0.00  0.00    +0.000 C 
ATOM     20  S   UNL     1       6.570   4.854  15.091  0.00  0.00    +0.000 S 
ATOM     21  O   UNL     1       7.946   4.627  15.495  0.00  0.00    +0.000 OA
ATOM     22  O   UNL     1       6.155   6.129  14.542  0.00  0.00    +0.000 OA
ENDBRANCH  13  20
ENDBRANCH   1  16
TORSDOF 3
ENDMDL
MODEL 7
REMARK VINA RESULT:      -7.2      2.433      3.108
REMARK  Name = 
REMARK  4 active torsions:
REMARK  status: ('A' for Active; 'I' for Inactive)
REMARK    1  A    between atoms: C_1  and  S_2
REMARK    2  A    between atoms: S_2  and  C_5
REMARK    3  A    between atoms: C_8  and  N_9
REMARK    4  A    between atoms: C_13  and  C_14
REMARK                            x       y       z     vdW  Elec       q    Type
REMARK                         _______ _______ _______ _____ _____    ______ ____
ROOT
ATOM      1  N   UNL     1       3.057   4.638  18.412  0.00  0.00    +0.000 N 
ATOM      2  N   UNL     1       2.393   3.464  18.262  0.00  0.00    +0.000 NA
ATOM      3  N   UNL     1       3.063   2.711  17.405  0.00  0.00    +0.000 NA
ATOM      4  C   UNL     1       4.225   3.353  17.112  0.00  0.00    +0.000 A 
ATOM      5  C   UNL     1       4.306   4.557  17.788  0.00  0.00    +0.000 A 
ENDROOT
BRANCH   5   6
ATOM      6  C   UNL     1       5.445   5.478  17.927  0.00  0.00    +0.000 A 
ATOM      7  C   UNL     1       5.557   6.602  17.093  0.00  0.00    +0.000 A 
ATOM      8  C   UNL     1       6.630   7.493  17.228  0.00  0.00    +0.000 A 
ATOM      9  C   UNL     1       7.592   7.280  18.212  0.00  0.00    +0.000 A 
ATOM     10 CL   UNL     1       8.880   8.397  18.417  0.00  0.00    +0.000 Cl
ATOM     11  C   UNL     1       7.517   6.157  19.027  0.00  0.00    +0.000 A 
ATOM     12  C   UNL     1       6.473   5.246  18.854  0.00  0.00    +0.000 A 
ENDBRANCH   5   6
BRANCH   1  16
ATOM     13  C   UNL     1       1.427   7.795  20.666  0.00  0.00    +0.000 A 
ATOM     14  C   UNL     1       1.374   6.488  21.160  0.00  0.00    +0.000 A 
ATOM     15  C   UNL     1       1.877   5.437  20.386  0.00  0.00    +0.000 A 
ATOM     16  C   UNL     1       2.458   5.703  19.136  0.00  0.00    +0.000 A 
ATOM     17  C   UNL     1       2.453   7.009  18.628  0.00  0.00    +0.000 A 
ATOM     18  C   UNL     1       1.941   8.057  19.395  0.00  0.00    +0.000 A 
BRANCH  13  20
ATOM     19  C   UNL     1       0.624  10.468  20.469  0.00  0.00    +0.000 C 
ATOM     20  S   UNL     1       0.747   9.131  21.627  0.00  0.00    +0.000 S 
ATOM     21  O   UNL     1       1.738   9.491  22.625  0.00  0.00    +0.000 OA
ATOM     22  O   UNL     1      -0.595   8.747  22.013  0.00  0.00    +0.000 OA
ENDBRANCH  13  20
ENDBRANCH   1  16
TORSDOF 3
ENDMDL
MODEL 8
REMARK VINA RESULT:      -7.0      4.874      7.655
REMARK  Name = 
REMARK  4 active torsions:
REMARK  status: ('A' for Active; 'I' for Inactive)
REMARK    1  A    between atoms: C_1  and  S_2
REMARK    2  A    between atoms: S_2  and  C_5
REMARK    3  A    between atoms: C_8  and  N_9
REMARK    4  A    between atoms: C_13  and  C_14
REMARK                            x       y       z     vdW  Elec       q    Type
REMARK                         _______ _______ _______ _____ _____    ______ ____
ROOT
ATOM      1  N   UNL     1       0.243  10.452  20.564  0.00  0.00    +0.000 N 
ATOM      2  N   UNL     1       0.490  10.871  21.831  0.00  0.00    +0.000 NA
ATOM      3  N   UNL     1      -0.148  12.013  22.026  0.00  0.00    +0.000 NA
ATOM      4  C   UNL     1      -0.911  12.254  20.927  0.00  0.00    +0.000 A 
ATOM      5  C   UNL     1      -0.755  11.247  19.990  0.00  0.00    +0.000 A 
ENDROOT
BRANCH   5   6
ATOM      6  C   UNL     1      -1.515  10.991  18.757  0.00  0.00    +0.000 A 
ATOM      7  C   UNL     1      -1.522  11.934  17.717  0.00  0.00    +0.000 A 
ATOM      8  C   UNL     1      -2.230  11.693  16.533  0.00  0.00    +0.000 A 
ATOM      9  C   UNL     1      -2.922  10.496  16.368  0.00  0.00    +0.000 A 
ATOM     10 CL   UNL     1      -3.748  10.171  14.897  0.00  0.00    +0.000 Cl
ATOM     11  C   UNL     1      -2.954   9.562  17.396  0.00  0.00    +0.000 A 
ATOM     12  C   UNL     1      -2.288   9.831  18.594  0.00  0.00    +0.000 A 
ENDBRANCH   5   6
BRANCH   1  16
ATOM     13  C   UNL     1       2.504   7.264  19.005  0.00  0.00    +0.000 A 
ATOM     14  C   UNL     1       2.202   8.365  18.196  0.00  0.00    +0.000 A 
ATOM     15  C   UNL     1       1.412   9.400  18.706  0.00  0.00    +0.000 A 
ATOM     16  C   UNL     1       0.955   9.344  20.031  0.00  0.00    +0.000 A 
ATOM     17  C   UNL     1       1.216   8.211  20.813  0.00  0.00    +0.000 A 
ATOM     18  C   UNL     1       1.995   7.172  20.301  0.00  0.00    +0.000 A 
BRANCH  13  20
ATOM     19  C   UNL     1       4.465   6.689  17.096  0.00  0.00    +0.000 C 
ATOM     20  S   UNL     1       3.471   5.922  18.347  0.00  0.00    +0.000 S 
ATOM     21  O   UNL     1       2.551   5.009  17.693  0.00  0.00    +0.000 OA
ATOM     22  O   UNL     1       4.351   5.465  19.403  0.00  0.00    +0.000 OA
ENDBRANCH  13  20
ENDBRANCH   1  16
TORSDOF 3
ENDMDL
MODEL 9
REMARK VINA RESULT:      -7.0      4.858      7.705
REMARK  Name = 
REMARK  4 active torsions:
REMARK  status: ('A' for Active; 'I' for Inactive)
REMARK    1  A    between atoms: C_1  and  S_2
REMARK    2  A    between atoms: S_2  and  C_5
REMARK    3  A    between atoms: C_8  and  N_9
REMARK    4  A    between atoms: C_13  and  C_14
REMARK                            x       y       z     vdW  Elec       q    Type
REMARK                         _______ _______ _______ _____ _____    ______ ____
ROOT
ATOM      1  N   UNL     1       0.172  10.504  20.698  0.00  0.00    +0.000 N 
ATOM      2  N   UNL     1       0.354  10.898  21.984  0.00  0.00    +0.000 NA
ATOM      3  N   UNL     1      -0.345  12.001  22.187  0.00  0.00    +0.000 NA
ATOM      4  C   UNL     1      -1.082  12.236  21.069  0.00  0.00    +0.000 A 
ATOM      5  C   UNL     1      -0.845  11.265  20.111  0.00  0.00    +0.000 A 
ENDROOT
BRANCH   5   6
ATOM      6  C   UNL     1      -1.548  11.008  18.845  0.00  0.00    +0.000 A 
ATOM      7  C   UNL     1      -1.522  11.957  17.811  0.00  0.00    +0.000 A 
ATOM      8  C   UNL     1      -2.176  11.714  16.596  0.00  0.00    +0.000 A 
ATOM      9  C   UNL     1      -2.847  10.511  16.396  0.00  0.00    +0.000 A 
ATOM     10 CL   UNL     1      -3.606  10.185  14.889  0.00  0.00    +0.000 Cl
ATOM     11  C   UNL     1      -2.912   9.571  17.417  0.00  0.00    +0.000 A 
ATOM     12  C   UNL     1      -2.301   9.840  18.644  0.00  0.00    +0.000 A 
ENDBRANCH   5   6
BRANCH   1  16
ATOM     13  C   UNL     1       2.344   7.279  19.091  0.00  0.00    +0.000 A 
ATOM     14  C   UNL     1       1.930   7.243  20.427  0.00  0.00    +0.000 A 
ATOM     15  C   UNL     1       1.248   8.337  20.967  0.00  0.00    +0.000 A 
ATOM     16  C   UNL     1       0.956   9.448  20.161  0.00  0.00    +0.000 A 
ATOM     17  C   UNL     1       1.426   9.497  18.842  0.00  0.00    +0.000 A 
ATOM     18  C   UNL     1       2.117   8.409  18.305  0.00  0.00    +0.000 A 
BRANCH  13  20
ATOM     19  C   UNL     1       4.296   6.654  17.187  0.00  0.00    +0.000 C 
ATOM     20  S   UNL     1       3.253   5.908  18.411  0.00  0.00    +0.000 S 
ATOM     21  O   UNL     1       2.297   5.055  17.726  0.00  0.00    +0.000 OA
ATOM     22  O   UNL     1       4.099   5.384  19.463  0.00  0.00    +0.000 OA
ENDBRANCH  13  20
ENDBRANCH   1  16
TORSDOF 3
ENDMDL
