MODEL 1
REMARK VINA RESULT:      -8.9      0.000      0.000
REMARK  Name = 
REMARK  6 active torsions:
REMARK  status: ('A' for Active; 'I' for Inactive)
REMARK    1  A    between atoms: C_2  and  C_3
REMARK    2  A    between atoms: C_6  and  C_7
REMARK    3  A    between atoms: C_7  and  C_8
REMARK    4  A    between atoms: C_7  and  N_14
REMARK    5  A    between atoms: C_17  and  N_18
REMARK    6  A    between atoms: C_19  and  C_21
REMARK                            x       y       z     vdW  Elec       q    Type
REMARK                         _______ _______ _______ _____ _____    ______ ____
ROOT
ATOM      1  N   UNL     1       2.131   7.326  19.575  0.00  0.00    +0.000 NA
ATOM      2  C   UNL     1       2.166   8.496  18.693  0.00  0.00    +0.000 C 
ATOM      3  C   UNL     1       2.124   9.835  19.422  0.00  0.00    +0.000 C 
ATOM      4  C   UNL     1       0.929   9.907  20.367  0.00  0.00    +0.000 C 
ATOM      5  C   UNL     1       1.028   8.744  21.352  0.00  0.00    +0.000 C 
ATOM      6  C   UNL     1       1.117   7.388  20.639  0.00  0.00    +0.000 C 
ENDROOT
BRANCH   4   7
ATOM      7  N   UNL     1      -0.344   9.911  19.643  0.00  0.00    +0.000 N 
ATOM      8  C   UNL     1      -0.787  11.021  18.949  0.00  0.00    +0.000 C 
ATOM      9  O   UNL     1      -0.124  12.044  18.857  0.00  0.00    +0.000 OA
ATOM     10  H   UNL     1      -1.012   9.172  19.836  0.00  0.00    +0.000 HD
BRANCH   8  11
ATOM     11  C   UNL     1      -2.121  10.931  18.301  0.00  0.00    +0.000 A 
ATOM     12  C   UNL     1      -3.224  11.659  18.749  0.00  0.00    +0.000 A 
ATOM     13  F   UNL     1      -3.134  12.458  19.825  0.00  0.00    +0.000 F 
ATOM     14  C   UNL     1      -4.455  11.587  18.091  0.00  0.00    +0.000 A 
ATOM     15  C   UNL     1      -4.600  10.772  16.970  0.00  0.00    +0.000 A 
ATOM     16  C   UNL     1      -3.512  10.028  16.520  0.00  0.00    +0.000 A 
ATOM     17  C   UNL     1      -2.285  10.111  17.183  0.00  0.00    +0.000 A 
ATOM     18  F   UNL     1      -1.283   9.348  16.723  0.00  0.00    +0.000 F 
ENDBRANCH   8  11
ENDBRANCH   4   7
BRANCH   1  19
ATOM     19  C   UNL     1       2.132   6.006  18.862  0.00  0.00    +0.000 C 
BRANCH  19  23
ATOM     20  C   UNL     1       5.492   5.416  16.117  0.00  0.00    +0.000 A 
ATOM     21  C   UNL     1       5.165   6.693  16.577  0.00  0.00    +0.000 A 
ATOM     22  C   UNL     1       4.111   6.876  17.483  0.00  0.00    +0.000 A 
ATOM     23  C   UNL     1       3.346   5.783  17.927  0.00  0.00    +0.000 A 
ATOM     24  C   UNL     1       3.666   4.509  17.419  0.00  0.00    +0.000 A 
ATOM     25  C   UNL     1       4.736   4.320  16.539  0.00  0.00    +0.000 A 
BRANCH  20  27
ATOM     26  N   UNL     1       7.452   5.063  14.461  0.00  0.00    +0.000 NA
ATOM     27  C   UNL     1       6.576   5.225  15.199  0.00  0.00    +0.000 C 
ENDBRANCH  20  27
ENDBRANCH  19  23
BRANCH  19  28
ATOM     28  C   UNL     1       1.869   4.808  19.783  0.00  0.00    +0.000 A 
ATOM     29  C   UNL     1       0.974   3.781  19.437  0.00  0.00    +0.000 A 
ATOM     30  C   UNL     1       0.801   2.683  20.275  0.00  0.00    +0.000 A 
ATOM     31  C   UNL     1       1.495   2.657  21.469  0.00  0.00    +0.000 A 
ATOM     32  N   UNL     1       2.306   3.652  21.880  0.00  0.00    +0.000 NA
ATOM     33  C   UNL     1       2.460   4.704  21.040  0.00  0.00    +0.000 A 
ENDBRANCH  19  28
ENDBRANCH   1  19
TORSDOF 6
ENDMDL
MODEL 2
REMARK VINA RESULT:      -8.7      0.124      1.467
REMARK  Name = 
REMARK  6 active torsions:
REMARK  status: ('A' for Active; 'I' for Inactive)
REMARK    1  A    between atoms: C_2  and  C_3
REMARK    2  A    between atoms: C_6  and  C_7
REMARK    3  A    between atoms: C_7  and  C_8
REMARK    4  A    between atoms: C_7  and  N_14
REMARK    5  A    between atoms: C_17  and  N_18
REMARK    6  A    between atoms: C_19  and  C_21
REMARK                            x       y       z     vdW  Elec       q    Type
REMARK                         _______ _______ _______ _____ _____    ______ ____
ROOT
ATOM      1  N   UNL     1       2.166   7.389  19.539  0.00  0.00    +0.000 NA
ATOM      2  C   UNL     1       2.181   8.550  18.644  0.00  0.00    +0.000 C 
ATOM      3  C   UNL     1       2.144   9.896  19.360  0.00  0.00    +0.000 C 
ATOM      4  C   UNL     1       0.965   9.972  20.324  0.00  0.00    +0.000 C 
ATOM      5  C   UNL     1       1.085   8.820  21.319  0.00  0.00    +0.000 C 
ATOM      6  C   UNL     1       1.169   7.458  20.618  0.00  0.00    +0.000 C 
ENDROOT
BRANCH   4   7
ATOM      7  N   UNL     1      -0.321   9.963  19.620  0.00  0.00    +0.000 N 
ATOM      8  C   UNL     1      -0.813  11.086  18.983  0.00  0.00    +0.000 C 
ATOM      9  O   UNL     1      -0.187  12.135  18.925  0.00  0.00    +0.000 OA
ATOM     10  H   UNL     1      -0.959   9.194  19.792  0.00  0.00    +0.000 HD
BRANCH   8  11
ATOM     11  C   UNL     1      -2.154  10.977  18.353  0.00  0.00    +0.000 A 
ATOM     12  C   UNL     1      -2.411  10.127  17.276  0.00  0.00    +0.000 A 
ATOM     13  F   UNL     1      -1.432   9.388  16.731  0.00  0.00    +0.000 F 
ATOM     14  C   UNL     1      -3.695  10.014  16.734  0.00  0.00    +0.000 A 
ATOM     15  C   UNL     1      -4.745  10.761  17.264  0.00  0.00    +0.000 A 
ATOM     16  C   UNL     1      -4.500  11.624  18.330  0.00  0.00    +0.000 A 
ATOM     17  C   UNL     1      -3.215  11.727  18.867  0.00  0.00    +0.000 A 
ATOM     18  F   UNL     1      -3.033  12.597  19.871  0.00  0.00    +0.000 F 
ENDBRANCH   8  11
ENDBRANCH   4   7
BRANCH   1  19
ATOM     19  C   UNL     1       2.161   6.062  18.840  0.00  0.00    +0.000 C 
BRANCH  19  23
ATOM     20  C   UNL     1       5.524   5.429  16.108  0.00  0.00    +0.000 A 
ATOM     21  C   UNL     1       5.222   6.707  16.580  0.00  0.00    +0.000 A 
ATOM     22  C   UNL     1       4.167   6.904  17.482  0.00  0.00    +0.000 A 
ATOM     23  C   UNL     1       3.376   5.823  17.909  0.00  0.00    +0.000 A 
ATOM     24  C   UNL     1       3.671   4.547  17.389  0.00  0.00    +0.000 A 
ATOM     25  C   UNL     1       4.742   4.345  16.513  0.00  0.00    +0.000 A 
BRANCH  20  27
ATOM     26  N   UNL     1       7.490   5.056  14.463  0.00  0.00    +0.000 NA
ATOM     27  C   UNL     1       6.610   5.224  15.194  0.00  0.00    +0.000 C 
ENDBRANCH  20  27
ENDBRANCH  19  23
BRANCH  19  28
ATOM     28  C   UNL     1       1.890   4.875  19.773  0.00  0.00    +0.000 A 
ATOM     29  C   UNL     1       0.965   3.866  19.451  0.00  0.00    +0.000 A 
ATOM     30  C   UNL     1       0.785   2.777  20.298  0.00  0.00    +0.000 A 
ATOM     31  C   UNL     1       1.503   2.742  21.478  0.00  0.00    +0.000 A 
ATOM     32  N   UNL     1       2.345   3.719  21.867  0.00  0.00    +0.000 NA
ATOM     33  C   UNL     1       2.505   4.763  21.018  0.00  0.00    +0.000 A 
ENDBRANCH  19  28
ENDBRANCH   1  19
TORSDOF 6
ENDMDL
MODEL 3
REMARK VINA RESULT:      -8.7      0.527      1.899
REMARK  Name = 
REMARK  6 active torsions:
REMARK  status: ('A' for Active; 'I' for Inactive)
REMARK    1  A    between atoms: C_2  and  C_3
REMARK    2  A    between atoms: C_6  and  C_7
REMARK    3  A    between atoms: C_7  and  C_8
REMARK    4  A    between atoms: C_7  and  N_14
REMARK    5  A    between atoms: C_17  and  N_18
REMARK    6  A    between atoms: C_19  and  C_21
REMARK                            x       y       z     vdW  Elec       q    Type
REMARK                         _______ _______ _______ _____ _____    ______ ____
ROOT
ATOM      1  N   UNL     1       2.150   7.406  19.457  0.00  0.00    +0.000 NA
ATOM      2  C   UNL     1       2.157   8.580  18.580  0.00  0.00    +0.000 C 
ATOM      3  C   UNL     1       2.131   9.915  19.315  0.00  0.00    +0.000 C 
ATOM      4  C   UNL     1       0.962   9.979  20.293  0.00  0.00    +0.000 C 
ATOM      5  C   UNL     1       1.091   8.813  21.270  0.00  0.00    +0.000 C 
ATOM      6  C   UNL     1       1.165   7.460  20.548  0.00  0.00    +0.000 C 
ENDROOT
BRANCH   4   7
ATOM      7  N   UNL     1      -0.331   9.983  19.604  0.00  0.00    +0.000 N 
ATOM      8  C   UNL     1      -0.827  11.116  18.988  0.00  0.00    +0.000 C 
ATOM      9  O   UNL     1      -0.199  12.164  18.938  0.00  0.00    +0.000 OA
ATOM     10  H   UNL     1      -0.969   9.213  19.772  0.00  0.00    +0.000 HD
BRANCH   8  11
ATOM     11  C   UNL     1      -2.175  11.019  18.371  0.00  0.00    +0.000 A 
ATOM     12  C   UNL     1      -2.443  10.196  17.277  0.00  0.00    +0.000 A 
ATOM     13  F   UNL     1      -1.469   9.473  16.701  0.00  0.00    +0.000 F 
ATOM     14  C   UNL     1      -3.733  10.092  16.747  0.00  0.00    +0.000 A 
ATOM     15  C   UNL     1      -4.778  10.823  17.309  0.00  0.00    +0.000 A 
ATOM     16  C   UNL     1      -4.523  11.659  18.393  0.00  0.00    +0.000 A 
ATOM     17  C   UNL     1      -3.232  11.752  18.916  0.00  0.00    +0.000 A 
ATOM     18  F   UNL     1      -3.040  12.597  19.940  0.00  0.00    +0.000 F 
ENDBRANCH   8  11
ENDBRANCH   4   7
BRANCH   1  19
ATOM     19  C   UNL     1       2.134   6.090  18.738  0.00  0.00    +0.000 C 
BRANCH  19  23
ATOM     20  C   UNL     1       5.564   5.441  16.094  0.00  0.00    +0.000 A 
ATOM     21  C   UNL     1       4.758   4.372  16.490  0.00  0.00    +0.000 A 
ATOM     22  C   UNL     1       3.640   4.585  17.308  0.00  0.00    +0.000 A 
ATOM     23  C   UNL     1       3.322   5.875  17.767  0.00  0.00    +0.000 A 
ATOM     24  C   UNL     1       4.171   6.935  17.390  0.00  0.00    +0.000 A 
ATOM     25  C   UNL     1       5.269   6.728  16.550  0.00  0.00    +0.000 A 
BRANCH  20  27
ATOM     26  N   UNL     1       7.624   5.055  14.571  0.00  0.00    +0.000 NA
ATOM     27  C   UNL     1       6.701   5.226  15.248  0.00  0.00    +0.000 C 
ENDBRANCH  20  27
ENDBRANCH  19  23
BRANCH  19  28
ATOM     28  C   UNL     1       1.903   4.887  19.661  0.00  0.00    +0.000 A 
ATOM     29  C   UNL     1       2.626   4.710  20.854  0.00  0.00    +0.000 A 
ATOM     30  C   UNL     1       2.352   3.633  21.693  0.00  0.00    +0.000 A 
ATOM     31  C   UNL     1       1.387   2.727  21.297  0.00  0.00    +0.000 A 
ATOM     32  N   UNL     1       0.721   2.811  20.129  0.00  0.00    +0.000 NA
ATOM     33  C   UNL     1       1.004   3.873  19.337  0.00  0.00    +0.000 A 
ENDBRANCH  19  28
ENDBRANCH   1  19
TORSDOF 6
ENDMDL
MODEL 4
REMARK VINA RESULT:      -8.1      3.380      6.055
REMARK  Name = 
REMARK  6 active torsions:
REMARK  status: ('A' for Active; 'I' for Inactive)
REMARK    1  A    between atoms: C_2  and  C_3
REMARK    2  A    between atoms: C_6  and  C_7
REMARK    3  A    between atoms: C_7  and  C_8
REMARK    4  A    between atoms: C_7  and  N_14
REMARK    5  A    between atoms: C_17  and  N_18
REMARK    6  A    between atoms: C_19  and  C_21
REMARK                            x       y       z     vdW  Elec       q    Type
REMARK                         _______ _______ _______ _____ _____    ______ ____
ROOT
ATOM      1  N   UNL     1      -0.001  11.419  20.740  0.00  0.00    +0.000 NA
ATOM      2  C   UNL     1      -0.428  12.808  20.932  0.00  0.00    +0.000 C 
ATOM      3  C   UNL     1      -0.596  13.219  22.391  0.00  0.00    +0.000 C 
ATOM      4  C   UNL     1      -1.527  12.261  23.126  0.00  0.00    +0.000 C 
ATOM      5  C   UNL     1      -0.951  10.851  23.012  0.00  0.00    +0.000 C 
ATOM      6  C   UNL     1      -0.732  10.434  21.552  0.00  0.00    +0.000 C 
ENDROOT
BRANCH   4   7
ATOM      7  N   UNL     1      -2.902  12.338  22.626  0.00  0.00    +0.000 N 
ATOM      8  C   UNL     1      -3.811  13.251  23.126  0.00  0.00    +0.000 C 
ATOM      9  O   UNL     1      -3.511  14.076  23.977  0.00  0.00    +0.000 OA
ATOM     10  H   UNL     1      -3.256  11.570  22.066  0.00  0.00    +0.000 HD
BRANCH   8  11
ATOM     11  C   UNL     1      -5.194  13.199  22.584  0.00  0.00    +0.000 A 
ATOM     12  C   UNL     1      -6.291  12.824  23.361  0.00  0.00    +0.000 A 
ATOM     13  F   UNL     1      -6.136  12.452  24.642  0.00  0.00    +0.000 F 
ATOM     14  C   UNL     1      -7.586  12.828  22.835  0.00  0.00    +0.000 A 
ATOM     15  C   UNL     1      -7.799  13.205  21.510  0.00  0.00    +0.000 A 
ATOM     16  C   UNL     1      -6.713  13.568  20.719  0.00  0.00    +0.000 A 
ATOM     17  C   UNL     1      -5.423  13.565  21.256  0.00  0.00    +0.000 A 
ATOM     18  F   UNL     1      -4.413  13.893  20.438  0.00  0.00    +0.000 F 
ENDBRANCH   8  11
ENDBRANCH   4   7
BRANCH   1  19
ATOM     19  C   UNL     1       0.126  10.997  19.306  0.00  0.00    +0.000 C 
BRANCH  19  23
ATOM     20  C   UNL     1       2.647   7.490  18.585  0.00  0.00    +0.000 A 
ATOM     21  C   UNL     1       2.507   8.478  17.609  0.00  0.00    +0.000 A 
ATOM     22  C   UNL     1       1.728   9.617  17.854  0.00  0.00    +0.000 A 
ATOM     23  C   UNL     1       1.051   9.776  19.076  0.00  0.00    +0.000 A 
ATOM     24  C   UNL     1       1.172   8.748  20.032  0.00  0.00    +0.000 A 
ATOM     25  C   UNL     1       1.973   7.626  19.801  0.00  0.00    +0.000 A 
BRANCH  20  27
ATOM     26  N   UNL     1       4.109   5.398  18.142  0.00  0.00    +0.000 NA
ATOM     27  C   UNL     1       3.452   6.330  18.341  0.00  0.00    +0.000 C 
ENDBRANCH  20  27
ENDBRANCH  19  23
BRANCH  19  28
ATOM     28  C   UNL     1      -1.219  10.862  18.582  0.00  0.00    +0.000 A 
ATOM     29  C   UNL     1      -1.476   9.825  17.668  0.00  0.00    +0.000 A 
ATOM     30  C   UNL     1      -2.727   9.704  17.070  0.00  0.00    +0.000 A 
ATOM     31  C   UNL     1      -3.686  10.654  17.365  0.00  0.00    +0.000 A 
ATOM     32  N   UNL     1      -3.465  11.708  18.175  0.00  0.00    +0.000 NA
ATOM     33  C   UNL     1      -2.241  11.795  18.748  0.00  0.00    +0.000 A 
ENDBRANCH  19  28
ENDBRANCH   1  19
TORSDOF 6
ENDMDL
MODEL 5
REMARK VINA RESULT:      -8.1      3.379      6.153
REMARK  Name = 
REMARK  6 active torsions:
REMARK  status: ('A' for Active; 'I' for Inactive)
REMARK    1  A    between atoms: C_2  and  C_3
REMARK    2  A    between atoms: C_6  and  C_7
REMARK    3  A    between atoms: C_7  and  C_8
REMARK    4  A    between atoms: C_7  and  N_14
REMARK    5  A    between atoms: C_17  and  N_18
REMARK    6  A    between atoms: C_19  and  C_21
REMARK                            x       y       z     vdW  Elec       q    Type
REMARK                         _______ _______ _______ _____ _____    ______ ____
ROOT
ATOM      1  N   UNL     1      -0.001  11.417  20.779  0.00  0.00    +0.000 NA
ATOM      2  C   UNL     1      -0.426  12.809  20.960  0.00  0.00    +0.000 C 
ATOM      3  C   UNL     1      -0.614  13.225  22.414  0.00  0.00    +0.000 C 
ATOM      4  C   UNL     1      -1.559  12.273  23.140  0.00  0.00    +0.000 C 
ATOM      5  C   UNL     1      -0.987  10.861  23.038  0.00  0.00    +0.000 C 
ATOM      6  C   UNL     1      -0.747  10.438  21.583  0.00  0.00    +0.000 C 
ENDROOT
BRANCH   4   7
ATOM      7  N   UNL     1      -2.926  12.354  22.618  0.00  0.00    +0.000 N 
ATOM      8  C   UNL     1      -3.844  13.260  23.113  0.00  0.00    +0.000 C 
ATOM      9  O   UNL     1      -3.559  14.077  23.977  0.00  0.00    +0.000 OA
ATOM     10  H   UNL     1      -3.270  11.591  22.046  0.00  0.00    +0.000 HD
BRANCH   8  11
ATOM     11  C   UNL     1      -5.218  13.212  22.550  0.00  0.00    +0.000 A 
ATOM     12  C   UNL     1      -5.500  13.554  21.226  0.00  0.00    +0.000 A 
ATOM     13  F   UNL     1      -4.530  13.984  20.403  0.00  0.00    +0.000 F 
ATOM     14  C   UNL     1      -6.796  13.456  20.713  0.00  0.00    +0.000 A 
ATOM     15  C   UNL     1      -7.837  13.015  21.528  0.00  0.00    +0.000 A 
ATOM     16  C   UNL     1      -7.575  12.684  22.855  0.00  0.00    +0.000 A 
ATOM     17  C   UNL     1      -6.275  12.782  23.356  0.00  0.00    +0.000 A 
ATOM     18  F   UNL     1      -6.088  12.480  24.649  0.00  0.00    +0.000 F 
ENDBRANCH   8  11
ENDBRANCH   4   7
BRANCH   1  19
ATOM     19  C   UNL     1       0.146  10.990  19.349  0.00  0.00    +0.000 C 
BRANCH  19  23
ATOM     20  C   UNL     1       2.640   7.453  18.683  0.00  0.00    +0.000 A 
ATOM     21  C   UNL     1       2.503   8.425  17.689  0.00  0.00    +0.000 A 
ATOM     22  C   UNL     1       1.733   9.573  17.916  0.00  0.00    +0.000 A 
ATOM     23  C   UNL     1       1.062   9.759  19.138  0.00  0.00    +0.000 A 
ATOM     24  C   UNL     1       1.179   8.748  20.112  0.00  0.00    +0.000 A 
ATOM     25  C   UNL     1       1.972   7.616  19.898  0.00  0.00    +0.000 A 
BRANCH  20  27
ATOM     26  N   UNL     1       4.074   5.337  18.268  0.00  0.00    +0.000 NA
ATOM     27  C   UNL     1       3.437   6.284  18.456  0.00  0.00    +0.000 C 
ENDBRANCH  20  27
ENDBRANCH  19  23
BRANCH  19  28
ATOM     28  C   UNL     1      -1.189  10.867  18.603  0.00  0.00    +0.000 A 
ATOM     29  C   UNL     1      -1.388   9.925  17.578  0.00  0.00    +0.000 A 
ATOM     30  C   UNL     1      -2.629   9.807  16.959  0.00  0.00    +0.000 A 
ATOM     31  C   UNL     1      -3.637  10.668  17.348  0.00  0.00    +0.000 A 
ATOM     32  N   UNL     1      -3.474  11.636  18.271  0.00  0.00    +0.000 NA
ATOM     33  C   UNL     1      -2.257  11.722  18.861  0.00  0.00    +0.000 A 
ENDBRANCH  19  28
ENDBRANCH   1  19
TORSDOF 6
ENDMDL
MODEL 6
REMARK VINA RESULT:      -8.1      2.978      6.130
REMARK  Name = 
REMARK  6 active torsions:
REMARK  status: ('A' for Active; 'I' for Inactive)
REMARK    1  A    between atoms: C_2  and  C_3
REMARK    2  A    between atoms: C_6  and  C_7
REMARK    3  A    between atoms: C_7  and  C_8
REMARK    4  A    between atoms: C_7  and  N_14
REMARK    5  A    between atoms: C_17  and  N_18
REMARK    6  A    between atoms: C_19  and  C_21
REMARK                            x       y       z     vdW  Elec       q    Type
REMARK                         _______ _______ _______ _____ _____    ______ ____
ROOT
ATOM      1  N   UNL     1      -0.683  10.640  18.265  0.00  0.00    +0.000 NA
ATOM      2  C   UNL     1      -1.588   9.497  18.110  0.00  0.00    +0.000 C 
ATOM      3  C   UNL     1      -2.579   9.631  16.960  0.00  0.00    +0.000 C 
ATOM      4  C   UNL     1      -3.367  10.934  17.064  0.00  0.00    +0.000 C 
ATOM      5  C   UNL     1      -2.373  12.093  17.076  0.00  0.00    +0.000 C 
ATOM      6  C   UNL     1      -1.337  11.955  18.199  0.00  0.00    +0.000 C 
ENDROOT
BRANCH   4   7
ATOM      7  N   UNL     1      -4.249  10.950  18.233  0.00  0.00    +0.000 N 
ATOM      8  C   UNL     1      -5.493  11.550  18.201  0.00  0.00    +0.000 C 
ATOM      9  O   UNL     1      -5.951  12.057  17.187  0.00  0.00    +0.000 OA
ATOM     10  H   UNL     1      -3.855  10.718  19.138  0.00  0.00    +0.000 HD
BRANCH   8  11
ATOM     11  C   UNL     1      -6.277  11.558  19.463  0.00  0.00    +0.000 A 
ATOM     12  C   UNL     1      -6.251  12.629  20.357  0.00  0.00    +0.000 A 
ATOM     13  F   UNL     1      -5.474  13.700  20.129  0.00  0.00    +0.000 F 
ATOM     14  C   UNL     1      -7.034  12.626  21.515  0.00  0.00    +0.000 A 
ATOM     15  C   UNL     1      -7.856  11.537  21.798  0.00  0.00    +0.000 A 
ATOM     16  C   UNL     1      -7.882  10.454  20.922  0.00  0.00    +0.000 A 
ATOM     17  C   UNL     1      -7.099  10.470  19.766  0.00  0.00    +0.000 A 
ATOM     18  F   UNL     1      -7.141   9.386  18.977  0.00  0.00    +0.000 F 
ENDBRANCH   8  11
ENDBRANCH   4   7
BRANCH   1  19
ATOM     19  C   UNL     1       0.268  10.531  19.420  0.00  0.00    +0.000 C 
BRANCH  19  23
ATOM     20  C   UNL     1       2.572   6.808  19.390  0.00  0.00    +0.000 A 
ATOM     21  C   UNL     1       2.521   7.622  18.257  0.00  0.00    +0.000 A 
ATOM     22  C   UNL     1       1.811   8.831  18.279  0.00  0.00    +0.000 A 
ATOM     23  C   UNL     1       1.117   9.236  19.433  0.00  0.00    +0.000 A 
ATOM     24  C   UNL     1       1.147   8.380  20.551  0.00  0.00    +0.000 A 
ATOM     25  C   UNL     1       1.879   7.189  20.541  0.00  0.00    +0.000 A 
BRANCH  20  27
ATOM     26  N   UNL     1       3.892   4.579  19.358  0.00  0.00    +0.000 NA
ATOM     27  C   UNL     1       3.306   5.577  19.373  0.00  0.00    +0.000 C 
ENDBRANCH  20  27
ENDBRANCH  19  23
BRANCH  19  28
ATOM     28  C   UNL     1       1.112  11.792  19.644  0.00  0.00    +0.000 A 
ATOM     29  C   UNL     1       1.950  12.317  18.644  0.00  0.00    +0.000 A 
ATOM     30  C   UNL     1       2.661  13.493  18.864  0.00  0.00    +0.000 A 
ATOM     31  C   UNL     1       2.555  14.097  20.102  0.00  0.00    +0.000 A 
ATOM     32  N   UNL     1       1.826  13.594  21.117  0.00  0.00    +0.000 NA
ATOM     33  C   UNL     1       1.139  12.452  20.870  0.00  0.00    +0.000 A 
ENDBRANCH  19  28
ENDBRANCH   1  19
TORSDOF 6
ENDMDL
MODEL 7
REMARK VINA RESULT:      -8.0      2.989      6.121
REMARK  Name = 
REMARK  6 active torsions:
REMARK  status: ('A' for Active; 'I' for Inactive)
REMARK    1  A    between atoms: C_2  and  C_3
REMARK    2  A    between atoms: C_6  and  C_7
REMARK    3  A    between atoms: C_7  and  C_8
REMARK    4  A    between atoms: C_7  and  N_14
REMARK    5  A    between atoms: C_17  and  N_18
REMARK    6  A    between atoms: C_19  and  C_21
REMARK                            x       y       z     vdW  Elec       q    Type
REMARK                         _______ _______ _______ _____ _____    ______ ____
ROOT
ATOM      1  N   UNL     1      -0.596  10.658  18.105  0.00  0.00    +0.000 NA
ATOM      2  C   UNL     1      -1.509   9.521  17.956  0.00  0.00    +0.000 C 
ATOM      3  C   UNL     1      -2.518   9.668  16.822  0.00  0.00    +0.000 C 
ATOM      4  C   UNL     1      -3.297  10.973  16.949  0.00  0.00    +0.000 C 
ATOM      5  C   UNL     1      -2.299  12.128  16.954  0.00  0.00    +0.000 C 
ATOM      6  C   UNL     1      -1.245  11.977  18.059  0.00  0.00    +0.000 C 
ENDROOT
BRANCH   4   7
ATOM      7  N   UNL     1      -4.161  10.984  18.132  0.00  0.00    +0.000 N 
ATOM      8  C   UNL     1      -5.394  11.608  18.131  0.00  0.00    +0.000 C 
ATOM      9  O   UNL     1      -5.857  12.143  17.134  0.00  0.00    +0.000 OA
ATOM     10  H   UNL     1      -3.758  10.727  19.027  0.00  0.00    +0.000 HD
BRANCH   8  11
ATOM     11  C   UNL     1      -6.157  11.607  19.406  0.00  0.00    +0.000 A 
ATOM     12  C   UNL     1      -6.048  12.631  20.347  0.00  0.00    +0.000 A 
ATOM     13  F   UNL     1      -5.207  13.660  20.155  0.00  0.00    +0.000 F 
ATOM     14  C   UNL     1      -6.814  12.625  21.517  0.00  0.00    +0.000 A 
ATOM     15  C   UNL     1      -7.701  11.579  21.764  0.00  0.00    +0.000 A 
ATOM     16  C   UNL     1      -7.810  10.542  20.840  0.00  0.00    +0.000 A 
ATOM     17  C   UNL     1      -7.044  10.561  19.673  0.00  0.00    +0.000 A 
ATOM     18  F   UNL     1      -7.168   9.521  18.836  0.00  0.00    +0.000 F 
ENDBRANCH   8  11
ENDBRANCH   4   7
BRANCH   1  19
ATOM     19  C   UNL     1       0.372  10.537  19.244  0.00  0.00    +0.000 C 
BRANCH  19  23
ATOM     20  C   UNL     1       2.702   6.832  19.392  0.00  0.00    +0.000 A 
ATOM     21  C   UNL     1       2.002   7.278  20.515  0.00  0.00    +0.000 A 
ATOM     22  C   UNL     1       1.228   8.445  20.456  0.00  0.00    +0.000 A 
ATOM     23  C   UNL     1       1.162   9.204  19.274  0.00  0.00    +0.000 A 
ATOM     24  C   UNL     1       1.909   8.760  18.166  0.00  0.00    +0.000 A 
ATOM     25  C   UNL     1       2.657   7.580  18.214  0.00  0.00    +0.000 A 
BRANCH  20  27
ATOM     26  N   UNL     1       4.116   4.664  19.500  0.00  0.00    +0.000 NA
ATOM     27  C   UNL     1       3.485   5.632  19.447  0.00  0.00    +0.000 C 
ENDBRANCH  20  27
ENDBRANCH  19  23
BRANCH  19  28
ATOM     28  C   UNL     1       1.278  11.763  19.416  0.00  0.00    +0.000 A 
ATOM     29  C   UNL     1       1.315  12.503  20.611  0.00  0.00    +0.000 A 
ATOM     30  C   UNL     1       2.187  13.578  20.749  0.00  0.00    +0.000 A 
ATOM     31  C   UNL     1       2.976  13.922  19.667  0.00  0.00    +0.000 A 
ATOM     32  N   UNL     1       2.923  13.292  18.477  0.00  0.00    +0.000 NA
ATOM     33  C   UNL     1       2.069  12.244  18.376  0.00  0.00    +0.000 A 
ENDBRANCH  19  28
ENDBRANCH   1  19
TORSDOF 6
ENDMDL
MODEL 8
REMARK VINA RESULT:      -7.9      5.513      7.496
REMARK  Name = 
REMARK  6 active torsions:
REMARK  status: ('A' for Active; 'I' for Inactive)
REMARK    1  A    between atoms: C_2  and  C_3
REMARK    2  A    between atoms: C_6  and  C_7
REMARK    3  A    between atoms: C_7  and  C_8
REMARK    4  A    between atoms: C_7  and  N_14
REMARK    5  A    between atoms: C_17  and  N_18
REMARK    6  A    between atoms: C_19  and  C_21
REMARK                            x       y       z     vdW  Elec       q    Type
REMARK                         _______ _______ _______ _____ _____    ______ ____
ROOT
ATOM      1  N   UNL     1       0.285  11.856  21.528  0.00  0.00    +0.000 NA
ATOM      2  C   UNL     1      -0.407  13.138  21.693  0.00  0.00    +0.000 C 
ATOM      3  C   UNL     1      -1.107  13.306  23.037  0.00  0.00    +0.000 C 
ATOM      4  C   UNL     1      -2.054  12.142  23.311  0.00  0.00    +0.000 C 
ATOM      5  C   UNL     1      -1.246  10.848  23.267  0.00  0.00    +0.000 C 
ATOM      6  C   UNL     1      -0.495  10.679  21.939  0.00  0.00    +0.000 C 
ENDROOT
BRANCH   4   7
ATOM      7  N   UNL     1      -3.182  12.121  22.377  0.00  0.00    +0.000 N 
ATOM      8  C   UNL     1      -4.307  12.901  22.571  0.00  0.00    +0.000 C 
ATOM      9  O   UNL     1      -4.406  13.688  23.501  0.00  0.00    +0.000 OA
ATOM     10  H   UNL     1      -3.238  11.365  21.704  0.00  0.00    +0.000 HD
BRANCH   8  11
ATOM     11  C   UNL     1      -5.414  12.754  21.591  0.00  0.00    +0.000 A 
ATOM     12  C   UNL     1      -5.235  12.949  20.221  0.00  0.00    +0.000 A 
ATOM     13  F   UNL     1      -4.044  13.321  19.726  0.00  0.00    +0.000 F 
ATOM     14  C   UNL     1      -6.286  12.759  19.319  0.00  0.00    +0.000 A 
ATOM     15  C   UNL     1      -7.542  12.374  19.783  0.00  0.00    +0.000 A 
ATOM     16  C   UNL     1      -7.740  12.189  21.150  0.00  0.00    +0.000 A 
ATOM     17  C   UNL     1      -6.681  12.377  22.041  0.00  0.00    +0.000 A 
ATOM     18  F   UNL     1      -6.938  12.216  23.347  0.00  0.00    +0.000 F 
ENDBRANCH   8  11
ENDBRANCH   4   7
BRANCH   1  19
ATOM     19  C   UNL     1       0.942  11.669  20.193  0.00  0.00    +0.000 C 
BRANCH  19  23
ATOM     20  C   UNL     1      -1.899  10.586  17.041  0.00  0.00    +0.000 A 
ATOM     21  C   UNL     1      -1.982  11.825  17.679  0.00  0.00    +0.000 A 
ATOM     22  C   UNL     1      -1.051  12.184  18.663  0.00  0.00    +0.000 A 
ATOM     23  C   UNL     1      -0.031  11.296  19.046  0.00  0.00    +0.000 A 
ATOM     24  C   UNL     1       0.011  10.035  18.420  0.00  0.00    +0.000 A 
ATOM     25  C   UNL     1      -0.899   9.687  17.417  0.00  0.00    +0.000 A 
BRANCH  20  27
ATOM     26  N   UNL     1      -3.600   9.928  15.202  0.00  0.00    +0.000 NA
ATOM     27  C   UNL     1      -2.843  10.221  16.026  0.00  0.00    +0.000 C 
ENDBRANCH  20  27
ENDBRANCH  19  23
BRANCH  19  28
ATOM     28  C   UNL     1       1.895  12.808  19.810  0.00  0.00    +0.000 A 
ATOM     29  C   UNL     1       2.132  13.167  18.471  0.00  0.00    +0.000 A 
ATOM     30  C   UNL     1       2.963  14.240  18.165  0.00  0.00    +0.000 A 
ATOM     31  C   UNL     1       3.580  14.907  19.206  0.00  0.00    +0.000 A 
ATOM     32  N   UNL     1       3.444  14.554  20.500  0.00  0.00    +0.000 NA
ATOM     33  C   UNL     1       2.623  13.511  20.767  0.00  0.00    +0.000 A 
ENDBRANCH  19  28
ENDBRANCH   1  19
TORSDOF 6
ENDMDL
MODEL 9
REMARK VINA RESULT:      -7.9      3.000      6.261
REMARK  Name = 
REMARK  6 active torsions:
REMARK  status: ('A' for Active; 'I' for Inactive)
REMARK    1  A    between atoms: C_2  and  C_3
REMARK    2  A    between atoms: C_6  and  C_7
REMARK    3  A    between atoms: C_7  and  C_8
REMARK    4  A    between atoms: C_7  and  N_14
REMARK    5  A    between atoms: C_17  and  N_18
REMARK    6  A    between atoms: C_19  and  C_21
REMARK                            x       y       z     vdW  Elec       q    Type
REMARK                         _______ _______ _______ _____ _____    ______ ____
ROOT
ATOM      1  N   UNL     1      -0.574  10.689  18.159  0.00  0.00    +0.000 NA
ATOM      2  C   UNL     1      -1.467   9.536  18.008  0.00  0.00    +0.000 C 
ATOM      3  C   UNL     1      -2.438   9.641  16.838  0.00  0.00    +0.000 C 
ATOM      4  C   UNL     1      -3.239  10.938  16.905  0.00  0.00    +0.000 C 
ATOM      5  C   UNL     1      -2.255  12.106  16.914  0.00  0.00    +0.000 C 
ATOM      6  C   UNL     1      -1.239  11.997  18.058  0.00  0.00    +0.000 C 
ENDROOT
BRANCH   4   7
ATOM      7  N   UNL     1      -4.142  10.967  18.058  0.00  0.00    +0.000 N 
ATOM      8  C   UNL     1      -5.351  11.635  18.023  0.00  0.00    +0.000 C 
ATOM      9  O   UNL     1      -5.759  12.198  17.017  0.00  0.00    +0.000 OA
ATOM     10  H   UNL     1      -3.780  10.685  18.962  0.00  0.00    +0.000 HD
BRANCH   8  11
ATOM     11  C   UNL     1      -6.158  11.647  19.270  0.00  0.00    +0.000 A 
ATOM     12  C   UNL     1      -7.020  10.606  19.617  0.00  0.00    +0.000 A 
ATOM     13  F   UNL     1      -7.187   9.549  18.806  0.00  0.00    +0.000 F 
ATOM     14  C   UNL     1      -7.732  10.625  20.820  0.00  0.00    +0.000 A 
ATOM     15  C   UNL     1      -7.593  11.701  21.695  0.00  0.00    +0.000 A 
ATOM     16  C   UNL     1      -6.748  12.755  21.356  0.00  0.00    +0.000 A 
ATOM     17  C   UNL     1      -6.038  12.722  20.154  0.00  0.00    +0.000 A 
ATOM     18  F   UNL     1      -5.263  13.779  19.866  0.00  0.00    +0.000 F 
ENDBRANCH   8  11
ENDBRANCH   4   7
BRANCH   1  19
ATOM     19  C   UNL     1       0.356  10.609  19.333  0.00  0.00    +0.000 C 
BRANCH  19  23
ATOM     20  C   UNL     1       2.510   6.802  19.546  0.00  0.00    +0.000 A 
ATOM     21  C   UNL     1       2.507   7.553  18.369  0.00  0.00    +0.000 A 
ATOM     22  C   UNL     1       1.847   8.788  18.313  0.00  0.00    +0.000 A 
ATOM     23  C   UNL     1       1.153   9.284  19.430  0.00  0.00    +0.000 A 
ATOM     24  C   UNL     1       1.133   8.492  20.595  0.00  0.00    +0.000 A 
ATOM     25  C   UNL     1       1.817   7.274  20.663  0.00  0.00    +0.000 A 
BRANCH  20  27
ATOM     26  N   UNL     1       3.745   4.528  19.652  0.00  0.00    +0.000 NA
ATOM     27  C   UNL     1       3.195   5.545  19.609  0.00  0.00    +0.000 C 
ENDBRANCH  20  27
ENDBRANCH  19  23
BRANCH  19  28
ATOM     28  C   UNL     1       1.248  11.846  19.497  0.00  0.00    +0.000 A 
ATOM     29  C   UNL     1       1.249  12.615  20.674  0.00  0.00    +0.000 A 
ATOM     30  C   UNL     1       2.110  13.701  20.808  0.00  0.00    +0.000 A 
ATOM     31  C   UNL     1       2.923  14.024  19.738  0.00  0.00    +0.000 A 
ATOM     32  N   UNL     1       2.905  13.365  18.563  0.00  0.00    +0.000 NA
ATOM     33  C   UNL     1       2.062  12.309  18.466  0.00  0.00    +0.000 A 
ENDBRANCH  19  28
ENDBRANCH   1  19
TORSDOF 6
ENDMDL
