MODEL 1
REMARK VINA RESULT:      -8.1      0.000      0.000
REMARK  Name = 
REMARK  7 active torsions:
REMARK  status: ('A' for Active; 'I' for Inactive)
REMARK    1  A    between atoms: C_1  and  O_2
REMARK    2  A    between atoms: O_2  and  C_3
REMARK    3  A    between atoms: C_6  and  N_7
REMARK    4  A    between atoms: C_9  and  C_10
REMARK    5  A    between atoms: N_12  and  C_13
REMARK    6  A    between atoms: C_17  and  C_18
REMARK    7  A    between atoms: N_30  and  C_31
REMARK                            x       y       z     vdW  Elec       q    Type
REMARK                         _______ _______ _______ _____ _____    ______ ____
ROOT
ATOM      1  N   UNL     1       0.740  11.241  19.197  0.00  0.00    +0.000 N 
ATOM      2  N   UNL     1      -0.633  11.330  19.544  0.00  0.00    +0.000 NA
ATOM      3  C   UNL     1      -1.195  12.502  19.666  0.00  0.00    +0.000 A 
ATOM      4  C   UNL     1      -0.416  13.689  19.477  0.00  0.00    +0.000 A 
ATOM      5  C   UNL     1      -0.722  15.061  19.645  0.00  0.00    +0.000 A 
ATOM      6  C   UNL     1      -1.730  15.776  20.313  0.00  0.00    +0.000 A 
ATOM      7  C   UNL     1      -2.029  17.065  19.881  0.00  0.00    +0.000 A 
ATOM      8  C   UNL     1      -1.346  17.618  18.800  0.00  0.00    +0.000 A 
ATOM      9  C   UNL     1      -0.223  16.987  18.247  0.00  0.00    +0.000 A 
ATOM     10  C   UNL     1       0.121  15.725  18.752  0.00  0.00    +0.000 A 
ATOM     11  N   UNL     1       1.196  14.881  18.554  0.00  0.00    +0.000 N 
ATOM     12  C   UNL     1       2.517  15.277  18.115  0.00  0.00    +0.000 C 
ATOM     13  C   UNL     1       0.840  13.608  18.934  0.00  0.00    +0.000 A 
ATOM     14  C   UNL     1       1.531  12.354  18.789  0.00  0.00    +0.000 A 
ATOM     15  O   UNL     1       2.678  12.305  18.358  0.00  0.00    +0.000 OA
ENDROOT
BRANCH   1  19
ATOM     16  C   UNL     1       2.198   7.247  19.149  0.00  0.00    +0.000 A 
ATOM     17  C   UNL     1       1.715   7.803  20.332  0.00  0.00    +0.000 A 
ATOM     18  C   UNL     1       1.240   9.119  20.358  0.00  0.00    +0.000 A 
ATOM     19  C   UNL     1       1.244   9.907  19.203  0.00  0.00    +0.000 A 
ATOM     20  C   UNL     1       1.738   9.331  18.017  0.00  0.00    +0.000 A 
ATOM     21  C   UNL     1       2.223   8.020  17.991  0.00  0.00    +0.000 A 
BRANCH  16  23
ATOM     22  C   UNL     1       3.962   5.733  18.754  0.00  0.00    +0.000 C 
ATOM     23  O   UNL     1       2.643   5.959  19.250  0.00  0.00    +0.000 OA
ENDBRANCH  16  23
ENDBRANCH   1  19
BRANCH   3  24
ATOM     24  C   UNL     1      -2.704  12.595  19.818  0.00  0.00    +0.000 C 
ATOM     25  O   UNL     1      -3.408  12.071  18.967  0.00  0.00    +0.000 OA
ATOM     26  N   UNL     1      -3.151  13.206  20.973  0.00  0.00    +0.000 N 
ATOM     27  H   UNL     1      -2.479  13.307  21.721  0.00  0.00    +0.000 HD
BRANCH  26  28
ATOM     28  C   UNL     1      -4.519  13.450  21.242  0.00  0.00    +0.000 A 
ATOM     29  C   UNL     1      -5.335  14.200  20.384  0.00  0.00    +0.000 A 
ATOM     30  C   UNL     1      -6.688  14.392  20.659  0.00  0.00    +0.000 A 
ATOM     31  C   UNL     1      -7.247  13.831  21.802  0.00  0.00    +0.000 A 
ATOM     32  C   UNL     1      -6.450  13.092  22.690  0.00  0.00    +0.000 A 
ATOM     33  C   UNL     1      -5.079  12.922  22.409  0.00  0.00    +0.000 A 
BRANCH  32  34
ATOM     34  C   UNL     1      -7.053  12.466  23.922  0.00  0.00    +0.000 C 
ATOM     35  F   UNL     1      -7.862  11.405  23.658  0.00  0.00    +0.000 F 
ATOM     36  F   UNL     1      -6.108  12.013  24.791  0.00  0.00    +0.000 F 
ATOM     37  F   UNL     1      -7.813  13.351  24.627  0.00  0.00    +0.000 F 
ENDBRANCH  32  34
ENDBRANCH  26  28
ENDBRANCH   3  24
TORSDOF 5
ENDMDL
MODEL 2
REMARK VINA RESULT:      -7.9      0.974      1.249
REMARK  Name = 
REMARK  7 active torsions:
REMARK  status: ('A' for Active; 'I' for Inactive)
REMARK    1  A    between atoms: C_1  and  O_2
REMARK    2  A    between atoms: O_2  and  C_3
REMARK    3  A    between atoms: C_6  and  N_7
REMARK    4  A    between atoms: C_9  and  C_10
REMARK    5  A    between atoms: N_12  and  C_13
REMARK    6  A    between atoms: C_17  and  C_18
REMARK    7  A    between atoms: N_30  and  C_31
REMARK                            x       y       z     vdW  Elec       q    Type
REMARK                         _______ _______ _______ _____ _____    ______ ____
ROOT
ATOM      1  N   UNL     1       0.570  11.286  19.290  0.00  0.00    +0.000 N 
ATOM      2  N   UNL     1      -0.819  11.294  19.584  0.00  0.00    +0.000 NA
ATOM      3  C   UNL     1      -1.438  12.431  19.752  0.00  0.00    +0.000 A 
ATOM      4  C   UNL     1      -0.707  13.660  19.667  0.00  0.00    +0.000 A 
ATOM      5  C   UNL     1      -1.081  15.004  19.904  0.00  0.00    +0.000 A 
ATOM      6  C   UNL     1      -2.146  15.633  20.571  0.00  0.00    +0.000 A 
ATOM      7  C   UNL     1      -2.486  16.931  20.205  0.00  0.00    +0.000 A 
ATOM      8  C   UNL     1      -1.788  17.580  19.188  0.00  0.00    +0.000 A 
ATOM      9  C   UNL     1      -0.617  17.032  18.644  0.00  0.00    +0.000 A 
ATOM     10  C   UNL     1      -0.236  15.758  19.087  0.00  0.00    +0.000 A 
ATOM     11  N   UNL     1       0.884  14.975  18.884  0.00  0.00    +0.000 N 
ATOM     12  C   UNL     1       2.201  15.454  18.525  0.00  0.00    +0.000 C 
ATOM     13  C   UNL     1       0.572  13.667  19.172  0.00  0.00    +0.000 A 
ATOM     14  C   UNL     1       1.324  12.454  18.982  0.00  0.00    +0.000 A 
ATOM     15  O   UNL     1       2.488  12.481  18.596  0.00  0.00    +0.000 OA
ENDROOT
BRANCH   1  19
ATOM     16  C   UNL     1       2.205   7.367  19.066  0.00  0.00    +0.000 A 
ATOM     17  C   UNL     1       1.714   7.854  20.276  0.00  0.00    +0.000 A 
ATOM     18  C   UNL     1       1.180   9.145  20.360  0.00  0.00    +0.000 A 
ATOM     19  C   UNL     1       1.133   9.977  19.237  0.00  0.00    +0.000 A 
ATOM     20  C   UNL     1       1.637   9.471  18.023  0.00  0.00    +0.000 A 
ATOM     21  C   UNL     1       2.180   8.185  17.940  0.00  0.00    +0.000 A 
BRANCH  16  23
ATOM     22  C   UNL     1       3.968   5.922  18.462  0.00  0.00    +0.000 C 
ATOM     23  O   UNL     1       2.709   6.098  19.111  0.00  0.00    +0.000 OA
ENDBRANCH  16  23
ENDBRANCH   1  19
BRANCH   3  24
ATOM     24  C   UNL     1      -2.955  12.449  19.847  0.00  0.00    +0.000 C 
ATOM     25  O   UNL     1      -3.603  12.229  18.835  0.00  0.00    +0.000 OA
ATOM     26  N   UNL     1      -3.470  12.635  21.115  0.00  0.00    +0.000 N 
ATOM     27  H   UNL     1      -2.836  12.490  21.888  0.00  0.00    +0.000 HD
BRANCH  26  28
ATOM     28  C   UNL     1      -4.856  12.759  21.377  0.00  0.00    +0.000 A 
ATOM     29  C   UNL     1      -5.821  11.988  20.715  0.00  0.00    +0.000 A 
ATOM     30  C   UNL     1      -7.176  12.108  21.022  0.00  0.00    +0.000 A 
ATOM     31  C   UNL     1      -7.586  13.006  22.001  0.00  0.00    +0.000 A 
ATOM     32  C   UNL     1      -6.644  13.805  22.666  0.00  0.00    +0.000 A 
ATOM     33  C   UNL     1      -5.280  13.687  22.333  0.00  0.00    +0.000 A 
BRANCH  32  34
ATOM     34  C   UNL     1      -7.079  14.768  23.742  0.00  0.00    +0.000 C 
ATOM     35  F   UNL     1      -7.917  15.744  23.299  0.00  0.00    +0.000 F 
ATOM     36  F   UNL     1      -7.732  14.147  24.763  0.00  0.00    +0.000 F 
ATOM     37  F   UNL     1      -6.023  15.411  24.313  0.00  0.00    +0.000 F 
ENDBRANCH  32  34
ENDBRANCH  26  28
ENDBRANCH   3  24
TORSDOF 5
ENDMDL
MODEL 3
REMARK VINA RESULT:      -7.9      4.428      8.576
REMARK  Name = 
REMARK  7 active torsions:
REMARK  status: ('A' for Active; 'I' for Inactive)
REMARK    1  A    between atoms: C_1  and  O_2
REMARK    2  A    between atoms: O_2  and  C_3
REMARK    3  A    between atoms: C_6  and  N_7
REMARK    4  A    between atoms: C_9  and  C_10
REMARK    5  A    between atoms: N_12  and  C_13
REMARK    6  A    between atoms: C_17  and  C_18
REMARK    7  A    between atoms: N_30  and  C_31
REMARK                            x       y       z     vdW  Elec       q    Type
REMARK                         _______ _______ _______ _____ _____    ______ ____
ROOT
ATOM      1  N   UNL     1      -2.382  13.288  20.961  0.00  0.00    +0.000 N 
ATOM      2  N   UNL     1      -1.615  12.095  21.005  0.00  0.00    +0.000 NA
ATOM      3  C   UNL     1      -0.459  12.047  20.401  0.00  0.00    +0.000 A 
ATOM      4  C   UNL     1       0.014  13.188  19.675  0.00  0.00    +0.000 A 
ATOM      5  C   UNL     1       1.151  13.386  18.854  0.00  0.00    +0.000 A 
ATOM      6  C   UNL     1       2.057  12.537  18.197  0.00  0.00    +0.000 A 
ATOM      7  C   UNL     1       3.324  13.025  17.892  0.00  0.00    +0.000 A 
ATOM      8  C   UNL     1       3.679  14.326  18.246  0.00  0.00    +0.000 A 
ATOM      9  C   UNL     1       2.728  15.233  18.736  0.00  0.00    +0.000 A 
ATOM     10  C   UNL     1       1.430  14.749  18.957  0.00  0.00    +0.000 A 
ATOM     11  N   UNL     1       0.236  15.352  19.301  0.00  0.00    +0.000 N 
ATOM     12  C   UNL     1      -0.113  16.737  19.071  0.00  0.00    +0.000 C 
ATOM     13  C   UNL     1      -0.613  14.399  19.812  0.00  0.00    +0.000 A 
ATOM     14  C   UNL     1      -1.900  14.526  20.446  0.00  0.00    +0.000 A 
ATOM     15  O   UNL     1      -2.476  15.606  20.507  0.00  0.00    +0.000 OA
ENDROOT
BRANCH   1  19
ATOM     16  C   UNL     1      -6.173  12.872  22.841  0.00  0.00    +0.000 A 
ATOM     17  C   UNL     1      -6.037  12.624  21.477  0.00  0.00    +0.000 A 
ATOM     18  C   UNL     1      -4.793  12.765  20.849  0.00  0.00    +0.000 A 
ATOM     19  C   UNL     1      -3.665  13.163  21.572  0.00  0.00    +0.000 A 
ATOM     20  C   UNL     1      -3.822  13.413  22.949  0.00  0.00    +0.000 A 
ATOM     21  C   UNL     1      -5.064  13.283  23.576  0.00  0.00    +0.000 A 
BRANCH  16  23
ATOM     22  C   UNL     1      -7.888  13.755  24.199  0.00  0.00    +0.000 C 
ATOM     23  O   UNL     1      -7.436  12.710  23.339  0.00  0.00    +0.000 OA
ENDBRANCH  16  23
ENDBRANCH   1  19
BRANCH   3  24
ATOM     24  C   UNL     1       0.456  10.855  20.631  0.00  0.00    +0.000 C 
ATOM     25  O   UNL     1       1.222  10.885  21.583  0.00  0.00    +0.000 OA
ATOM     26  N   UNL     1       0.274   9.789  19.771  0.00  0.00    +0.000 N 
ATOM     27  H   UNL     1      -0.588   9.774  19.245  0.00  0.00    +0.000 HD
BRANCH  26  28
ATOM     28  C   UNL     1       1.089   8.632  19.789  0.00  0.00    +0.000 A 
ATOM     29  C   UNL     1       1.042   7.691  20.826  0.00  0.00    +0.000 A 
ATOM     30  C   UNL     1       1.832   6.543  20.797  0.00  0.00    +0.000 A 
ATOM     31  C   UNL     1       2.684   6.318  19.721  0.00  0.00    +0.000 A 
ATOM     32  C   UNL     1       2.767   7.253  18.678  0.00  0.00    +0.000 A 
ATOM     33  C   UNL     1       1.977   8.419  18.730  0.00  0.00    +0.000 A 
BRANCH  32  34
ATOM     34  C   UNL     1       3.676   7.007  17.500  0.00  0.00    +0.000 C 
ATOM     35  F   UNL     1       3.371   7.756  16.407  0.00  0.00    +0.000 F 
ATOM     36  F   UNL     1       4.981   7.272  17.786  0.00  0.00    +0.000 F 
ATOM     37  F   UNL     1       3.642   5.709  17.087  0.00  0.00    +0.000 F 
ENDBRANCH  32  34
ENDBRANCH  26  28
ENDBRANCH   3  24
TORSDOF 5
ENDMDL
MODEL 4
REMARK VINA RESULT:      -7.8      3.842      8.162
REMARK  Name = 
REMARK  7 active torsions:
REMARK  status: ('A' for Active; 'I' for Inactive)
REMARK    1  A    between atoms: C_1  and  O_2
REMARK    2  A    between atoms: O_2  and  C_3
REMARK    3  A    between atoms: C_6  and  N_7
REMARK    4  A    between atoms: C_9  and  C_10
REMARK    5  A    between atoms: N_12  and  C_13
REMARK    6  A    between atoms: C_17  and  C_18
REMARK    7  A    between atoms: N_30  and  C_31
REMARK                            x       y       z     vdW  Elec       q    Type
REMARK                         _______ _______ _______ _____ _____    ______ ____
ROOT
ATOM      1  N   UNL     1      -1.943  13.445  21.691  0.00  0.00    +0.000 N 
ATOM      2  N   UNL     1      -1.234  12.264  21.351  0.00  0.00    +0.000 NA
ATOM      3  C   UNL     1      -0.132  12.349  20.657  0.00  0.00    +0.000 A 
ATOM      4  C   UNL     1       0.338  13.630  20.220  0.00  0.00    +0.000 A 
ATOM      5  C   UNL     1       1.416  14.010  19.384  0.00  0.00    +0.000 A 
ATOM      6  C   UNL     1       2.226  13.345  18.449  0.00  0.00    +0.000 A 
ATOM      7  C   UNL     1       3.488  13.864  18.173  0.00  0.00    +0.000 A 
ATOM      8  C   UNL     1       3.932  15.012  18.826  0.00  0.00    +0.000 A 
ATOM      9  C   UNL     1       3.067  15.780  19.620  0.00  0.00    +0.000 A 
ATOM     10  C   UNL     1       1.768  15.289  19.818  0.00  0.00    +0.000 A 
ATOM     11  N   UNL     1       0.635  15.809  20.412  0.00  0.00    +0.000 N 
ATOM     12  C   UNL     1       0.336  17.213  20.587  0.00  0.00    +0.000 C 
ATOM     13  C   UNL     1      -0.217  14.776  20.726  0.00  0.00    +0.000 A 
ATOM     14  C   UNL     1      -1.443  14.763  21.481  0.00  0.00    +0.000 A 
ATOM     15  O   UNL     1      -1.959  15.802  21.875  0.00  0.00    +0.000 OA
ENDROOT
BRANCH   1  19
ATOM     16  C   UNL     1      -5.597  12.633  23.710  0.00  0.00    +0.000 A 
ATOM     17  C   UNL     1      -5.602  12.954  22.354  0.00  0.00    +0.000 A 
ATOM     18  C   UNL     1      -4.404  13.230  21.684  0.00  0.00    +0.000 A 
ATOM     19  C   UNL     1      -3.179  13.195  22.358  0.00  0.00    +0.000 A 
ATOM     20  C   UNL     1      -3.193  12.872  23.728  0.00  0.00    +0.000 A 
ATOM     21  C   UNL     1      -4.389  12.606  24.402  0.00  0.00    +0.000 A 
BRANCH  16  23
ATOM     22  C   UNL     1      -7.702  13.520  24.294  0.00  0.00    +0.000 C 
ATOM     23  O   UNL     1      -6.826  12.394  24.256  0.00  0.00    +0.000 OA
ENDBRANCH  16  23
ENDBRANCH   1  19
BRANCH   3  24
ATOM     24  C   UNL     1       0.739  11.116  20.483  0.00  0.00    +0.000 C 
ATOM     25  O   UNL     1       1.447  10.767  21.416  0.00  0.00    +0.000 OA
ATOM     26  N   UNL     1       0.584  10.441  19.288  0.00  0.00    +0.000 N 
ATOM     27  H   UNL     1      -0.245  10.653  18.752  0.00  0.00    +0.000 HD
BRANCH  26  28
ATOM     28  C   UNL     1       1.369   9.320  18.924  0.00  0.00    +0.000 A 
ATOM     29  C   UNL     1       2.225   9.326  17.814  0.00  0.00    +0.000 A 
ATOM     30  C   UNL     1       3.012   8.217  17.504  0.00  0.00    +0.000 A 
ATOM     31  C   UNL     1       2.954   7.082  18.305  0.00  0.00    +0.000 A 
ATOM     32  C   UNL     1       2.092   7.041  19.410  0.00  0.00    +0.000 A 
ATOM     33  C   UNL     1       1.288   8.161  19.702  0.00  0.00    +0.000 A 
BRANCH  32  34
ATOM     34  C   UNL     1       2.038   5.820  20.294  0.00  0.00    +0.000 C 
ATOM     35  F   UNL     1       1.558   6.067  21.542  0.00  0.00    +0.000 F 
ATOM     36  F   UNL     1       1.250   4.838  19.776  0.00  0.00    +0.000 F 
ATOM     37  F   UNL     1       3.267   5.258  20.469  0.00  0.00    +0.000 F 
ENDBRANCH  32  34
ENDBRANCH  26  28
ENDBRANCH   3  24
TORSDOF 5
ENDMDL
MODEL 5
REMARK VINA RESULT:      -7.8      1.609      2.077
REMARK  Name = 
REMARK  7 active torsions:
REMARK  status: ('A' for Active; 'I' for Inactive)
REMARK    1  A    between atoms: C_1  and  O_2
REMARK    2  A    between atoms: O_2  and  C_3
REMARK    3  A    between atoms: C_6  and  N_7
REMARK    4  A    between atoms: C_9  and  C_10
REMARK    5  A    between atoms: N_12  and  C_13
REMARK    6  A    between atoms: C_17  and  C_18
REMARK    7  A    between atoms: N_30  and  C_31
REMARK                            x       y       z     vdW  Elec       q    Type
REMARK                         _______ _______ _______ _____ _____    ______ ____
ROOT
ATOM      1  N   UNL     1       1.045  10.752  19.110  0.00  0.00    +0.000 N 
ATOM      2  N   UNL     1      -0.267  10.822  19.647  0.00  0.00    +0.000 NA
ATOM      3  C   UNL     1      -0.810  11.987  19.876  0.00  0.00    +0.000 A 
ATOM      4  C   UNL     1      -0.069  13.184  19.610  0.00  0.00    +0.000 A 
ATOM      5  C   UNL     1      -0.352  14.549  19.855  0.00  0.00    +0.000 A 
ATOM      6  C   UNL     1      -1.260  15.240  20.675  0.00  0.00    +0.000 A 
ATOM      7  C   UNL     1      -1.620  16.537  20.323  0.00  0.00    +0.000 A 
ATOM      8  C   UNL     1      -1.097  17.122  19.172  0.00  0.00    +0.000 A 
ATOM      9  C   UNL     1      -0.060  16.512  18.451  0.00  0.00    +0.000 A 
ATOM     10  C   UNL     1       0.355  15.241  18.871  0.00  0.00    +0.000 A 
ATOM     11  N   UNL     1       1.395  14.409  18.503  0.00  0.00    +0.000 N 
ATOM     12  C   UNL     1       2.640  14.825  17.895  0.00  0.00    +0.000 C 
ATOM     13  C   UNL     1       1.099  13.125  18.896  0.00  0.00    +0.000 A 
ATOM     14  C   UNL     1       1.768  11.879  18.624  0.00  0.00    +0.000 A 
ATOM     15  O   UNL     1       2.843  11.848  18.036  0.00  0.00    +0.000 OA
ENDROOT
BRANCH   1  19
ATOM     16  C   UNL     1       2.585   6.794  18.885  0.00  0.00    +0.000 A 
ATOM     17  C   UNL     1       2.650   7.636  17.776  0.00  0.00    +0.000 A 
ATOM     18  C   UNL     1       2.139   8.938  17.840  0.00  0.00    +0.000 A 
ATOM     19  C   UNL     1       1.548   9.421  19.011  0.00  0.00    +0.000 A 
ATOM     20  C   UNL     1       1.487   8.556  20.121  0.00  0.00    +0.000 A 
ATOM     21  C   UNL     1       1.987   7.252  20.056  0.00  0.00    +0.000 A 
BRANCH  16  23
ATOM     22  C   UNL     1       3.926   5.397  17.540  0.00  0.00    +0.000 C 
ATOM     23  O   UNL     1       3.106   5.545  18.699  0.00  0.00    +0.000 OA
ENDBRANCH  16  23
ENDBRANCH   1  19
BRANCH   3  24
ATOM     24  C   UNL     1      -2.284  12.066  20.239  0.00  0.00    +0.000 C 
ATOM     25  O   UNL     1      -2.596  12.005  21.419  0.00  0.00    +0.000 OA
ATOM     26  N   UNL     1      -3.147  12.289  19.184  0.00  0.00    +0.000 N 
ATOM     27  H   UNL     1      -2.735  12.628  18.326  0.00  0.00    +0.000 HD
BRANCH  26  28
ATOM     28  C   UNL     1      -4.555  12.312  19.326  0.00  0.00    +0.000 A 
ATOM     29  C   UNL     1      -5.395  11.401  18.672  0.00  0.00    +0.000 A 
ATOM     30  C   UNL     1      -6.777  11.428  18.862  0.00  0.00    +0.000 A 
ATOM     31  C   UNL     1      -7.339  12.371  19.714  0.00  0.00    +0.000 A 
ATOM     32  C   UNL     1      -6.524  13.308  20.367  0.00  0.00    +0.000 A 
ATOM     33  C   UNL     1      -5.131  13.282  20.152  0.00  0.00    +0.000 A 
BRANCH  32  34
ATOM     34  C   UNL     1      -7.125  14.322  21.307  0.00  0.00    +0.000 C 
ATOM     35  F   UNL     1      -6.202  15.052  21.990  0.00  0.00    +0.000 F 
ATOM     36  F   UNL     1      -7.916  15.224  20.663  0.00  0.00    +0.000 F 
ATOM     37  F   UNL     1      -7.917  13.741  22.252  0.00  0.00    +0.000 F 
ENDBRANCH  32  34
ENDBRANCH  26  28
ENDBRANCH   3  24
TORSDOF 5
ENDMDL
MODEL 6
REMARK VINA RESULT:      -7.7      3.839      5.775
REMARK  Name = 
REMARK  7 active torsions:
REMARK  status: ('A' for Active; 'I' for Inactive)
REMARK    1  A    between atoms: C_1  and  O_2
REMARK    2  A    between atoms: O_2  and  C_3
REMARK    3  A    between atoms: C_6  and  N_7
REMARK    4  A    between atoms: C_9  and  C_10
REMARK    5  A    between atoms: N_12  and  C_13
REMARK    6  A    between atoms: C_17  and  C_18
REMARK    7  A    between atoms: N_30  and  C_31
REMARK                            x       y       z     vdW  Elec       q    Type
REMARK                         _______ _______ _______ _____ _____    ______ ____
ROOT
ATOM      1  N   UNL     1       1.820  14.482  20.884  0.00  0.00    +0.000 N 
ATOM      2  N   UNL     1       1.056  13.434  20.308  0.00  0.00    +0.000 NA
ATOM      3  C   UNL     1      -0.044  13.040  20.891  0.00  0.00    +0.000 A 
ATOM      4  C   UNL     1      -0.456  13.648  22.122  0.00  0.00    +0.000 A 
ATOM      5  C   UNL     1      -1.517  13.361  23.013  0.00  0.00    +0.000 A 
ATOM      6  C   UNL     1      -2.361  12.257  23.224  0.00  0.00    +0.000 A 
ATOM      7  C   UNL     1      -3.598  12.472  23.825  0.00  0.00    +0.000 A 
ATOM      8  C   UNL     1      -3.986  13.759  24.193  0.00  0.00    +0.000 A 
ATOM      9  C   UNL     1      -3.083  14.832  24.152  0.00  0.00    +0.000 A 
ATOM     10  C   UNL     1      -1.808  14.581  23.624  0.00  0.00    +0.000 A 
ATOM     11  N   UNL     1      -0.650  15.328  23.540  0.00  0.00    +0.000 N 
ATOM     12  C   UNL     1      -0.286  16.430  24.404  0.00  0.00    +0.000 C 
ATOM     13  C   UNL     1       0.155  14.794  22.561  0.00  0.00    +0.000 A 
ATOM     14  C   UNL     1       1.381  15.277  21.982  0.00  0.00    +0.000 A 
ATOM     15  O   UNL     1       1.947  16.270  22.426  0.00  0.00    +0.000 OA
ENDROOT
BRANCH   1  19
ATOM     16  C   UNL     1       5.455  15.178  18.791  0.00  0.00    +0.000 A 
ATOM     17  C   UNL     1       5.459  15.053  20.179  0.00  0.00    +0.000 A 
ATOM     18  C   UNL     1       4.266  14.830  20.876  0.00  0.00    +0.000 A 
ATOM     19  C   UNL     1       3.046  14.735  20.200  0.00  0.00    +0.000 A 
ATOM     20  C   UNL     1       3.060  14.867  18.798  0.00  0.00    +0.000 A 
ATOM     21  C   UNL     1       4.249  15.099  18.101  0.00  0.00    +0.000 A 
BRANCH  16  23
ATOM     22  C   UNL     1       7.309  14.250  17.666  0.00  0.00    +0.000 C 
ATOM     23  O   UNL     1       6.678  15.402  18.224  0.00  0.00    +0.000 OA
ENDBRANCH  16  23
ENDBRANCH   1  19
BRANCH   3  24
ATOM     24  C   UNL     1      -0.972  12.080  20.166  0.00  0.00    +0.000 C 
ATOM     25  O   UNL     1      -0.880  10.886  20.410  0.00  0.00    +0.000 OA
ATOM     26  N   UNL     1      -1.911  12.668  19.341  0.00  0.00    +0.000 N 
ATOM     27  H   UNL     1      -2.077  13.655  19.475  0.00  0.00    +0.000 HD
BRANCH  26  28
ATOM     28  C   UNL     1      -2.803  11.925  18.529  0.00  0.00    +0.000 A 
ATOM     29  C   UNL     1      -2.379  11.208  17.403  0.00  0.00    +0.000 A 
ATOM     30  C   UNL     1      -3.276  10.457  16.645  0.00  0.00    +0.000 A 
ATOM     31  C   UNL     1      -4.618  10.411  17.007  0.00  0.00    +0.000 A 
ATOM     32  C   UNL     1      -5.074  11.136  18.118  0.00  0.00    +0.000 A 
ATOM     33  C   UNL     1      -4.160  11.906  18.864  0.00  0.00    +0.000 A 
BRANCH  32  34
ATOM     34  C   UNL     1      -6.524  11.077  18.528  0.00  0.00    +0.000 C 
ATOM     35  F   UNL     1      -6.769  11.602  19.758  0.00  0.00    +0.000 F 
ATOM     36  F   UNL     1      -7.336  11.748  17.664  0.00  0.00    +0.000 F 
ATOM     37  F   UNL     1      -6.996   9.799  18.565  0.00  0.00    +0.000 F 
ENDBRANCH  32  34
ENDBRANCH  26  28
ENDBRANCH   3  24
TORSDOF 5
ENDMDL
MODEL 7
REMARK VINA RESULT:      -7.7      4.453      6.365
REMARK  Name = 
REMARK  7 active torsions:
REMARK  status: ('A' for Active; 'I' for Inactive)
REMARK    1  A    between atoms: C_1  and  O_2
REMARK    2  A    between atoms: O_2  and  C_3
REMARK    3  A    between atoms: C_6  and  N_7
REMARK    4  A    between atoms: C_9  and  C_10
REMARK    5  A    between atoms: N_12  and  C_13
REMARK    6  A    between atoms: C_17  and  C_18
REMARK    7  A    between atoms: N_30  and  C_31
REMARK                            x       y       z     vdW  Elec       q    Type
REMARK                         _______ _______ _______ _____ _____    ______ ____
ROOT
ATOM      1  N   UNL     1       3.964  16.007  18.798  0.00  0.00    +0.000 N 
ATOM      2  N   UNL     1       3.414  15.313  19.907  0.00  0.00    +0.000 NA
ATOM      3  C   UNL     1       2.200  15.583  20.302  0.00  0.00    +0.000 A 
ATOM      4  C   UNL     1       1.441  16.598  19.633  0.00  0.00    +0.000 A 
ATOM      5  C   UNL     1       0.173  17.167  19.901  0.00  0.00    +0.000 A 
ATOM      6  C   UNL     1      -0.678  17.206  21.018  0.00  0.00    +0.000 A 
ATOM      7  C   UNL     1      -2.039  17.411  20.810  0.00  0.00    +0.000 A 
ATOM      8  C   UNL     1      -2.536  17.560  19.517  0.00  0.00    +0.000 A 
ATOM      9  C   UNL     1      -1.678  17.702  18.417  0.00  0.00    +0.000 A 
ATOM     10  C   UNL     1      -0.301  17.581  18.655  0.00  0.00    +0.000 A 
ATOM     11  N   UNL     1       0.821  17.778  17.874  0.00  0.00    +0.000 N 
ATOM     12  C   UNL     1       0.903  18.629  16.707  0.00  0.00    +0.000 C 
ATOM     13  C   UNL     1       1.881  17.111  18.440  0.00  0.00    +0.000 A 
ATOM     14  C   UNL     1       3.215  16.874  17.951  0.00  0.00    +0.000 A 
ATOM     15  O   UNL     1       3.612  17.389  16.912  0.00  0.00    +0.000 OA
ENDROOT
BRANCH   1  19
ATOM     16  C   UNL     1       8.048  15.122  18.017  0.00  0.00    +0.000 A 
ATOM     17  C   UNL     1       7.051  14.227  17.632  0.00  0.00    +0.000 A 
ATOM     18  C   UNL     1       5.705  14.508  17.892  0.00  0.00    +0.000 A 
ATOM     19  C   UNL     1       5.330  15.686  18.546  0.00  0.00    +0.000 A 
ATOM     20  C   UNL     1       6.351  16.576  18.931  0.00  0.00    +0.000 A 
ATOM     21  C   UNL     1       7.697  16.293  18.682  0.00  0.00    +0.000 A 
BRANCH  16  23
ATOM     22  C   UNL     1      10.194  14.594  18.841  0.00  0.00    +0.000 C 
ATOM     23  O   UNL     1       9.324  14.734  17.718  0.00  0.00    +0.000 OA
ENDBRANCH  16  23
ENDBRANCH   1  19
BRANCH   3  24
ATOM     24  C   UNL     1       1.535  14.693  21.340  0.00  0.00    +0.000 C 
ATOM     25  O   UNL     1       1.896  14.786  22.503  0.00  0.00    +0.000 OA
ATOM     26  N   UNL     1       0.503  13.903  20.873  0.00  0.00    +0.000 N 
ATOM     27  H   UNL     1       0.110  14.154  19.977  0.00  0.00    +0.000 HD
BRANCH  26  28
ATOM     28  C   UNL     1      -0.175  12.957  21.681  0.00  0.00    +0.000 A 
ATOM     29  C   UNL     1      -1.197  13.317  22.569  0.00  0.00    +0.000 A 
ATOM     30  C   UNL     1      -1.869  12.357  23.324  0.00  0.00    +0.000 A 
ATOM     31  C   UNL     1      -1.526  11.015  23.199  0.00  0.00    +0.000 A 
ATOM     32  C   UNL     1      -0.493  10.628  22.333  0.00  0.00    +0.000 A 
ATOM     33  C   UNL     1       0.191  11.611  21.589  0.00  0.00    +0.000 A 
BRANCH  32  34
ATOM     34  C   UNL     1      -0.127   9.173  22.179  0.00  0.00    +0.000 C 
ATOM     35  F   UNL     1      -0.177   8.728  20.895  0.00  0.00    +0.000 F 
ATOM     36  F   UNL     1       1.132   8.903  22.622  0.00  0.00    +0.000 F 
ATOM     37  F   UNL     1      -0.955   8.357  22.891  0.00  0.00    +0.000 F 
ENDBRANCH  32  34
ENDBRANCH  26  28
ENDBRANCH   3  24
TORSDOF 5
ENDMDL
MODEL 8
REMARK VINA RESULT:      -7.6      1.243      1.643
REMARK  Name = 
REMARK  7 active torsions:
REMARK  status: ('A' for Active; 'I' for Inactive)
REMARK    1  A    between atoms: C_1  and  O_2
REMARK    2  A    between atoms: O_2  and  C_3
REMARK    3  A    between atoms: C_6  and  N_7
REMARK    4  A    between atoms: C_9  and  C_10
REMARK    5  A    between atoms: N_12  and  C_13
REMARK    6  A    between atoms: C_17  and  C_18
REMARK    7  A    between atoms: N_30  and  C_31
REMARK                            x       y       z     vdW  Elec       q    Type
REMARK                         _______ _______ _______ _____ _____    ______ ____
ROOT
ATOM      1  N   UNL     1       0.874  11.133  19.196  0.00  0.00    +0.000 N 
ATOM      2  N   UNL     1      -0.437  11.270  19.724  0.00  0.00    +0.000 NA
ATOM      3  C   UNL     1      -0.933  12.461  19.922  0.00  0.00    +0.000 A 
ATOM      4  C   UNL     1      -0.142  13.620  19.631  0.00  0.00    +0.000 A 
ATOM      5  C   UNL     1      -0.371  15.001  19.841  0.00  0.00    +0.000 A 
ATOM      6  C   UNL     1      -1.253  15.749  20.639  0.00  0.00    +0.000 A 
ATOM      7  C   UNL     1      -1.559  17.050  20.253  0.00  0.00    +0.000 A 
ATOM      8  C   UNL     1      -1.007  17.585  19.091  0.00  0.00    +0.000 A 
ATOM      9  C   UNL     1       0.008  16.916  18.390  0.00  0.00    +0.000 A 
ATOM     10  C   UNL     1       0.368  15.639  18.844  0.00  0.00    +0.000 A 
ATOM     11  N   UNL     1       1.375  14.757  18.502  0.00  0.00    +0.000 N 
ATOM     12  C   UNL     1       2.639  15.107  17.891  0.00  0.00    +0.000 C 
ATOM     13  C   UNL     1       1.026  13.496  18.925  0.00  0.00    +0.000 A 
ATOM     14  C   UNL     1       1.644  12.218  18.687  0.00  0.00    +0.000 A 
ATOM     15  O   UNL     1       2.720  12.129  18.106  0.00  0.00    +0.000 OA
ENDROOT
BRANCH   1  19
ATOM     16  C   UNL     1       2.258   7.114  19.072  0.00  0.00    +0.000 A 
ATOM     17  C   UNL     1       2.253   7.890  17.914  0.00  0.00    +0.000 A 
ATOM     18  C   UNL     1       1.793   9.211  17.946  0.00  0.00    +0.000 A 
ATOM     19  C   UNL     1       1.323   9.781  19.133  0.00  0.00    +0.000 A 
ATOM     20  C   UNL     1       1.332   8.982  20.293  0.00  0.00    +0.000 A 
ATOM     21  C   UNL     1       1.782   7.659  20.261  0.00  0.00    +0.000 A 
BRANCH  16  23
ATOM     22  C   UNL     1       4.001   5.582  19.493  0.00  0.00    +0.000 C 
ATOM     23  O   UNL     1       2.721   5.838  18.916  0.00  0.00    +0.000 OA
ENDBRANCH  16  23
ENDBRANCH   1  19
BRANCH   3  24
ATOM     24  C   UNL     1      -2.404  12.609  20.275  0.00  0.00    +0.000 C 
ATOM     25  O   UNL     1      -2.696  13.070  21.368  0.00  0.00    +0.000 OA
ATOM     26  N   UNL     1      -3.294  12.278  19.272  0.00  0.00    +0.000 N 
ATOM     27  H   UNL     1      -2.918  12.216  18.336  0.00  0.00    +0.000 HD
BRANCH  26  28
ATOM     28  C   UNL     1      -4.698  12.280  19.450  0.00  0.00    +0.000 A 
ATOM     29  C   UNL     1      -5.595  12.146  18.382  0.00  0.00    +0.000 A 
ATOM     30  C   UNL     1      -6.973  12.116  18.596  0.00  0.00    +0.000 A 
ATOM     31  C   UNL     1      -7.474  12.219  19.889  0.00  0.00    +0.000 A 
ATOM     32  C   UNL     1      -6.600  12.374  20.975  0.00  0.00    +0.000 A 
ATOM     33  C   UNL     1      -5.211  12.422  20.743  0.00  0.00    +0.000 A 
BRANCH  32  34
ATOM     34  C   UNL     1      -7.136  12.468  22.382  0.00  0.00    +0.000 C 
ATOM     35  F   UNL     1      -6.168  12.528  23.335  0.00  0.00    +0.000 F 
ATOM     36  F   UNL     1      -7.917  13.568  22.569  0.00  0.00    +0.000 F 
ATOM     37  F   UNL     1      -7.916  11.399  22.707  0.00  0.00    +0.000 F 
ENDBRANCH  32  34
ENDBRANCH  26  28
ENDBRANCH   3  24
TORSDOF 5
ENDMDL
MODEL 9
REMARK VINA RESULT:      -7.6      1.188      1.636
REMARK  Name = 
REMARK  7 active torsions:
REMARK  status: ('A' for Active; 'I' for Inactive)
REMARK    1  A    between atoms: C_1  and  O_2
REMARK    2  A    between atoms: O_2  and  C_3
REMARK    3  A    between atoms: C_6  and  N_7
REMARK    4  A    between atoms: C_9  and  C_10
REMARK    5  A    between atoms: N_12  and  C_13
REMARK    6  A    between atoms: C_17  and  C_18
REMARK    7  A    between atoms: N_30  and  C_31
REMARK                            x       y       z     vdW  Elec       q    Type
REMARK                         _______ _______ _______ _____ _____    ______ ____
ROOT
ATOM      1  N   UNL     1       0.502  11.218  19.355  0.00  0.00    +0.000 N 
ATOM      2  N   UNL     1      -0.881  11.265  19.668  0.00  0.00    +0.000 NA
ATOM      3  C   UNL     1      -1.468  12.419  19.831  0.00  0.00    +0.000 A 
ATOM      4  C   UNL     1      -0.706  13.628  19.721  0.00  0.00    +0.000 A 
ATOM      5  C   UNL     1      -1.042  14.985  19.947  0.00  0.00    +0.000 A 
ATOM      6  C   UNL     1      -2.081  15.648  20.622  0.00  0.00    +0.000 A 
ATOM      7  C   UNL     1      -2.393  16.951  20.245  0.00  0.00    +0.000 A 
ATOM      8  C   UNL     1      -1.692  17.569  19.211  0.00  0.00    +0.000 A 
ATOM      9  C   UNL     1      -0.542  16.985  18.659  0.00  0.00    +0.000 A 
ATOM     10  C   UNL     1      -0.189  15.706  19.111  0.00  0.00    +0.000 A 
ATOM     11  N   UNL     1       0.907  14.892  18.902  0.00  0.00    +0.000 N 
ATOM     12  C   UNL     1       2.231  15.332  18.520  0.00  0.00    +0.000 C 
ATOM     13  C   UNL     1       0.565  13.596  19.210  0.00  0.00    +0.000 A 
ATOM     14  C   UNL     1       1.283  12.362  19.024  0.00  0.00    +0.000 A 
ATOM     15  O   UNL     1       2.442  12.354  18.622  0.00  0.00    +0.000 OA
ENDROOT
BRANCH   1  19
ATOM     16  C   UNL     1       2.118   7.285  19.287  0.00  0.00    +0.000 A 
ATOM     17  C   UNL     1       2.116   8.062  18.130  0.00  0.00    +0.000 A 
ATOM     18  C   UNL     1       1.580   9.355  18.143  0.00  0.00    +0.000 A 
ATOM     19  C   UNL     1       1.031   9.893  19.310  0.00  0.00    +0.000 A 
ATOM     20  C   UNL     1       1.037   9.093  20.469  0.00  0.00    +0.000 A 
ATOM     21  C   UNL     1       1.563   7.798  20.456  0.00  0.00    +0.000 A 
BRANCH  16  23
ATOM     22  C   UNL     1       2.459   5.164  20.260  0.00  0.00    +0.000 C 
ATOM     23  O   UNL     1       2.659   6.038  19.149  0.00  0.00    +0.000 OA
ENDBRANCH  16  23
ENDBRANCH   1  19
BRANCH   3  24
ATOM     24  C   UNL     1      -2.982  12.479  19.945  0.00  0.00    +0.000 C 
ATOM     25  O   UNL     1      -3.650  12.258  18.945  0.00  0.00    +0.000 OA
ATOM     26  N   UNL     1      -3.476  12.700  21.216  0.00  0.00    +0.000 N 
ATOM     27  H   UNL     1      -2.835  12.551  21.983  0.00  0.00    +0.000 HD
BRANCH  26  28
ATOM     28  C   UNL     1      -4.855  12.863  21.494  0.00  0.00    +0.000 A 
ATOM     29  C   UNL     1      -5.827  11.960  21.046  0.00  0.00    +0.000 A 
ATOM     30  C   UNL     1      -7.174  12.130  21.368  0.00  0.00    +0.000 A 
ATOM     31  C   UNL     1      -7.567  13.212  22.147  0.00  0.00    +0.000 A 
ATOM     32  C   UNL     1      -6.617  14.144  22.592  0.00  0.00    +0.000 A 
ATOM     33  C   UNL     1      -5.262  13.971  22.244  0.00  0.00    +0.000 A 
BRANCH  32  34
ATOM     34  C   UNL     1      -7.033  15.311  23.453  0.00  0.00    +0.000 C 
ATOM     35  F   UNL     1      -7.887  14.975  24.456  0.00  0.00    +0.000 F 
ATOM     36  F   UNL     1      -5.972  15.922  24.049  0.00  0.00    +0.000 F 
ATOM     37  F   UNL     1      -7.664  16.281  22.733  0.00  0.00    +0.000 F 
ENDBRANCH  32  34
ENDBRANCH  26  28
ENDBRANCH   3  24
TORSDOF 5
ENDMDL
