MODEL 1
REMARK VINA RESULT:      -7.7      0.000      0.000
REMARK  Name = 
REMARK  9 active torsions:
REMARK  status: ('A' for Active; 'I' for Inactive)
REMARK    1  A    between atoms: C_1  and  C_2
REMARK    2  A    between atoms: C_4  and  C_5
REMARK    3  A    between atoms: C_5  and  N_6
REMARK    4  A    between atoms: C_15  and  C_16
REMARK    5  A    between atoms: N_18  and  C_19
REMARK    6  A    between atoms: C_29  and  O_30
REMARK    7  A    between atoms: O_30  and  C_31
REMARK    8  A    between atoms: C_31  and  C_32
REMARK    9  A    between atoms: C_32  and  O_34
REMARK                            x       y       z     vdW  Elec       q    Type
REMARK                         _______ _______ _______ _____ _____    ______ ____
ROOT
ATOM      1  N   UNL     1       0.918   9.433  20.784  0.00  0.00    +0.000 NA
ATOM      2  C   UNL     1       1.735  10.618  20.537  0.00  0.00    +0.000 C 
ATOM      3  C   UNL     1       1.020  11.659  19.692  0.00  0.00    +0.000 A 
ATOM      4  C   UNL     1       1.691  12.834  19.323  0.00  0.00    +0.000 A 
ATOM      5  C   UNL     1       1.069  13.774  18.498  0.00  0.00    +0.000 A 
ATOM      6  C   UNL     1      -0.218  13.542  18.018  0.00  0.00    +0.000 A 
ATOM      7  C   UNL     1      -0.909  12.396  18.405  0.00  0.00    +0.000 A 
ATOM      8  C   UNL     1      -0.314  11.475  19.274  0.00  0.00    +0.000 A 
ATOM      9  C   UNL     1      -1.100  10.279  19.763  0.00  0.00    +0.000 C 
ATOM     10  C   UNL     1      -0.503   9.703  21.061  0.00  0.00    +0.000 C 
ENDROOT
BRANCH  10  11
ATOM     11  C   UNL     1      -0.799  10.630  22.277  0.00  0.00    +0.000 C 
ATOM     12  O   UNL     1      -0.218  10.467  23.350  0.00  0.00    +0.000 OA
ATOM     13  N   UNL     1      -1.673  11.672  22.021  0.00  0.00    +0.000 N 
ATOM     14  H   UNL     1      -2.208  11.598  21.168  0.00  0.00    +0.000 HD
BRANCH  13  15
ATOM     15  C   UNL     1      -2.096  12.698  22.901  0.00  0.00    +0.000 A 
ATOM     16  C   UNL     1      -3.274  12.622  23.647  0.00  0.00    +0.000 A 
ATOM     17  C   UNL     1      -3.649  13.671  24.495  0.00  0.00    +0.000 A 
ATOM     18  C   UNL     1      -2.842  14.801  24.609  0.00  0.00    +0.000 A 
ATOM     19 CL   UNL     1      -3.314  16.087  25.648  0.00  0.00    +0.000 Cl
ATOM     20  C   UNL     1      -1.656  14.892  23.889  0.00  0.00    +0.000 A 
ATOM     21  C   UNL     1      -1.282  13.839  23.049  0.00  0.00    +0.000 A 
ATOM     22 CL   UNL     1       0.202  13.996  22.167  0.00  0.00    +0.000 Cl
ENDBRANCH  13  15
ENDBRANCH  10  11
BRANCH   1  23
ATOM     23  C   UNL     1       1.514   8.271  21.416  0.00  0.00    +0.000 C 
BRANCH  23  27
ATOM     24  C   UNL     1       1.297   3.370  20.335  0.00  0.00    +0.000 C 
ATOM     25  C   UNL     1       1.684   4.757  19.906  0.00  0.00    +0.000 A 
ATOM     26  C   UNL     1       1.451   5.825  20.792  0.00  0.00    +0.000 A 
ATOM     27  C   UNL     1       1.792   7.139  20.454  0.00  0.00    +0.000 A 
ATOM     28  C   UNL     1       2.357   7.385  19.199  0.00  0.00    +0.000 A 
ATOM     29  C   UNL     1       2.580   6.336  18.304  0.00  0.00    +0.000 A 
ATOM     30  C   UNL     1       2.269   5.016  18.654  0.00  0.00    +0.000 A 
BRANCH  30  31
ATOM     31  O   UNL     1       2.506   3.932  17.837  0.00  0.00    +0.000 OA
BRANCH  31  32
ATOM     32  C   UNL     1       3.878   3.737  17.474  0.00  0.00    +0.000 C 
BRANCH  32  33
ATOM     33  C   UNL     1       4.714   3.332  18.678  0.00  0.00    +0.000 C 
ATOM     34  O   UNL     1       5.574   4.041  19.176  0.00  0.00    +0.000 OA
BRANCH  33  35
ATOM     35  O   UNL     1       4.427   2.092  19.140  0.00  0.00    +0.000 OA
ATOM     36  H   UNL     1       4.369   2.113  20.121  0.00  0.00    +0.000 HD
ENDBRANCH  33  35
ENDBRANCH  32  33
ENDBRANCH  31  32
ENDBRANCH  30  31
ENDBRANCH  23  27
ENDBRANCH   1  23
TORSDOF 8
ENDMDL
MODEL 2
REMARK VINA RESULT:      -7.5      3.391      4.203
REMARK  Name = 
REMARK  9 active torsions:
REMARK  status: ('A' for Active; 'I' for Inactive)
REMARK    1  A    between atoms: C_1  and  C_2
REMARK    2  A    between atoms: C_4  and  C_5
REMARK    3  A    between atoms: C_5  and  N_6
REMARK    4  A    between atoms: C_15  and  C_16
REMARK    5  A    between atoms: N_18  and  C_19
REMARK    6  A    between atoms: C_29  and  O_30
REMARK    7  A    between atoms: O_30  and  C_31
REMARK    8  A    between atoms: C_31  and  C_32
REMARK    9  A    between atoms: C_32  and  O_34
REMARK                            x       y       z     vdW  Elec       q    Type
REMARK                         _______ _______ _______ _____ _____    ______ ____
ROOT
ATOM      1  N   UNL     1       0.999  10.637  20.005  0.00  0.00    +0.000 NA
ATOM      2  C   UNL     1       1.092  11.721  20.979  0.00  0.00    +0.000 C 
ATOM      3  C   UNL     1       1.801  12.947  20.428  0.00  0.00    +0.000 A 
ATOM      4  C   UNL     1       2.017  14.056  21.259  0.00  0.00    +0.000 A 
ATOM      5  C   UNL     1       2.720  15.167  20.787  0.00  0.00    +0.000 A 
ATOM      6  C   UNL     1       3.229  15.174  19.490  0.00  0.00    +0.000 A 
ATOM      7  C   UNL     1       2.992  14.094  18.643  0.00  0.00    +0.000 A 
ATOM      8  C   UNL     1       2.244  13.000  19.091  0.00  0.00    +0.000 A 
ATOM      9  C   UNL     1       1.912  11.871  18.140  0.00  0.00    +0.000 C 
ATOM     10  C   UNL     1       0.695  11.062  18.628  0.00  0.00    +0.000 C 
ENDROOT
BRANCH  10  11
ATOM     11  C   UNL     1      -0.627  11.862  18.434  0.00  0.00    +0.000 C 
ATOM     12  O   UNL     1      -0.603  13.048  18.106  0.00  0.00    +0.000 OA
ATOM     13  N   UNL     1      -1.787  11.120  18.567  0.00  0.00    +0.000 N 
ATOM     14  H   UNL     1      -1.683  10.214  19.002  0.00  0.00    +0.000 HD
BRANCH  13  15
ATOM     15  C   UNL     1      -3.126  11.549  18.403  0.00  0.00    +0.000 A 
ATOM     16  C   UNL     1      -3.873  12.122  19.434  0.00  0.00    +0.000 A 
ATOM     17  C   UNL     1      -5.198  12.521  19.219  0.00  0.00    +0.000 A 
ATOM     18  C   UNL     1      -5.783  12.355  17.965  0.00  0.00    +0.000 A 
ATOM     19 CL   UNL     1      -7.412  12.841  17.711  0.00  0.00    +0.000 Cl
ATOM     20  C   UNL     1      -5.053  11.802  16.918  0.00  0.00    +0.000 A 
ATOM     21  C   UNL     1      -3.730  11.413  17.136  0.00  0.00    +0.000 A 
ATOM     22 CL   UNL     1      -2.858  10.724  15.805  0.00  0.00    +0.000 Cl
ENDBRANCH  13  15
ENDBRANCH  10  11
BRANCH   1  23
ATOM     23  C   UNL     1       0.517   9.335  20.425  0.00  0.00    +0.000 C 
BRANCH  23  27
ATOM     24  C   UNL     1       2.202   4.652  21.106  0.00  0.00    +0.000 C 
ATOM     25  C   UNL     1       2.220   5.909  20.283  0.00  0.00    +0.000 A 
ATOM     26  C   UNL     1       1.422   6.993  20.693  0.00  0.00    +0.000 A 
ATOM     27  C   UNL     1       1.398   8.192  19.973  0.00  0.00    +0.000 A 
ATOM     28  C   UNL     1       2.171   8.296  18.814  0.00  0.00    +0.000 A 
ATOM     29  C   UNL     1       2.955   7.222  18.386  0.00  0.00    +0.000 A 
ATOM     30  C   UNL     1       3.007   6.033  19.124  0.00  0.00    +0.000 A 
BRANCH  30  31
ATOM     31  O   UNL     1       3.795   4.955  18.784  0.00  0.00    +0.000 OA
BRANCH  31  32
ATOM     32  C   UNL     1       5.189   5.111  19.071  0.00  0.00    +0.000 C 
BRANCH  32  33
ATOM     33  C   UNL     1       6.035   4.896  17.825  0.00  0.00    +0.000 C 
ATOM     34  O   UNL     1       5.729   5.308  16.718  0.00  0.00    +0.000 OA
BRANCH  33  35
ATOM     35  O   UNL     1       7.162   4.181  18.057  0.00  0.00    +0.000 OA
ATOM     36  H   UNL     1       6.921   3.265  18.319  0.00  0.00    +0.000 HD
ENDBRANCH  33  35
ENDBRANCH  32  33
ENDBRANCH  31  32
ENDBRANCH  30  31
ENDBRANCH  23  27
ENDBRANCH   1  23
TORSDOF 8
ENDMDL
MODEL 3
REMARK VINA RESULT:      -7.4      2.868      4.638
REMARK  Name = 
REMARK  9 active torsions:
REMARK  status: ('A' for Active; 'I' for Inactive)
REMARK    1  A    between atoms: C_1  and  C_2
REMARK    2  A    between atoms: C_4  and  C_5
REMARK    3  A    between atoms: C_5  and  N_6
REMARK    4  A    between atoms: C_15  and  C_16
REMARK    5  A    between atoms: N_18  and  C_19
REMARK    6  A    between atoms: C_29  and  O_30
REMARK    7  A    between atoms: O_30  and  C_31
REMARK    8  A    between atoms: C_31  and  C_32
REMARK    9  A    between atoms: C_32  and  O_34
REMARK                            x       y       z     vdW  Elec       q    Type
REMARK                         _______ _______ _______ _____ _____    ______ ____
ROOT
ATOM      1  N   UNL     1       1.556   9.203  18.801  0.00  0.00    +0.000 NA
ATOM      2  C   UNL     1       0.865   8.414  19.817  0.00  0.00    +0.000 C 
ATOM      3  C   UNL     1       0.326   9.264  20.956  0.00  0.00    +0.000 A 
ATOM      4  C   UNL     1      -0.317   8.648  22.039  0.00  0.00    +0.000 A 
ATOM      5  C   UNL     1      -0.765   9.408  23.122  0.00  0.00    +0.000 A 
ATOM      6  C   UNL     1      -0.558  10.785  23.143  0.00  0.00    +0.000 A 
ATOM      7  C   UNL     1       0.049  11.415  22.059  0.00  0.00    +0.000 A 
ATOM      8  C   UNL     1       0.453  10.668  20.947  0.00  0.00    +0.000 A 
ATOM      9  C   UNL     1       1.029  11.367  19.735  0.00  0.00    +0.000 C 
ATOM     10  C   UNL     1       0.918  10.490  18.473  0.00  0.00    +0.000 C 
ENDROOT
BRANCH  10  11
ATOM     11  C   UNL     1      -0.551  10.417  17.965  0.00  0.00    +0.000 C 
ATOM     12  O   UNL     1      -0.931   9.476  17.267  0.00  0.00    +0.000 OA
ATOM     13  N   UNL     1      -1.383  11.419  18.429  0.00  0.00    +0.000 N 
ATOM     14  H   UNL     1      -0.923  12.216  18.845  0.00  0.00    +0.000 HD
BRANCH  13  15
ATOM     15  C   UNL     1      -2.768  11.594  18.186  0.00  0.00    +0.000 A 
ATOM     16  C   UNL     1      -3.375  11.252  16.976  0.00  0.00    +0.000 A 
ATOM     17  C   UNL     1      -4.748  11.454  16.785  0.00  0.00    +0.000 A 
ATOM     18  C   UNL     1      -5.524  11.994  17.809  0.00  0.00    +0.000 A 
ATOM     19 CL   UNL     1      -7.207  12.247  17.564  0.00  0.00    +0.000 Cl
ATOM     20  C   UNL     1      -4.943  12.327  19.028  0.00  0.00    +0.000 A 
ATOM     21  C   UNL     1      -3.575  12.116  19.216  0.00  0.00    +0.000 A 
ATOM     22 CL   UNL     1      -2.892  12.549  20.750  0.00  0.00    +0.000 Cl
ENDBRANCH  13  15
ENDBRANCH  10  11
BRANCH   1  23
ATOM     23  C   UNL     1       2.284   8.529  17.743  0.00  0.00    +0.000 C 
BRANCH  23  27
ATOM     24  C   UNL     1       5.709   4.945  16.931  0.00  0.00    +0.000 C 
ATOM     25  C   UNL     1       4.648   5.518  17.827  0.00  0.00    +0.000 A 
ATOM     26  C   UNL     1       3.977   6.684  17.414  0.00  0.00    +0.000 A 
ATOM     27  C   UNL     1       2.976   7.265  18.201  0.00  0.00    +0.000 A 
ATOM     28  C   UNL     1       2.660   6.676  19.429  0.00  0.00    +0.000 A 
ATOM     29  C   UNL     1       3.329   5.528  19.858  0.00  0.00    +0.000 A 
ATOM     30  C   UNL     1       4.308   4.926  19.056  0.00  0.00    +0.000 A 
BRANCH  30  31
ATOM     31  O   UNL     1       4.971   3.767  19.398  0.00  0.00    +0.000 OA
BRANCH  31  32
ATOM     32  C   UNL     1       4.128   2.697  19.842  0.00  0.00    +0.000 C 
BRANCH  32  33
ATOM     33  C   UNL     1       3.409   2.042  18.673  0.00  0.00    +0.000 C 
ATOM     34  O   UNL     1       2.200   2.080  18.514  0.00  0.00    +0.000 OA
BRANCH  33  35
ATOM     35  O   UNL     1       4.241   1.390  17.827  0.00  0.00    +0.000 OA
ATOM     36  H   UNL     1       4.748   2.043  17.297  0.00  0.00    +0.000 HD
ENDBRANCH  33  35
ENDBRANCH  32  33
ENDBRANCH  31  32
ENDBRANCH  30  31
ENDBRANCH  23  27
ENDBRANCH   1  23
TORSDOF 8
ENDMDL
MODEL 4
REMARK VINA RESULT:      -7.4      2.913      4.638
REMARK  Name = 
REMARK  9 active torsions:
REMARK  status: ('A' for Active; 'I' for Inactive)
REMARK    1  A    between atoms: C_1  and  C_2
REMARK    2  A    between atoms: C_4  and  C_5
REMARK    3  A    between atoms: C_5  and  N_6
REMARK    4  A    between atoms: C_15  and  C_16
REMARK    5  A    between atoms: N_18  and  C_19
REMARK    6  A    between atoms: C_29  and  O_30
REMARK    7  A    between atoms: O_30  and  C_31
REMARK    8  A    between atoms: C_31  and  C_32
REMARK    9  A    between atoms: C_32  and  O_34
REMARK                            x       y       z     vdW  Elec       q    Type
REMARK                         _______ _______ _______ _____ _____    ______ ____
ROOT
ATOM      1  N   UNL     1       1.625   9.222  18.827  0.00  0.00    +0.000 NA
ATOM      2  C   UNL     1       0.941   8.404  19.825  0.00  0.00    +0.000 C 
ATOM      3  C   UNL     1       0.377   9.226  20.972  0.00  0.00    +0.000 A 
ATOM      4  C   UNL     1      -0.263   8.580  22.040  0.00  0.00    +0.000 A 
ATOM      5  C   UNL     1      -0.734   9.314  23.130  0.00  0.00    +0.000 A 
ATOM      6  C   UNL     1      -0.554  10.695  23.175  0.00  0.00    +0.000 A 
ATOM      7  C   UNL     1       0.049  11.353  22.106  0.00  0.00    +0.000 A 
ATOM      8  C   UNL     1       0.477  10.632  20.986  0.00  0.00    +0.000 A 
ATOM      9  C   UNL     1       1.048  11.360  19.790  0.00  0.00    +0.000 C 
ATOM     10  C   UNL     1       0.965  10.501  18.514  0.00  0.00    +0.000 C 
ENDROOT
BRANCH  10  11
ATOM     11  C   UNL     1      -0.498  10.409  17.992  0.00  0.00    +0.000 C 
ATOM     12  O   UNL     1      -0.870   9.441  17.328  0.00  0.00    +0.000 OA
ATOM     13  N   UNL     1      -1.335  11.429  18.407  0.00  0.00    +0.000 N 
ATOM     14  H   UNL     1      -0.879  12.242  18.795  0.00  0.00    +0.000 HD
BRANCH  13  15
ATOM     15  C   UNL     1      -2.716  11.594  18.140  0.00  0.00    +0.000 A 
ATOM     16  C   UNL     1      -3.302  11.249  16.920  0.00  0.00    +0.000 A 
ATOM     17  C   UNL     1      -4.672  11.442  16.708  0.00  0.00    +0.000 A 
ATOM     18  C   UNL     1      -5.469  11.975  17.719  0.00  0.00    +0.000 A 
ATOM     19 CL   UNL     1      -7.149  12.216  17.447  0.00  0.00    +0.000 Cl
ATOM     20  C   UNL     1      -4.911  12.311  18.948  0.00  0.00    +0.000 A 
ATOM     21  C   UNL     1      -3.544  12.110  19.157  0.00  0.00    +0.000 A 
ATOM     22 CL   UNL     1      -2.890  12.546  20.703  0.00  0.00    +0.000 Cl
ENDBRANCH  13  15
ENDBRANCH  10  11
BRANCH   1  23
ATOM     23  C   UNL     1       2.374   8.579  17.765  0.00  0.00    +0.000 C 
BRANCH  23  27
ATOM     24  C   UNL     1       5.472   4.965  19.373  0.00  0.00    +0.000 C 
ATOM     25  C   UNL     1       4.130   5.341  18.809  0.00  0.00    +0.000 A 
ATOM     26  C   UNL     1       3.867   6.698  18.548  0.00  0.00    +0.000 A 
ATOM     27  C   UNL     1       2.639   7.112  18.019  0.00  0.00    +0.000 A 
ATOM     28  C   UNL     1       1.656   6.150  17.769  0.00  0.00    +0.000 A 
ATOM     29  C   UNL     1       1.899   4.802  18.039  0.00  0.00    +0.000 A 
ATOM     30  C   UNL     1       3.139   4.381  18.537  0.00  0.00    +0.000 A 
BRANCH  30  31
ATOM     31  O   UNL     1       3.459   3.063  18.780  0.00  0.00    +0.000 OA
BRANCH  31  32
ATOM     32  C   UNL     1       2.394   2.272  19.320  0.00  0.00    +0.000 C 
BRANCH  32  33
ATOM     33  C   UNL     1       2.182   2.569  20.796  0.00  0.00    +0.000 C 
ATOM     34  O   UNL     1       1.108   2.896  21.275  0.00  0.00    +0.000 OA
BRANCH  33  35
ATOM     35  O   UNL     1       3.311   2.454  21.536  0.00  0.00    +0.000 OA
ATOM     36  H   UNL     1       3.593   3.343  21.844  0.00  0.00    +0.000 HD
ENDBRANCH  33  35
ENDBRANCH  32  33
ENDBRANCH  31  32
ENDBRANCH  30  31
ENDBRANCH  23  27
ENDBRANCH   1  23
TORSDOF 8
ENDMDL
MODEL 5
REMARK VINA RESULT:      -7.3      1.028      1.263
REMARK  Name = 
REMARK  9 active torsions:
REMARK  status: ('A' for Active; 'I' for Inactive)
REMARK    1  A    between atoms: C_1  and  C_2
REMARK    2  A    between atoms: C_4  and  C_5
REMARK    3  A    between atoms: C_5  and  N_6
REMARK    4  A    between atoms: C_15  and  C_16
REMARK    5  A    between atoms: N_18  and  C_19
REMARK    6  A    between atoms: C_29  and  O_30
REMARK    7  A    between atoms: O_30  and  C_31
REMARK    8  A    between atoms: C_31  and  C_32
REMARK    9  A    between atoms: C_32  and  O_34
REMARK                            x       y       z     vdW  Elec       q    Type
REMARK                         _______ _______ _______ _____ _____    ______ ____
ROOT
ATOM      1  N   UNL     1       0.796   9.710  20.864  0.00  0.00    +0.000 NA
ATOM      2  C   UNL     1       1.686  10.856  20.699  0.00  0.00    +0.000 C 
ATOM      3  C   UNL     1       1.097  11.934  19.805  0.00  0.00    +0.000 A 
ATOM      4  C   UNL     1       1.852  13.077  19.505  0.00  0.00    +0.000 A 
ATOM      5  C   UNL     1       1.350  14.049  18.637  0.00  0.00    +0.000 A 
ATOM      6  C   UNL     1       0.099  13.882  18.047  0.00  0.00    +0.000 A 
ATOM      7  C   UNL     1      -0.677  12.769  18.363  0.00  0.00    +0.000 A 
ATOM      8  C   UNL     1      -0.203  11.816  19.272  0.00  0.00    +0.000 A 
ATOM      9  C   UNL     1      -1.084  10.657  19.681  0.00  0.00    +0.000 C 
ATOM     10  C   UNL     1      -0.629  10.047  21.021  0.00  0.00    +0.000 C 
ENDROOT
BRANCH  10  11
ATOM     11  C   UNL     1      -0.985  10.981  22.215  0.00  0.00    +0.000 C 
ATOM     12  O   UNL     1      -0.543  10.759  23.342  0.00  0.00    +0.000 OA
ATOM     13  N   UNL     1      -1.738  12.094  21.885  0.00  0.00    +0.000 N 
ATOM     14  H   UNL     1      -2.178  12.074  20.976  0.00  0.00    +0.000 HD
BRANCH  13  15
ATOM     15  C   UNL     1      -2.173  13.142  22.733  0.00  0.00    +0.000 A 
ATOM     16  C   UNL     1      -1.300  13.894  23.521  0.00  0.00    +0.000 A 
ATOM     17  C   UNL     1      -1.786  14.914  24.349  0.00  0.00    +0.000 A 
ATOM     18  C   UNL     1      -3.150  15.192  24.387  0.00  0.00    +0.000 A 
ATOM     19 CL   UNL     1      -3.739  16.441  25.412  0.00  0.00    +0.000 Cl
ATOM     20  C   UNL     1      -4.037  14.467  23.598  0.00  0.00    +0.000 A 
ATOM     21  C   UNL     1      -3.546  13.456  22.769  0.00  0.00    +0.000 A 
ATOM     22 CL   UNL     1      -4.687  12.574  21.805  0.00  0.00    +0.000 Cl
ENDBRANCH  13  15
ENDBRANCH  10  11
BRANCH   1  23
ATOM     23  C   UNL     1       1.278   8.518  21.535  0.00  0.00    +0.000 C 
BRANCH  23  27
ATOM     24  C   UNL     1       1.623   3.619  20.481  0.00  0.00    +0.000 C 
ATOM     25  C   UNL     1       1.861   5.038  20.049  0.00  0.00    +0.000 A 
ATOM     26  C   UNL     1       1.497   6.077  20.924  0.00  0.00    +0.000 A 
ATOM     27  C   UNL     1       1.696   7.420  20.584  0.00  0.00    +0.000 A 
ATOM     28  C   UNL     1       2.250   7.721  19.337  0.00  0.00    +0.000 A 
ATOM     29  C   UNL     1       2.602   6.700  18.451  0.00  0.00    +0.000 A 
ATOM     30  C   UNL     1       2.434   5.355  18.804  0.00  0.00    +0.000 A 
BRANCH  30  31
ATOM     31  O   UNL     1       2.803   4.300  17.998  0.00  0.00    +0.000 OA
BRANCH  31  32
ATOM     32  C   UNL     1       4.187   4.276  17.629  0.00  0.00    +0.000 C 
BRANCH  32  33
ATOM     33  C   UNL     1       5.069   3.949  18.823  0.00  0.00    +0.000 C 
ATOM     34  O   UNL     1       5.848   4.741  19.329  0.00  0.00    +0.000 OA
BRANCH  33  35
ATOM     35  O   UNL     1       4.923   2.678  19.268  0.00  0.00    +0.000 OA
ATOM     36  H   UNL     1       3.986   2.401  19.169  0.00  0.00    +0.000 HD
ENDBRANCH  33  35
ENDBRANCH  32  33
ENDBRANCH  31  32
ENDBRANCH  30  31
ENDBRANCH  23  27
ENDBRANCH   1  23
TORSDOF 8
ENDMDL
MODEL 6
REMARK VINA RESULT:      -7.2      3.377      4.324
REMARK  Name = 
REMARK  9 active torsions:
REMARK  status: ('A' for Active; 'I' for Inactive)
REMARK    1  A    between atoms: C_1  and  C_2
REMARK    2  A    between atoms: C_4  and  C_5
REMARK    3  A    between atoms: C_5  and  N_6
REMARK    4  A    between atoms: C_15  and  C_16
REMARK    5  A    between atoms: N_18  and  C_19
REMARK    6  A    between atoms: C_29  and  O_30
REMARK    7  A    between atoms: O_30  and  C_31
REMARK    8  A    between atoms: C_31  and  C_32
REMARK    9  A    between atoms: C_32  and  O_34
REMARK                            x       y       z     vdW  Elec       q    Type
REMARK                         _______ _______ _______ _____ _____    ______ ____
ROOT
ATOM      1  N   UNL     1       1.030  10.629  20.104  0.00  0.00    +0.000 NA
ATOM      2  C   UNL     1       1.151  11.762  21.018  0.00  0.00    +0.000 C 
ATOM      3  C   UNL     1       1.867  12.948  20.391  0.00  0.00    +0.000 A 
ATOM      4  C   UNL     1       2.109  14.097  21.158  0.00  0.00    +0.000 A 
ATOM      5  C   UNL     1       2.818  15.172  20.617  0.00  0.00    +0.000 A 
ATOM      6  C   UNL     1       3.306  15.104  19.314  0.00  0.00    +0.000 A 
ATOM      7  C   UNL     1       3.043  13.983  18.529  0.00  0.00    +0.000 A 
ATOM      8  C   UNL     1       2.288  12.924  19.047  0.00  0.00    +0.000 A 
ATOM      9  C   UNL     1       1.928  11.750  18.163  0.00  0.00    +0.000 C 
ATOM     10  C   UNL     1       0.708  10.985  18.711  0.00  0.00    +0.000 C 
ENDROOT
BRANCH  10  11
ATOM     11  C   UNL     1      -0.606  11.791  18.495  0.00  0.00    +0.000 C 
ATOM     12  O   UNL     1      -0.571  12.986  18.203  0.00  0.00    +0.000 OA
ATOM     13  N   UNL     1      -1.769  11.046  18.565  0.00  0.00    +0.000 N 
ATOM     14  H   UNL     1      -1.680  10.128  18.977  0.00  0.00    +0.000 HD
BRANCH  13  15
ATOM     15  C   UNL     1      -3.103  11.480  18.367  0.00  0.00    +0.000 A 
ATOM     16  C   UNL     1      -3.869  12.069  19.376  0.00  0.00    +0.000 A 
ATOM     17  C   UNL     1      -5.186  12.472  19.127  0.00  0.00    +0.000 A 
ATOM     18  C   UNL     1      -5.744  12.296  17.862  0.00  0.00    +0.000 A 
ATOM     19 CL   UNL     1      -7.365  12.787  17.567  0.00  0.00    +0.000 Cl
ATOM     20  C   UNL     1      -4.995  11.727  16.838  0.00  0.00    +0.000 A 
ATOM     21  C   UNL     1      -3.679  11.333  17.089  0.00  0.00    +0.000 A 
ATOM     22 CL   UNL     1      -2.782  10.625  15.785  0.00  0.00    +0.000 Cl
ENDBRANCH  13  15
ENDBRANCH  10  11
BRANCH   1  23
ATOM     23  C   UNL     1       0.537   9.359  20.600  0.00  0.00    +0.000 C 
BRANCH  23  27
ATOM     24  C   UNL     1       3.695   7.387  17.227  0.00  0.00    +0.000 C 
ATOM     25  C   UNL     1       2.873   7.197  18.471  0.00  0.00    +0.000 A 
ATOM     26  C   UNL     1       2.116   8.283  18.948  0.00  0.00    +0.000 A 
ATOM     27  C   UNL     1       1.326   8.171  20.098  0.00  0.00    +0.000 A 
ATOM     28  C   UNL     1       1.314   6.956  20.788  0.00  0.00    +0.000 A 
ATOM     29  C   UNL     1       2.073   5.874  20.334  0.00  0.00    +0.000 A 
ATOM     30  C   UNL     1       2.838   5.975  19.165  0.00  0.00    +0.000 A 
BRANCH  30  31
ATOM     31  O   UNL     1       3.571   4.934  18.638  0.00  0.00    +0.000 OA
BRANCH  31  32
ATOM     32  C   UNL     1       4.524   4.352  19.533  0.00  0.00    +0.000 C 
BRANCH  32  33
ATOM     33  C   UNL     1       4.532   2.835  19.420  0.00  0.00    +0.000 C 
ATOM     34  O   UNL     1       4.858   2.089  20.329  0.00  0.00    +0.000 OA
BRANCH  33  35
ATOM     35  O   UNL     1       4.159   2.385  18.199  0.00  0.00    +0.000 OA
ATOM     36  H   UNL     1       4.922   2.435  17.583  0.00  0.00    +0.000 HD
ENDBRANCH  33  35
ENDBRANCH  32  33
ENDBRANCH  31  32
ENDBRANCH  30  31
ENDBRANCH  23  27
ENDBRANCH   1  23
TORSDOF 8
ENDMDL
MODEL 7
REMARK VINA RESULT:      -7.2      2.946      4.595
REMARK  Name = 
REMARK  9 active torsions:
REMARK  status: ('A' for Active; 'I' for Inactive)
REMARK    1  A    between atoms: C_1  and  C_2
REMARK    2  A    between atoms: C_4  and  C_5
REMARK    3  A    between atoms: C_5  and  N_6
REMARK    4  A    between atoms: C_15  and  C_16
REMARK    5  A    between atoms: N_18  and  C_19
REMARK    6  A    between atoms: C_29  and  O_30
REMARK    7  A    between atoms: O_30  and  C_31
REMARK    8  A    between atoms: C_31  and  C_32
REMARK    9  A    between atoms: C_32  and  O_34
REMARK                            x       y       z     vdW  Elec       q    Type
REMARK                         _______ _______ _______ _____ _____    ______ ____
ROOT
ATOM      1  N   UNL     1       1.619   9.211  18.849  0.00  0.00    +0.000 NA
ATOM      2  C   UNL     1       0.927   8.405  19.852  0.00  0.00    +0.000 C 
ATOM      3  C   UNL     1       0.363   9.240  20.989  0.00  0.00    +0.000 A 
ATOM      4  C   UNL     1      -0.286   8.608  22.060  0.00  0.00    +0.000 A 
ATOM      5  C   UNL     1      -0.757   9.354  23.142  0.00  0.00    +0.000 A 
ATOM      6  C   UNL     1      -0.570  10.734  23.175  0.00  0.00    +0.000 A 
ATOM      7  C   UNL     1       0.042  11.380  22.103  0.00  0.00    +0.000 A 
ATOM      8  C   UNL     1       0.470  10.646  20.991  0.00  0.00    +0.000 A 
ATOM      9  C   UNL     1       1.051  11.360  19.791  0.00  0.00    +0.000 C 
ATOM     10  C   UNL     1       0.968  10.491  18.522  0.00  0.00    +0.000 C 
ENDROOT
BRANCH  10  11
ATOM     11  C   UNL     1      -0.494  10.401  17.995  0.00  0.00    +0.000 C 
ATOM     12  O   UNL     1      -0.859   9.445  17.310  0.00  0.00    +0.000 OA
ATOM     13  N   UNL     1      -1.336  11.408  18.429  0.00  0.00    +0.000 N 
ATOM     14  H   UNL     1      -0.886  12.215  18.835  0.00  0.00    +0.000 HD
BRANCH  13  15
ATOM     15  C   UNL     1      -2.718  11.572  18.162  0.00  0.00    +0.000 A 
ATOM     16  C   UNL     1      -3.304  11.223  16.943  0.00  0.00    +0.000 A 
ATOM     17  C   UNL     1      -4.674  11.415  16.730  0.00  0.00    +0.000 A 
ATOM     18  C   UNL     1      -5.471  11.950  17.741  0.00  0.00    +0.000 A 
ATOM     19 CL   UNL     1      -7.151  12.189  17.468  0.00  0.00    +0.000 Cl
ATOM     20  C   UNL     1      -4.913  12.289  18.969  0.00  0.00    +0.000 A 
ATOM     21  C   UNL     1      -3.546  12.089  19.179  0.00  0.00    +0.000 A 
ATOM     22 CL   UNL     1      -2.891  12.529  20.723  0.00  0.00    +0.000 Cl
ENDBRANCH  13  15
ENDBRANCH  10  11
BRANCH   1  23
ATOM     23  C   UNL     1       2.370   8.554  17.797  0.00  0.00    +0.000 C 
BRANCH  23  27
ATOM     24  C   UNL     1       1.284   3.652  17.640  0.00  0.00    +0.000 C 
ATOM     25  C   UNL     1       2.241   4.736  18.049  0.00  0.00    +0.000 A 
ATOM     26  C   UNL     1       1.903   6.072  17.768  0.00  0.00    +0.000 A 
ATOM     27  C   UNL     1       2.748   7.128  18.127  0.00  0.00    +0.000 A 
ATOM     28  C   UNL     1       3.960   6.833  18.759  0.00  0.00    +0.000 A 
ATOM     29  C   UNL     1       4.315   5.510  19.030  0.00  0.00    +0.000 A 
ATOM     30  C   UNL     1       3.454   4.455  18.701  0.00  0.00    +0.000 A 
BRANCH  30  31
ATOM     31  O   UNL     1       3.723   3.133  18.982  0.00  0.00    +0.000 OA
BRANCH  31  32
ATOM     32  C   UNL     1       3.792   2.813  20.377  0.00  0.00    +0.000 C 
BRANCH  32  33
ATOM     33  C   UNL     1       2.433   2.963  21.044  0.00  0.00    +0.000 C 
ATOM     34  O   UNL     1       1.489   2.218  20.835  0.00  0.00    +0.000 OA
BRANCH  33  35
ATOM     35  O   UNL     1       2.361   4.022  21.885  0.00  0.00    +0.000 OA
ATOM     36  H   UNL     1       1.465   4.062  22.285  0.00  0.00    +0.000 HD
ENDBRANCH  33  35
ENDBRANCH  32  33
ENDBRANCH  31  32
ENDBRANCH  30  31
ENDBRANCH  23  27
ENDBRANCH   1  23
TORSDOF 8
ENDMDL
MODEL 8
REMARK VINA RESULT:      -7.2      0.546      1.419
REMARK  Name = 
REMARK  9 active torsions:
REMARK  status: ('A' for Active; 'I' for Inactive)
REMARK    1  A    between atoms: C_1  and  C_2
REMARK    2  A    between atoms: C_4  and  C_5
REMARK    3  A    between atoms: C_5  and  N_6
REMARK    4  A    between atoms: C_15  and  C_16
REMARK    5  A    between atoms: N_18  and  C_19
REMARK    6  A    between atoms: C_29  and  O_30
REMARK    7  A    between atoms: O_30  and  C_31
REMARK    8  A    between atoms: C_31  and  C_32
REMARK    9  A    between atoms: C_32  and  O_34
REMARK                            x       y       z     vdW  Elec       q    Type
REMARK                         _______ _______ _______ _____ _____    ______ ____
ROOT
ATOM      1  N   UNL     1       0.851   9.415  20.780  0.00  0.00    +0.000 NA
ATOM      2  C   UNL     1       1.711  10.569  20.535  0.00  0.00    +0.000 C 
ATOM      3  C   UNL     1       1.034  11.638  19.692  0.00  0.00    +0.000 A 
ATOM      4  C   UNL     1       1.748  12.787  19.324  0.00  0.00    +0.000 A 
ATOM      5  C   UNL     1       1.162  13.751  18.500  0.00  0.00    +0.000 A 
ATOM      6  C   UNL     1      -0.133  13.568  18.021  0.00  0.00    +0.000 A 
ATOM      7  C   UNL     1      -0.867  12.447  18.406  0.00  0.00    +0.000 A 
ATOM      8  C   UNL     1      -0.305  11.504  19.274  0.00  0.00    +0.000 A 
ATOM      9  C   UNL     1      -1.135  10.337  19.761  0.00  0.00    +0.000 C 
ATOM     10  C   UNL     1      -0.559   9.737  21.058  0.00  0.00    +0.000 C 
ENDROOT
BRANCH  10  11
ATOM     11  C   UNL     1      -0.821  10.672  22.275  0.00  0.00    +0.000 C 
ATOM     12  O   UNL     1      -0.206  10.519  23.331  0.00  0.00    +0.000 OA
ATOM     13  N   UNL     1      -1.705  11.709  22.039  0.00  0.00    +0.000 N 
ATOM     14  H   UNL     1      -2.267  11.627  21.204  0.00  0.00    +0.000 HD
BRANCH  13  15
ATOM     15  C   UNL     1      -2.104  12.741  22.923  0.00  0.00    +0.000 A 
ATOM     16  C   UNL     1      -3.270  12.676  23.690  0.00  0.00    +0.000 A 
ATOM     17  C   UNL     1      -3.622  13.730  24.543  0.00  0.00    +0.000 A 
ATOM     18  C   UNL     1      -2.804  14.854  24.640  0.00  0.00    +0.000 A 
ATOM     19 CL   UNL     1      -3.247  16.146  25.683  0.00  0.00    +0.000 Cl
ATOM     20  C   UNL     1      -1.630  14.933  23.898  0.00  0.00    +0.000 A 
ATOM     21  C   UNL     1      -1.280  13.876  23.055  0.00  0.00    +0.000 A 
ATOM     22 CL   UNL     1       0.190  14.018  22.145  0.00  0.00    +0.000 Cl
ENDBRANCH  13  15
ENDBRANCH  10  11
BRANCH   1  23
ATOM     23  C   UNL     1       1.403   8.231  21.410  0.00  0.00    +0.000 C 
BRANCH  23  27
ATOM     24  C   UNL     1       3.753   6.984  17.149  0.00  0.00    +0.000 C 
ATOM     25  C   UNL     1       2.977   6.540  18.357  0.00  0.00    +0.000 A 
ATOM     26  C   UNL     1       2.556   7.514  19.281  0.00  0.00    +0.000 A 
ATOM     27  C   UNL     1       1.827   7.167  20.424  0.00  0.00    +0.000 A 
ATOM     28  C   UNL     1       1.536   5.819  20.651  0.00  0.00    +0.000 A 
ATOM     29  C   UNL     1       1.962   4.840  19.751  0.00  0.00    +0.000 A 
ATOM     30  C   UNL     1       2.663   5.190  18.589  0.00  0.00    +0.000 A 
BRANCH  30  31
ATOM     31  O   UNL     1       3.070   4.279  17.638  0.00  0.00    +0.000 OA
BRANCH  31  32
ATOM     32  C   UNL     1       4.315   3.629  17.918  0.00  0.00    +0.000 C 
BRANCH  32  33
ATOM     33  C   UNL     1       4.098   2.330  18.679  0.00  0.00    +0.000 C 
ATOM     34  O   UNL     1       3.253   1.501  18.379  0.00  0.00    +0.000 OA
BRANCH  33  35
ATOM     35  O   UNL     1       4.925   2.185  19.741  0.00  0.00    +0.000 OA
ATOM     36  H   UNL     1       5.400   1.327  19.673  0.00  0.00    +0.000 HD
ENDBRANCH  33  35
ENDBRANCH  32  33
ENDBRANCH  31  32
ENDBRANCH  30  31
ENDBRANCH  23  27
ENDBRANCH   1  23
TORSDOF 8
ENDMDL
MODEL 9
REMARK VINA RESULT:      -7.1      3.320      4.151
REMARK  Name = 
REMARK  9 active torsions:
REMARK  status: ('A' for Active; 'I' for Inactive)
REMARK    1  A    between atoms: C_1  and  C_2
REMARK    2  A    between atoms: C_4  and  C_5
REMARK    3  A    between atoms: C_5  and  N_6
REMARK    4  A    between atoms: C_15  and  C_16
REMARK    5  A    between atoms: N_18  and  C_19
REMARK    6  A    between atoms: C_29  and  O_30
REMARK    7  A    between atoms: O_30  and  C_31
REMARK    8  A    between atoms: C_31  and  C_32
REMARK    9  A    between atoms: C_32  and  O_34
REMARK                            x       y       z     vdW  Elec       q    Type
REMARK                         _______ _______ _______ _____ _____    ______ ____
ROOT
ATOM      1  N   UNL     1       1.055   9.783  20.341  0.00  0.00    +0.000 NA
ATOM      2  C   UNL     1       1.340  10.983  21.125  0.00  0.00    +0.000 C 
ATOM      3  C   UNL     1       1.655  12.190  20.257  0.00  0.00    +0.000 A 
ATOM      4  C   UNL     1       2.002  13.407  20.861  0.00  0.00    +0.000 A 
ATOM      5  C   UNL     1       2.354  14.510  20.079  0.00  0.00    +0.000 A 
ATOM      6  C   UNL     1       2.380  14.403  18.691  0.00  0.00    +0.000 A 
ATOM      7  C   UNL     1       2.004  13.211  18.076  0.00  0.00    +0.000 A 
ATOM      8  C   UNL     1       1.600  12.118  18.851  0.00  0.00    +0.000 A 
ATOM      9  C   UNL     1       1.107  10.856  18.178  0.00  0.00    +0.000 C 
ATOM     10  C   UNL     1       0.244  10.008  19.132  0.00  0.00    +0.000 C 
ENDROOT
BRANCH  10  11
ATOM     11  C   UNL     1      -1.153  10.658  19.355  0.00  0.00    +0.000 C 
ATOM     12  O   UNL     1      -1.464  11.123  20.451  0.00  0.00    +0.000 OA
ATOM     13  N   UNL     1      -1.946  10.745  18.225  0.00  0.00    +0.000 N 
ATOM     14  H   UNL     1      -1.657  10.181  17.439  0.00  0.00    +0.000 HD
BRANCH  13  15
ATOM     15  C   UNL     1      -3.233  11.322  18.099  0.00  0.00    +0.000 A 
ATOM     16  C   UNL     1      -3.920  11.890  19.175  0.00  0.00    +0.000 A 
ATOM     17  C   UNL     1      -5.196  12.439  18.995  0.00  0.00    +0.000 A 
ATOM     18  C   UNL     1      -5.790  12.430  17.735  0.00  0.00    +0.000 A 
ATOM     19 CL   UNL     1      -7.360  13.100  17.526  0.00  0.00    +0.000 Cl
ATOM     20  C   UNL     1      -5.118  11.885  16.646  0.00  0.00    +0.000 A 
ATOM     21  C   UNL     1      -3.843  11.346  16.829  0.00  0.00    +0.000 A 
ATOM     22 CL   UNL     1      -3.043  10.673  15.445  0.00  0.00    +0.000 Cl
ENDBRANCH  13  15
ENDBRANCH  10  11
BRANCH   1  23
ATOM     23  C   UNL     1       0.914   8.506  21.013  0.00  0.00    +0.000 C 
BRANCH  23  27
ATOM     24  C   UNL     1       4.039   6.970  17.391  0.00  0.00    +0.000 C 
ATOM     25  C   UNL     1       3.182   6.616  18.574  0.00  0.00    +0.000 A 
ATOM     26  C   UNL     1       2.471   7.644  19.220  0.00  0.00    +0.000 A 
ATOM     27  C   UNL     1       1.653   7.380  20.324  0.00  0.00    +0.000 A 
ATOM     28  C   UNL     1       1.565   6.068  20.796  0.00  0.00    +0.000 A 
ATOM     29  C   UNL     1       2.277   5.040  20.174  0.00  0.00    +0.000 A 
ATOM     30  C   UNL     1       3.071   5.298  19.048  0.00  0.00    +0.000 A 
BRANCH  30  31
ATOM     31  O   UNL     1       3.761   4.324  18.360  0.00  0.00    +0.000 OA
BRANCH  31  32
ATOM     32  C   UNL     1       3.978   3.109  19.087  0.00  0.00    +0.000 C 
BRANCH  32  33
ATOM     33  C   UNL     1       3.467   1.905  18.311  0.00  0.00    +0.000 C 
ATOM     34  O   UNL     1       2.473   1.926  17.602  0.00  0.00    +0.000 OA
BRANCH  33  35
ATOM     35  O   UNL     1       4.212   0.789  18.496  0.00  0.00    +0.000 OA
ATOM     36  H   UNL     1       3.921   0.092  17.868  0.00  0.00    +0.000 HD
ENDBRANCH  33  35
ENDBRANCH  32  33
ENDBRANCH  31  32
ENDBRANCH  30  31
ENDBRANCH  23  27
ENDBRANCH   1  23
TORSDOF 8
ENDMDL
