MODEL 1
REMARK VINA RESULT:      -8.0      0.000      0.000
REMARK  Name = 
REMARK  13 active torsions:
REMARK  status: ('A' for Active; 'I' for Inactive)
REMARK    1  A    between atoms: C_1  and  C_2
REMARK    2  A    between atoms: C_2  and  C_3
REMARK    3  A    between atoms: C_3  and  C_4
REMARK    4  A    between atoms: C_4  and  C_5
REMARK    5  A    between atoms: C_5  and  C_6
REMARK    6  A    between atoms: C_6  and  C_7
REMARK    7  A    between atoms: C_11  and  C_12
REMARK    8  A    between atoms: C_12  and  C_13
REMARK    9  A    between atoms: C_17  and  N_18
REMARK   10  A    between atoms: N_18  and  S_19
REMARK   11  A    between atoms: S_19  and  C_22
REMARK   12  A    between atoms: N_24  and  C_25
REMARK   13  A    between atoms: C_29  and  O_30
REMARK                            x       y       z     vdW  Elec       q    Type
REMARK                         _______ _______ _______ _____ _____    ______ ____
ROOT
ATOM      1  C   UNL     1       2.794   5.438  19.318  0.00  0.00    +0.000 A 
ATOM      2  C   UNL     1       1.715   4.826  18.662  0.00  0.00    +0.000 A 
ATOM      3  C   UNL     1       1.936   3.872  17.665  0.00  0.00    +0.000 A 
ATOM      4  C   UNL     1       3.239   3.532  17.298  0.00  0.00    +0.000 A 
ATOM      5  C   UNL     1       4.318   4.134  17.942  0.00  0.00    +0.000 A 
ATOM      6  C   UNL     1       4.101   5.053  18.972  0.00  0.00    +0.000 A 
ENDROOT
BRANCH   5   7
ATOM      7  N   UNL     1       5.639   3.909  17.477  0.00  0.00    +0.000 N 
ATOM      8  H   UNL     1       6.245   3.350  18.071  0.00  0.00    +0.000 HD
BRANCH   7   9
ATOM      9  S   UNL     1       6.484   5.166  16.740  0.00  0.00    +0.000 S 
ATOM     10  O   UNL     1       5.695   6.381  16.736  0.00  0.00    +0.000 OA
ATOM     11  O   UNL     1       7.822   5.138  17.293  0.00  0.00    +0.000 OA
BRANCH   9  12
ATOM     12  C   UNL     1       6.722   4.772  15.059  0.00  0.00    +0.000 A 
ATOM     13  C   UNL     1       6.047   3.809  14.334  0.00  0.00    +0.000 A 
ATOM     14  N   UNL     1       6.542   3.918  13.066  0.00  0.00    +0.000 N 
ATOM     15  C   UNL     1       6.149   3.144  11.916  0.00  0.00    +0.000 C 
ATOM     16  C   UNL     1       7.475   4.915  13.055  0.00  0.00    +0.000 A 
ATOM     17  N   UNL     1       7.606   5.462  14.243  0.00  0.00    +0.000 NA
ENDBRANCH   9  12
ENDBRANCH   7   9
ENDBRANCH   5   7
BRANCH   1  18
ATOM     18  C   UNL     1       2.575   6.570  20.300  0.00  0.00    +0.000 C 
BRANCH  18  23
ATOM     19  C   UNL     1       0.560  10.178  18.704  0.00  0.00    +0.000 C 
ATOM     20  C   UNL     1       0.152   9.641  20.084  0.00  0.00    +0.000 C 
ATOM     21  C   UNL     1       1.038   8.564  20.638  0.00  0.00    +0.000 C 
ATOM     22  O   UNL     1       0.996   8.292  21.839  0.00  0.00    +0.000 OA
ATOM     23  C   UNL     1       1.939   7.815  19.732  0.00  0.00    +0.000 C 
ATOM     24  C   UNL     1       2.245   8.406  18.568  0.00  0.00    +0.000 C 
ATOM     25  O   UNL     1       1.743   9.602  18.151  0.00  0.00    +0.000 OA
BRANCH  24  26
ATOM     26  O   UNL     1       3.164   7.873  17.687  0.00  0.00    +0.000 OA
ATOM     27  H   UNL     1       3.613   8.571  17.194  0.00  0.00    +0.000 HD
ENDBRANCH  24  26
BRANCH  19  28
ATOM     28  C   UNL     1       0.843  11.707  18.787  0.00  0.00    +0.000 C 
BRANCH  28  30
ATOM     29  C   UNL     1      -0.582  13.347  20.070  0.00  0.00    +0.000 C 
ATOM     30  C   UNL     1       0.558  12.341  20.158  0.00  0.00    +0.000 C 
ENDBRANCH  28  30
ENDBRANCH  19  28
BRANCH  19  31
ATOM     31  C   UNL     1      -0.594   9.912  17.682  0.00  0.00    +0.000 C 
BRANCH  31  32
ATOM     32  C   UNL     1      -1.986  10.364  18.158  0.00  0.00    +0.000 C 
ATOM     33  C   UNL     1      -3.115   9.775  17.325  0.00  0.00    +0.000 C 
ENDBRANCH  31  32
ENDBRANCH  19  31
ENDBRANCH  18  23
ENDBRANCH   1  18
TORSDOF 10
ENDMDL
MODEL 2
REMARK VINA RESULT:      -7.6      2.545      3.089
REMARK  Name = 
REMARK  13 active torsions:
REMARK  status: ('A' for Active; 'I' for Inactive)
REMARK    1  A    between atoms: C_1  and  C_2
REMARK    2  A    between atoms: C_2  and  C_3
REMARK    3  A    between atoms: C_3  and  C_4
REMARK    4  A    between atoms: C_4  and  C_5
REMARK    5  A    between atoms: C_5  and  C_6
REMARK    6  A    between atoms: C_6  and  C_7
REMARK    7  A    between atoms: C_11  and  C_12
REMARK    8  A    between atoms: C_12  and  C_13
REMARK    9  A    between atoms: C_17  and  N_18
REMARK   10  A    between atoms: N_18  and  S_19
REMARK   11  A    between atoms: S_19  and  C_22
REMARK   12  A    between atoms: N_24  and  C_25
REMARK   13  A    between atoms: C_29  and  O_30
REMARK                            x       y       z     vdW  Elec       q    Type
REMARK                         _______ _______ _______ _____ _____    ______ ____
ROOT
ATOM      1  C   UNL     1       1.983   6.832  20.253  0.00  0.00    +0.000 A 
ATOM      2  C   UNL     1       1.097   5.878  20.779  0.00  0.00    +0.000 A 
ATOM      3  C   UNL     1       1.075   4.573  20.277  0.00  0.00    +0.000 A 
ATOM      4  C   UNL     1       1.924   4.212  19.231  0.00  0.00    +0.000 A 
ATOM      5  C   UNL     1       2.806   5.151  18.700  0.00  0.00    +0.000 A 
ATOM      6  C   UNL     1       2.864   6.442  19.230  0.00  0.00    +0.000 A 
ENDROOT
BRANCH   5   7
ATOM      7  N   UNL     1       3.564   4.838  17.542  0.00  0.00    +0.000 N 
ATOM      8  H   UNL     1       3.053   4.471  16.744  0.00  0.00    +0.000 HD
BRANCH   7   9
ATOM      9  S   UNL     1       5.065   4.093  17.711  0.00  0.00    +0.000 S 
ATOM     10  O   UNL     1       5.097   3.269  18.903  0.00  0.00    +0.000 OA
ATOM     11  O   UNL     1       5.401   3.550  16.412  0.00  0.00    +0.000 OA
BRANCH   9  12
ATOM     12  C   UNL     1       6.275   5.319  17.974  0.00  0.00    +0.000 A 
ATOM     13  C   UNL     1       6.359   6.543  17.338  0.00  0.00    +0.000 A 
ATOM     14  N   UNL     1       7.429   7.163  17.917  0.00  0.00    +0.000 N 
ATOM     15  C   UNL     1       7.929   8.481  17.619  0.00  0.00    +0.000 C 
ATOM     16  C   UNL     1       7.950   6.324  18.860  0.00  0.00    +0.000 A 
ATOM     17  N   UNL     1       7.271   5.201  18.929  0.00  0.00    +0.000 NA
ENDBRANCH   9  12
ENDBRANCH   7   9
ENDBRANCH   5   7
BRANCH   1  18
ATOM     18  C   UNL     1       1.923   8.281  20.689  0.00  0.00    +0.000 C 
BRANCH  18  23
ATOM     19  C   UNL     1      -0.992  10.776  18.477  0.00  0.00    +0.000 C 
ATOM     20  C   UNL     1      -1.340  10.296  19.893  0.00  0.00    +0.000 C 
ATOM     21  C   UNL     1      -0.211   9.657  20.647  0.00  0.00    +0.000 C 
ATOM     22  O   UNL     1      -0.285   9.527  21.870  0.00  0.00    +0.000 OA
ATOM     23  C   UNL     1       0.975   9.160  19.912  0.00  0.00    +0.000 C 
ATOM     24  C   UNL     1       1.187   9.682  18.695  0.00  0.00    +0.000 C 
ATOM     25  O   UNL     1       0.365  10.578  18.082  0.00  0.00    +0.000 OA
BRANCH  24  26
ATOM     26  O   UNL     1       2.316   9.395  17.955  0.00  0.00    +0.000 OA
ATOM     27  H   UNL     1       2.434  10.038  17.245  0.00  0.00    +0.000 HD
ENDBRANCH  24  26
BRANCH  19  28
ATOM     28  C   UNL     1      -1.239  12.309  18.356  0.00  0.00    +0.000 C 
BRANCH  28  30
ATOM     29  C   UNL     1      -0.327  14.622  18.789  0.00  0.00    +0.000 C 
ATOM     30  C   UNL     1       0.025  13.176  18.468  0.00  0.00    +0.000 C 
ENDBRANCH  28  30
ENDBRANCH  19  28
BRANCH  19  31
ATOM     31  C   UNL     1      -1.882  10.017  17.438  0.00  0.00    +0.000 C 
BRANCH  31  32
ATOM     32  C   UNL     1      -2.408  10.891  16.286  0.00  0.00    +0.000 C 
ATOM     33  C   UNL     1      -2.941  10.072  15.119  0.00  0.00    +0.000 C 
ENDBRANCH  31  32
ENDBRANCH  19  31
ENDBRANCH  18  23
ENDBRANCH   1  18
TORSDOF 10
ENDMDL
MODEL 3
REMARK VINA RESULT:      -7.5      1.126      1.273
REMARK  Name = 
REMARK  13 active torsions:
REMARK  status: ('A' for Active; 'I' for Inactive)
REMARK    1  A    between atoms: C_1  and  C_2
REMARK    2  A    between atoms: C_2  and  C_3
REMARK    3  A    between atoms: C_3  and  C_4
REMARK    4  A    between atoms: C_4  and  C_5
REMARK    5  A    between atoms: C_5  and  C_6
REMARK    6  A    between atoms: C_6  and  C_7
REMARK    7  A    between atoms: C_11  and  C_12
REMARK    8  A    between atoms: C_12  and  C_13
REMARK    9  A    between atoms: C_17  and  N_18
REMARK   10  A    between atoms: N_18  and  S_19
REMARK   11  A    between atoms: S_19  and  C_22
REMARK   12  A    between atoms: N_24  and  C_25
REMARK   13  A    between atoms: C_29  and  O_30
REMARK                            x       y       z     vdW  Elec       q    Type
REMARK                         _______ _______ _______ _____ _____    ______ ____
ROOT
ATOM      1  C   UNL     1       2.132   6.041  20.054  0.00  0.00    +0.000 A 
ATOM      2  C   UNL     1       1.203   5.043  20.389  0.00  0.00    +0.000 A 
ATOM      3  C   UNL     1       1.166   3.838  19.682  0.00  0.00    +0.000 A 
ATOM      4  C   UNL     1       2.045   3.623  18.619  0.00  0.00    +0.000 A 
ATOM      5  C   UNL     1       2.970   4.607  18.277  0.00  0.00    +0.000 A 
ATOM      6  C   UNL     1       3.042   5.793  19.011  0.00  0.00    +0.000 A 
ENDROOT
BRANCH   5   7
ATOM      7  N   UNL     1       3.763   4.462  17.110  0.00  0.00    +0.000 N 
ATOM      8  H   UNL     1       3.841   3.526  16.722  0.00  0.00    +0.000 HD
BRANCH   7   9
ATOM      9  S   UNL     1       5.215   5.305  16.985  0.00  0.00    +0.000 S 
ATOM     10  O   UNL     1       4.975   6.731  16.906  0.00  0.00    +0.000 OA
ATOM     11  O   UNL     1       6.101   4.745  17.983  0.00  0.00    +0.000 OA
BRANCH   9  12
ATOM     12  C   UNL     1       5.978   4.889  15.474  0.00  0.00    +0.000 A 
ATOM     13  C   UNL     1       5.478   4.040  14.505  0.00  0.00    +0.000 A 
ATOM     14  N   UNL     1       6.401   4.080  13.499  0.00  0.00    +0.000 N 
ATOM     15  C   UNL     1       6.339   3.379  12.242  0.00  0.00    +0.000 C 
ATOM     16  C   UNL     1       7.405   4.927  13.873  0.00  0.00    +0.000 A 
ATOM     17  N   UNL     1       7.179   5.442  15.060  0.00  0.00    +0.000 NA
ENDBRANCH   9  12
ENDBRANCH   7   9
ENDBRANCH   5   7
BRANCH   1  18
ATOM     18  C   UNL     1       2.094   7.402  20.716  0.00  0.00    +0.000 C 
BRANCH  18  23
ATOM     19  C   UNL     1      -0.303  10.468  18.602  0.00  0.00    +0.000 C 
ATOM     20  C   UNL     1      -0.775   9.964  19.973  0.00  0.00    +0.000 C 
ATOM     21  C   UNL     1       0.210   9.105  20.711  0.00  0.00    +0.000 C 
ATOM     22  O   UNL     1       0.072   8.914  21.921  0.00  0.00    +0.000 OA
ATOM     23  C   UNL     1       1.327   8.470  19.976  0.00  0.00    +0.000 C 
ATOM     24  C   UNL     1       1.664   9.025  18.803  0.00  0.00    +0.000 C 
ATOM     25  O   UNL     1       1.018  10.078  18.230  0.00  0.00    +0.000 OA
BRANCH  24  26
ATOM     26  O   UNL     1       2.759   8.606  18.075  0.00  0.00    +0.000 OA
ATOM     27  H   UNL     1       3.544   9.117  18.310  0.00  0.00    +0.000 HD
ENDBRANCH  24  26
BRANCH  19  28
ATOM     28  C   UNL     1      -0.298  12.026  18.578  0.00  0.00    +0.000 C 
BRANCH  28  30
ATOM     29  C   UNL     1       1.459  12.928  20.149  0.00  0.00    +0.000 C 
ATOM     30  C   UNL     1      -0.030  12.690  19.938  0.00  0.00    +0.000 C 
ENDBRANCH  28  30
ENDBRANCH  19  28
BRANCH  19  31
ATOM     31  C   UNL     1      -1.264   9.929  17.492  0.00  0.00    +0.000 C 
BRANCH  31  32
ATOM     32  C   UNL     1      -2.386  10.902  17.089  0.00  0.00    +0.000 C 
ATOM     33  C   UNL     1      -2.739  10.818  15.611  0.00  0.00    +0.000 C 
ENDBRANCH  31  32
ENDBRANCH  19  31
ENDBRANCH  18  23
ENDBRANCH   1  18
TORSDOF 10
ENDMDL
MODEL 4
REMARK VINA RESULT:      -7.4      2.285      2.998
REMARK  Name = 
REMARK  13 active torsions:
REMARK  status: ('A' for Active; 'I' for Inactive)
REMARK    1  A    between atoms: C_1  and  C_2
REMARK    2  A    between atoms: C_2  and  C_3
REMARK    3  A    between atoms: C_3  and  C_4
REMARK    4  A    between atoms: C_4  and  C_5
REMARK    5  A    between atoms: C_5  and  C_6
REMARK    6  A    between atoms: C_6  and  C_7
REMARK    7  A    between atoms: C_11  and  C_12
REMARK    8  A    between atoms: C_12  and  C_13
REMARK    9  A    between atoms: C_17  and  N_18
REMARK   10  A    between atoms: N_18  and  S_19
REMARK   11  A    between atoms: S_19  and  C_22
REMARK   12  A    between atoms: N_24  and  C_25
REMARK   13  A    between atoms: C_29  and  O_30
REMARK                            x       y       z     vdW  Elec       q    Type
REMARK                         _______ _______ _______ _____ _____    ______ ____
ROOT
ATOM      1  C   UNL     1       2.789   5.911  19.155  0.00  0.00    +0.000 A 
ATOM      2  C   UNL     1       1.753   5.053  18.754  0.00  0.00    +0.000 A 
ATOM      3  C   UNL     1       1.968   4.093  17.761  0.00  0.00    +0.000 A 
ATOM      4  C   UNL     1       3.216   3.991  17.144  0.00  0.00    +0.000 A 
ATOM      5  C   UNL     1       4.251   4.839  17.534  0.00  0.00    +0.000 A 
ATOM      6  C   UNL     1       4.053   5.767  18.559  0.00  0.00    +0.000 A 
ENDROOT
BRANCH   5   7
ATOM      7  N   UNL     1       5.473   4.846  16.814  0.00  0.00    +0.000 N 
ATOM      8  H   UNL     1       5.544   4.210  16.024  0.00  0.00    +0.000 HD
BRANCH   7   9
ATOM      9  S   UNL     1       6.929   4.950  17.654  0.00  0.00    +0.000 S 
ATOM     10  O   UNL     1       6.771   4.476  19.014  0.00  0.00    +0.000 OA
ATOM     11  O   UNL     1       7.946   4.405  16.780  0.00  0.00    +0.000 OA
BRANCH   9  12
ATOM     12  C   UNL     1       7.370   6.629  17.807  0.00  0.00    +0.000 A 
ATOM     13  C   UNL     1       8.251   7.170  18.724  0.00  0.00    +0.000 A 
ATOM     14  N   UNL     1       8.306   8.498  18.411  0.00  0.00    +0.000 N 
ATOM     15  C   UNL     1       9.103   9.507  19.062  0.00  0.00    +0.000 C 
ATOM     16  C   UNL     1       7.482   8.721  17.345  0.00  0.00    +0.000 A 
ATOM     17  N   UNL     1       6.904   7.610  16.945  0.00  0.00    +0.000 NA
ENDBRANCH   9  12
ENDBRANCH   7   9
ENDBRANCH   5   7
BRANCH   1  18
ATOM     18  C   UNL     1       2.536   7.044  20.127  0.00  0.00    +0.000 C 
BRANCH  18  23
ATOM     19  C   UNL     1      -0.024  10.345  18.653  0.00  0.00    +0.000 C 
ATOM     20  C   UNL     1      -0.252   9.795  20.068  0.00  0.00    +0.000 C 
ATOM     21  C   UNL     1       0.799   8.846  20.562  0.00  0.00    +0.000 C 
ATOM     22  O   UNL     1       0.886   8.599  21.767  0.00  0.00    +0.000 OA
ATOM     23  C   UNL     1       1.710   8.190  19.597  0.00  0.00    +0.000 C 
ATOM     24  C   UNL     1       1.848   8.786  18.403  0.00  0.00    +0.000 C 
ATOM     25  O   UNL     1       1.173   9.903  18.012  0.00  0.00    +0.000 OA
BRANCH  24  26
ATOM     26  O   UNL     1       2.752   8.347  17.458  0.00  0.00    +0.000 OA
ATOM     27  H   UNL     1       3.540   8.905  17.449  0.00  0.00    +0.000 HD
ENDBRANCH  24  26
BRANCH  19  28
ATOM     28  C   UNL     1       0.077  11.899  18.691  0.00  0.00    +0.000 C 
BRANCH  28  30
ATOM     29  C   UNL     1       1.613  13.879  18.986  0.00  0.00    +0.000 C 
ATOM     30  C   UNL     1       1.488  12.459  18.452  0.00  0.00    +0.000 C 
ENDBRANCH  28  30
ENDBRANCH  19  28
BRANCH  19  31
ATOM     31  C   UNL     1      -1.214   9.918  17.732  0.00  0.00    +0.000 C 
BRANCH  31  32
ATOM     32  C   UNL     1      -2.164  11.064  17.341  0.00  0.00    +0.000 C 
ATOM     33  C   UNL     1      -2.648  10.966  15.902  0.00  0.00    +0.000 C 
ENDBRANCH  31  32
ENDBRANCH  19  31
ENDBRANCH  18  23
ENDBRANCH   1  18
TORSDOF 10
ENDMDL
MODEL 5
REMARK VINA RESULT:      -7.4      2.401      2.866
REMARK  Name = 
REMARK  13 active torsions:
REMARK  status: ('A' for Active; 'I' for Inactive)
REMARK    1  A    between atoms: C_1  and  C_2
REMARK    2  A    between atoms: C_2  and  C_3
REMARK    3  A    between atoms: C_3  and  C_4
REMARK    4  A    between atoms: C_4  and  C_5
REMARK    5  A    between atoms: C_5  and  C_6
REMARK    6  A    between atoms: C_6  and  C_7
REMARK    7  A    between atoms: C_11  and  C_12
REMARK    8  A    between atoms: C_12  and  C_13
REMARK    9  A    between atoms: C_17  and  N_18
REMARK   10  A    between atoms: N_18  and  S_19
REMARK   11  A    between atoms: S_19  and  C_22
REMARK   12  A    between atoms: N_24  and  C_25
REMARK   13  A    between atoms: C_29  and  O_30
REMARK                            x       y       z     vdW  Elec       q    Type
REMARK                         _______ _______ _______ _____ _____    ______ ____
ROOT
ATOM      1  C   UNL     1       2.148   5.779  20.433  0.00  0.00    +0.000 A 
ATOM      2  C   UNL     1       0.953   5.043  20.366  0.00  0.00    +0.000 A 
ATOM      3  C   UNL     1       0.918   3.799  19.729  0.00  0.00    +0.000 A 
ATOM      4  C   UNL     1       2.071   3.283  19.136  0.00  0.00    +0.000 A 
ATOM      5  C   UNL     1       3.261   4.005  19.195  0.00  0.00    +0.000 A 
ATOM      6  C   UNL     1       3.312   5.227  19.871  0.00  0.00    +0.000 A 
ENDROOT
BRANCH   5   7
ATOM      7  N   UNL     1       4.397   3.563  18.470  0.00  0.00    +0.000 N 
ATOM      8  H   UNL     1       5.169   3.186  19.013  0.00  0.00    +0.000 HD
BRANCH   7   9
ATOM      9  S   UNL     1       4.947   4.466  17.159  0.00  0.00    +0.000 S 
ATOM     10  O   UNL     1       5.548   3.607  16.160  0.00  0.00    +0.000 OA
ATOM     11  O   UNL     1       3.881   5.384  16.820  0.00  0.00    +0.000 OA
BRANCH   9  12
ATOM     12  C   UNL     1       6.236   5.509  17.698  0.00  0.00    +0.000 A 
ATOM     13  C   UNL     1       6.488   6.797  17.265  0.00  0.00    +0.000 A 
ATOM     14  N   UNL     1       7.554   7.211  18.012  0.00  0.00    +0.000 N 
ATOM     15  C   UNL     1       8.198   8.499  17.958  0.00  0.00    +0.000 C 
ATOM     16  C   UNL     1       7.909   6.195  18.852  0.00  0.00    +0.000 A 
ATOM     17  N   UNL     1       7.127   5.150  18.696  0.00  0.00    +0.000 NA
ENDBRANCH   9  12
ENDBRANCH   7   9
ENDBRANCH   5   7
BRANCH   1  18
ATOM     18  C   UNL     1       2.172   7.184  20.994  0.00  0.00    +0.000 C 
BRANCH  18  23
ATOM     19  C   UNL     1      -0.090  10.201  18.669  0.00  0.00    +0.000 C 
ATOM     20  C   UNL     1      -0.524   9.885  20.108  0.00  0.00    +0.000 C 
ATOM     21  C   UNL     1       0.429   9.029  20.889  0.00  0.00    +0.000 C 
ATOM     22  O   UNL     1       0.343   8.979  22.118  0.00  0.00    +0.000 OA
ATOM     23  C   UNL     1       1.451   8.228  20.178  0.00  0.00    +0.000 C 
ATOM     24  C   UNL     1       1.766   8.626  18.936  0.00  0.00    +0.000 C 
ATOM     25  O   UNL     1       1.174   9.664  18.282  0.00  0.00    +0.000 OA
BRANCH  24  26
ATOM     26  O   UNL     1       2.783   8.043  18.209  0.00  0.00    +0.000 OA
ATOM     27  H   UNL     1       3.412   7.599  18.791  0.00  0.00    +0.000 HD
ENDBRANCH  24  26
BRANCH  19  28
ATOM     28  C   UNL     1       0.036  11.741  18.474  0.00  0.00    +0.000 C 
BRANCH  28  30
ATOM     29  C   UNL     1       2.075  12.920  19.380  0.00  0.00    +0.000 C 
ATOM     30  C   UNL     1       0.642  12.494  19.670  0.00  0.00    +0.000 C 
ENDBRANCH  28  30
ENDBRANCH  19  28
BRANCH  19  31
ATOM     31  C   UNL     1      -1.150   9.629  17.671  0.00  0.00    +0.000 C 
BRANCH  31  32
ATOM     32  C   UNL     1      -2.094  10.684  17.067  0.00  0.00    +0.000 C 
ATOM     33  C   UNL     1      -2.694  10.248  15.738  0.00  0.00    +0.000 C 
ENDBRANCH  31  32
ENDBRANCH  19  31
ENDBRANCH  18  23
ENDBRANCH   1  18
TORSDOF 10
ENDMDL
MODEL 6
REMARK VINA RESULT:      -7.4      1.922      3.367
REMARK  Name = 
REMARK  13 active torsions:
REMARK  status: ('A' for Active; 'I' for Inactive)
REMARK    1  A    between atoms: C_1  and  C_2
REMARK    2  A    between atoms: C_2  and  C_3
REMARK    3  A    between atoms: C_3  and  C_4
REMARK    4  A    between atoms: C_4  and  C_5
REMARK    5  A    between atoms: C_5  and  C_6
REMARK    6  A    between atoms: C_6  and  C_7
REMARK    7  A    between atoms: C_11  and  C_12
REMARK    8  A    between atoms: C_12  and  C_13
REMARK    9  A    between atoms: C_17  and  N_18
REMARK   10  A    between atoms: N_18  and  S_19
REMARK   11  A    between atoms: S_19  and  C_22
REMARK   12  A    between atoms: N_24  and  C_25
REMARK   13  A    between atoms: C_29  and  O_30
REMARK                            x       y       z     vdW  Elec       q    Type
REMARK                         _______ _______ _______ _____ _____    ______ ____
ROOT
ATOM      1  C   UNL     1       1.940   8.681  18.492  0.00  0.00    +0.000 A 
ATOM      2  C   UNL     1       1.608   8.261  19.790  0.00  0.00    +0.000 A 
ATOM      3  C   UNL     1       2.074   7.040  20.285  0.00  0.00    +0.000 A 
ATOM      4  C   UNL     1       2.862   6.215  19.482  0.00  0.00    +0.000 A 
ATOM      5  C   UNL     1       3.196   6.621  18.192  0.00  0.00    +0.000 A 
ATOM      6  C   UNL     1       2.772   7.862  17.711  0.00  0.00    +0.000 A 
ENDROOT
BRANCH   5   7
ATOM      7  N   UNL     1       3.869   5.728  17.318  0.00  0.00    +0.000 N 
ATOM      8  H   UNL     1       3.459   4.805  17.200  0.00  0.00    +0.000 HD
BRANCH   7   9
ATOM      9  S   UNL     1       5.552   5.657  17.340  0.00  0.00    +0.000 S 
ATOM     10  O   UNL     1       6.118   6.982  17.492  0.00  0.00    +0.000 OA
ATOM     11  O   UNL     1       5.904   4.580  18.239  0.00  0.00    +0.000 OA
BRANCH   9  12
ATOM     12  C   UNL     1       6.110   5.100  15.786  0.00  0.00    +0.000 A 
ATOM     13  C   UNL     1       5.440   4.252  14.925  0.00  0.00    +0.000 A 
ATOM     14  N   UNL     1       6.250   4.159  13.829  0.00  0.00    +0.000 N 
ATOM     15  C   UNL     1       5.995   3.404  12.628  0.00  0.00    +0.000 C 
ATOM     16  C   UNL     1       7.356   4.930  14.047  0.00  0.00    +0.000 A 
ATOM     17  N   UNL     1       7.303   5.522  15.219  0.00  0.00    +0.000 NA
ENDBRANCH   9  12
ENDBRANCH   7   9
ENDBRANCH   5   7
BRANCH   1  18
ATOM     18  C   UNL     1       1.332   9.932  17.893  0.00  0.00    +0.000 C 
BRANCH  18  23
ATOM     19  C   UNL     1      -1.146  12.284  20.711  0.00  0.00    +0.000 C 
ATOM     20  C   UNL     1       0.370  12.518  20.674  0.00  0.00    +0.000 C 
ATOM     21  C   UNL     1       1.092  11.850  19.540  0.00  0.00    +0.000 C 
ATOM     22  O   UNL     1       2.228  12.218  19.234  0.00  0.00    +0.000 OA
ATOM     23  C   UNL     1       0.445  10.734  18.813  0.00  0.00    +0.000 C 
ATOM     24  C   UNL     1      -0.891  10.657  18.900  0.00  0.00    +0.000 C 
ATOM     25  O   UNL     1      -1.668  11.490  19.646  0.00  0.00    +0.000 OA
BRANCH  24  26
ATOM     26  O   UNL     1      -1.627   9.740  18.178  0.00  0.00    +0.000 OA
ATOM     27  H   UNL     1      -1.935  10.123  17.348  0.00  0.00    +0.000 HD
ENDBRANCH  24  26
BRANCH  19  28
ATOM     28  C   UNL     1      -1.900  13.645  20.621  0.00  0.00    +0.000 C 
BRANCH  28  30
ATOM     29  C   UNL     1      -1.392  15.304  22.453  0.00  0.00    +0.000 C 
ATOM     30  C   UNL     1      -1.068  14.871  21.030  0.00  0.00    +0.000 C 
ENDBRANCH  28  30
ENDBRANCH  19  28
BRANCH  19  31
ATOM     31  C   UNL     1      -1.527  11.560  22.045  0.00  0.00    +0.000 C 
BRANCH  31  32
ATOM     32  C   UNL     1      -0.382  10.755  22.684  0.00  0.00    +0.000 C 
ATOM     33  C   UNL     1      -0.553   9.252  22.520  0.00  0.00    +0.000 C 
ENDBRANCH  31  32
ENDBRANCH  19  31
ENDBRANCH  18  23
ENDBRANCH   1  18
TORSDOF 10
ENDMDL
MODEL 7
REMARK VINA RESULT:      -7.4      1.050      1.113
REMARK  Name = 
REMARK  13 active torsions:
REMARK  status: ('A' for Active; 'I' for Inactive)
REMARK    1  A    between atoms: C_1  and  C_2
REMARK    2  A    between atoms: C_2  and  C_3
REMARK    3  A    between atoms: C_3  and  C_4
REMARK    4  A    between atoms: C_4  and  C_5
REMARK    5  A    between atoms: C_5  and  C_6
REMARK    6  A    between atoms: C_6  and  C_7
REMARK    7  A    between atoms: C_11  and  C_12
REMARK    8  A    between atoms: C_12  and  C_13
REMARK    9  A    between atoms: C_17  and  N_18
REMARK   10  A    between atoms: N_18  and  S_19
REMARK   11  A    between atoms: S_19  and  C_22
REMARK   12  A    between atoms: N_24  and  C_25
REMARK   13  A    between atoms: C_29  and  O_30
REMARK                            x       y       z     vdW  Elec       q    Type
REMARK                         _______ _______ _______ _____ _____    ______ ____
ROOT
ATOM      1  C   UNL     1       2.811   5.754  19.586  0.00  0.00    +0.000 A 
ATOM      2  C   UNL     1       1.919   5.269  18.615  0.00  0.00    +0.000 A 
ATOM      3  C   UNL     1       2.326   4.298  17.696  0.00  0.00    +0.000 A 
ATOM      4  C   UNL     1       3.635   3.812  17.725  0.00  0.00    +0.000 A 
ATOM      5  C   UNL     1       4.528   4.287  18.682  0.00  0.00    +0.000 A 
ATOM      6  C   UNL     1       4.111   5.223  19.632  0.00  0.00    +0.000 A 
ENDROOT
BRANCH   5   7
ATOM      7  N   UNL     1       5.895   3.913  18.626  0.00  0.00    +0.000 N 
ATOM      8  H   UNL     1       6.314   3.577  19.488  0.00  0.00    +0.000 HD
BRANCH   7   9
ATOM      9  S   UNL     1       6.975   4.855  17.741  0.00  0.00    +0.000 S 
ATOM     10  O   UNL     1       6.894   6.244  18.142  0.00  0.00    +0.000 OA
ATOM     11  O   UNL     1       8.236   4.143  17.744  0.00  0.00    +0.000 OA
BRANCH   9  12
ATOM     12  C   UNL     1       6.494   4.837  16.066  0.00  0.00    +0.000 A 
ATOM     13  C   UNL     1       6.652   3.793  15.174  0.00  0.00    +0.000 A 
ATOM     14  N   UNL     1       6.074   4.234  14.018  0.00  0.00    +0.000 N 
ATOM     15  C   UNL     1       5.957   3.507  12.779  0.00  0.00    +0.000 C 
ATOM     16  C   UNL     1       5.595   5.495  14.232  0.00  0.00    +0.000 A 
ATOM     17  N   UNL     1       5.823   5.890  15.465  0.00  0.00    +0.000 NA
ENDBRANCH   9  12
ENDBRANCH   7   9
ENDBRANCH   5   7
BRANCH   1  18
ATOM     18  C   UNL     1       2.430   6.902  20.496  0.00  0.00    +0.000 C 
BRANCH  18  23
ATOM     19  C   UNL     1       0.183  10.227  18.621  0.00  0.00    +0.000 C 
ATOM     20  C   UNL     1      -0.229   9.739  20.017  0.00  0.00    +0.000 C 
ATOM     21  C   UNL     1       0.722   8.776  20.663  0.00  0.00    +0.000 C 
ATOM     22  O   UNL     1       0.660   8.572  21.877  0.00  0.00    +0.000 OA
ATOM     23  C   UNL     1       1.714   8.053  19.834  0.00  0.00    +0.000 C 
ATOM     24  C   UNL     1       2.012   8.599  18.645  0.00  0.00    +0.000 C 
ATOM     25  O   UNL     1       1.428   9.722  18.141  0.00  0.00    +0.000 OA
BRANCH  24  26
ATOM     26  O   UNL     1       3.002   8.095  17.828  0.00  0.00    +0.000 OA
ATOM     27  H   UNL     1       3.634   7.572  18.336  0.00  0.00    +0.000 HD
ENDBRANCH  24  26
BRANCH  19  28
ATOM     28  C   UNL     1       0.336  11.777  18.618  0.00  0.00    +0.000 C 
BRANCH  28  30
ATOM     29  C   UNL     1       2.000  13.100  19.977  0.00  0.00    +0.000 C 
ATOM     30  C   UNL     1       1.785  12.281  18.712  0.00  0.00    +0.000 C 
ENDBRANCH  28  30
ENDBRANCH  19  28
BRANCH  19  31
ATOM     31  C   UNL     1      -0.908   9.805  17.582  0.00  0.00    +0.000 C 
BRANCH  31  32
ATOM     32  C   UNL     1      -1.944  10.897  17.262  0.00  0.00    +0.000 C 
ATOM     33  C   UNL     1      -3.292  10.645  17.922  0.00  0.00    +0.000 C 
ENDBRANCH  31  32
ENDBRANCH  19  31
ENDBRANCH  18  23
ENDBRANCH   1  18
TORSDOF 10
ENDMDL
MODEL 8
REMARK VINA RESULT:      -7.4      2.555      3.297
REMARK  Name = 
REMARK  13 active torsions:
REMARK  status: ('A' for Active; 'I' for Inactive)
REMARK    1  A    between atoms: C_1  and  C_2
REMARK    2  A    between atoms: C_2  and  C_3
REMARK    3  A    between atoms: C_3  and  C_4
REMARK    4  A    between atoms: C_4  and  C_5
REMARK    5  A    between atoms: C_5  and  C_6
REMARK    6  A    between atoms: C_6  and  C_7
REMARK    7  A    between atoms: C_11  and  C_12
REMARK    8  A    between atoms: C_12  and  C_13
REMARK    9  A    between atoms: C_17  and  N_18
REMARK   10  A    between atoms: N_18  and  S_19
REMARK   11  A    between atoms: S_19  and  C_22
REMARK   12  A    between atoms: N_24  and  C_25
REMARK   13  A    between atoms: C_29  and  O_30
REMARK                            x       y       z     vdW  Elec       q    Type
REMARK                         _______ _______ _______ _____ _____    ______ ____
ROOT
ATOM      1  C   UNL     1       2.111   7.016  19.933  0.00  0.00    +0.000 A 
ATOM      2  C   UNL     1       1.414   6.168  20.808  0.00  0.00    +0.000 A 
ATOM      3  C   UNL     1       1.281   4.806  20.524  0.00  0.00    +0.000 A 
ATOM      4  C   UNL     1       1.828   4.278  19.353  0.00  0.00    +0.000 A 
ATOM      5  C   UNL     1       2.520   5.112  18.477  0.00  0.00    +0.000 A 
ATOM      6  C   UNL     1       2.696   6.464  18.780  0.00  0.00    +0.000 A 
ENDROOT
BRANCH   5   7
ATOM      7  N   UNL     1       2.948   4.619  17.217  0.00  0.00    +0.000 N 
ATOM      8  H   UNL     1       2.239   4.194  16.626  0.00  0.00    +0.000 HD
BRANCH   7   9
ATOM      9  S   UNL     1       4.418   3.805  17.102  0.00  0.00    +0.000 S 
ATOM     10  O   UNL     1       4.388   2.582  17.877  0.00  0.00    +0.000 OA
ATOM     11  O   UNL     1       4.774   3.799  15.699  0.00  0.00    +0.000 OA
BRANCH   9  12
ATOM     12  C   UNL     1       5.659   4.781  17.840  0.00  0.00    +0.000 A 
ATOM     13  C   UNL     1       6.285   5.879  17.281  0.00  0.00    +0.000 A 
ATOM     14  N   UNL     1       7.130   6.330  18.255  0.00  0.00    +0.000 N 
ATOM     15  C   UNL     1       8.002   7.474  18.180  0.00  0.00    +0.000 C 
ATOM     16  C   UNL     1       6.997   5.519  19.346  0.00  0.00    +0.000 A 
ATOM     17  N   UNL     1       6.108   4.574  19.135  0.00  0.00    +0.000 NA
ENDBRANCH   9  12
ENDBRANCH   7   9
ENDBRANCH   5   7
BRANCH   1  18
ATOM     18  C   UNL     1       2.145   8.514  20.154  0.00  0.00    +0.000 C 
BRANCH  18  23
ATOM     19  C   UNL     1      -1.400  10.671  18.606  0.00  0.00    +0.000 C 
ATOM     20  C   UNL     1      -1.444  10.078  20.022  0.00  0.00    +0.000 C 
ATOM     21  C   UNL     1      -0.131   9.571  20.543  0.00  0.00    +0.000 C 
ATOM     22  O   UNL     1       0.015   9.373  21.751  0.00  0.00    +0.000 OA
ATOM     23  C   UNL     1       0.974   9.285  19.599  0.00  0.00    +0.000 C 
ATOM     24  C   UNL     1       0.912   9.890  18.404  0.00  0.00    +0.000 C 
ATOM     25  O   UNL     1      -0.112  10.688  17.992  0.00  0.00    +0.000 OA
BRANCH  24  26
ATOM     26  O   UNL     1       1.932   9.804  17.479  0.00  0.00    +0.000 OA
ATOM     27  H   UNL     1       1.831   9.019  16.927  0.00  0.00    +0.000 HD
ENDBRANCH  24  26
BRANCH  19  28
ATOM     28  C   UNL     1      -1.865  12.157  18.634  0.00  0.00    +0.000 C 
BRANCH  28  30
ATOM     29  C   UNL     1      -4.055  12.561  19.822  0.00  0.00    +0.000 C 
ATOM     30  C   UNL     1      -2.538  12.597  19.945  0.00  0.00    +0.000 C 
ENDBRANCH  28  30
ENDBRANCH  19  28
BRANCH  19  31
ATOM     31  C   UNL     1      -2.339   9.844  17.668  0.00  0.00    +0.000 C 
BRANCH  31  32
ATOM     32  C   UNL     1      -2.986  10.656  16.533  0.00  0.00    +0.000 C 
ATOM     33  C   UNL     1      -2.912   9.952  15.186  0.00  0.00    +0.000 C 
ENDBRANCH  31  32
ENDBRANCH  19  31
ENDBRANCH  18  23
ENDBRANCH   1  18
TORSDOF 10
ENDMDL
MODEL 9
REMARK VINA RESULT:      -7.3      1.384      1.911
REMARK  Name = 
REMARK  13 active torsions:
REMARK  status: ('A' for Active; 'I' for Inactive)
REMARK    1  A    between atoms: C_1  and  C_2
REMARK    2  A    between atoms: C_2  and  C_3
REMARK    3  A    between atoms: C_3  and  C_4
REMARK    4  A    between atoms: C_4  and  C_5
REMARK    5  A    between atoms: C_5  and  C_6
REMARK    6  A    between atoms: C_6  and  C_7
REMARK    7  A    between atoms: C_11  and  C_12
REMARK    8  A    between atoms: C_12  and  C_13
REMARK    9  A    between atoms: C_17  and  N_18
REMARK   10  A    between atoms: N_18  and  S_19
REMARK   11  A    between atoms: S_19  and  C_22
REMARK   12  A    between atoms: N_24  and  C_25
REMARK   13  A    between atoms: C_29  and  O_30
REMARK                            x       y       z     vdW  Elec       q    Type
REMARK                         _______ _______ _______ _____ _____    ______ ____
ROOT
ATOM      1  C   UNL     1       2.240   7.107  19.848  0.00  0.00    +0.000 A 
ATOM      2  C   UNL     1       1.465   6.090  20.427  0.00  0.00    +0.000 A 
ATOM      3  C   UNL     1       1.537   4.779  19.947  0.00  0.00    +0.000 A 
ATOM      4  C   UNL     1       2.372   4.472  18.872  0.00  0.00    +0.000 A 
ATOM      5  C   UNL     1       3.145   5.474  18.289  0.00  0.00    +0.000 A 
ATOM      6  C   UNL     1       3.111   6.775  18.796  0.00  0.00    +0.000 A 
ENDROOT
BRANCH   5   7
ATOM      7  N   UNL     1       3.880   5.206  17.106  0.00  0.00    +0.000 N 
ATOM      8  H   UNL     1       3.556   4.435  16.529  0.00  0.00    +0.000 HD
BRANCH   7   9
ATOM      9  S   UNL     1       5.562   5.288  17.140  0.00  0.00    +0.000 S 
ATOM     10  O   UNL     1       6.005   6.646  17.380  0.00  0.00    +0.000 OA
ATOM     11  O   UNL     1       6.008   4.192  17.973  0.00  0.00    +0.000 OA
BRANCH   9  12
ATOM     12  C   UNL     1       6.176   4.882  15.559  0.00  0.00    +0.000 A 
ATOM     13  C   UNL     1       5.604   4.010  14.652  0.00  0.00    +0.000 A 
ATOM     14  N   UNL     1       6.415   4.070  13.555  0.00  0.00    +0.000 N 
ATOM     15  C   UNL     1       6.244   3.357  12.315  0.00  0.00    +0.000 C 
ATOM     16  C   UNL     1       7.426   4.950  13.817  0.00  0.00    +0.000 A 
ATOM     17  N   UNL     1       7.309   5.469  15.019  0.00  0.00    +0.000 NA
ENDBRANCH   9  12
ENDBRANCH   7   9
ENDBRANCH   5   7
BRANCH   1  18
ATOM     18  C   UNL     1       2.071   8.553  20.262  0.00  0.00    +0.000 C 
BRANCH  18  23
ATOM     19  C   UNL     1      -1.473  10.576  18.541  0.00  0.00    +0.000 C 
ATOM     20  C   UNL     1      -1.539  10.048  19.981  0.00  0.00    +0.000 C 
ATOM     21  C   UNL     1      -0.230   9.589  20.553  0.00  0.00    +0.000 C 
ATOM     22  O   UNL     1      -0.107   9.450  21.771  0.00  0.00    +0.000 OA
ATOM     23  C   UNL     1       0.900   9.278  19.647  0.00  0.00    +0.000 C 
ATOM     24  C   UNL     1       0.854   9.826  18.424  0.00  0.00    +0.000 C 
ATOM     25  O   UNL     1      -0.173  10.587  17.953  0.00  0.00    +0.000 OA
BRANCH  24  26
ATOM     26  O   UNL     1       1.896   9.715  17.525  0.00  0.00    +0.000 OA
ATOM     27  H   UNL     1       2.658   9.288  17.934  0.00  0.00    +0.000 HD
ENDBRANCH  24  26
BRANCH  19  28
ATOM     28  C   UNL     1      -1.963  12.054  18.489  0.00  0.00    +0.000 C 
BRANCH  28  30
ATOM     29  C   UNL     1      -3.871  12.705  20.008  0.00  0.00    +0.000 C 
ATOM     30  C   UNL     1      -2.358  12.649  19.851  0.00  0.00    +0.000 C 
ENDBRANCH  28  30
ENDBRANCH  19  28
BRANCH  19  31
ATOM     31  C   UNL     1      -2.378   9.690  17.623  0.00  0.00    +0.000 C 
BRANCH  31  32
ATOM     32  C   UNL     1      -3.361  10.479  16.739  0.00  0.00    +0.000 C 
ATOM     33  C   UNL     1      -2.879  10.625  15.303  0.00  0.00    +0.000 C 
ENDBRANCH  31  32
ENDBRANCH  19  31
ENDBRANCH  18  23
ENDBRANCH   1  18
TORSDOF 10
ENDMDL
