MODEL 1
REMARK VINA RESULT:      -7.9      0.000      0.000
REMARK  Name = 
REMARK  11 active torsions:
REMARK  status: ('A' for Active; 'I' for Inactive)
REMARK    1  A    between atoms: C_1  and  O_2
REMARK    2  A    between atoms: O_2  and  C_3
REMARK    3  A    between atoms: C_3  and  C_5
REMARK    4  A    between atoms: C_8  and  C_9
REMARK    5  A    between atoms: C_10  and  O_11
REMARK    6  A    between atoms: O_11  and  C_12
REMARK    7  A    between atoms: C_15  and  O_16
REMARK    8  A    between atoms: O_16  and  C_17
REMARK    9  A    between atoms: N_22  and  C_23
REMARK   10  A    between atoms: C_23  and  C_24
REMARK   11  A    between atoms: C_24  and  C_25
REMARK                            x       y       z     vdW  Elec       q    Type
REMARK                         _______ _______ _______ _____ _____    ______ ____
ROOT
ATOM      1  C   UNL     1       2.082   6.996  18.411  0.00  0.00    +0.000 C 
ATOM      2  C   UNL     1       1.949   8.545  18.586  0.00  0.00    +0.000 C 
ATOM      3  C   UNL     1       1.810   8.220  20.083  0.00  0.00    +0.000 C 
ATOM      4  O   UNL     1       1.853   8.845  21.120  0.00  0.00    +0.000 OA
ATOM      5  N   UNL     1       1.728   6.887  19.840  0.00  0.00    +0.000 N 
ENDROOT
BRANCH   1   9
ATOM      6  C   UNL     1       5.967   5.447  16.872  0.00  0.00    +0.000 A 
ATOM      7  C   UNL     1       5.865   6.762  17.332  0.00  0.00    +0.000 A 
ATOM      8  C   UNL     1       4.650   7.248  17.833  0.00  0.00    +0.000 A 
ATOM      9  C   UNL     1       3.491   6.448  17.899  0.00  0.00    +0.000 A 
ATOM     10  C   UNL     1       3.629   5.124  17.426  0.00  0.00    +0.000 A 
ATOM     11  C   UNL     1       4.839   4.626  16.921  0.00  0.00    +0.000 A 
BRANCH   6  12
ATOM     12  C   UNL     1       7.284   4.983  16.352  0.00  0.00    +0.000 C 
ATOM     13  O   UNL     1       8.025   4.238  16.976  0.00  0.00    +0.000 OA
BRANCH  12  15
ATOM     14  C   UNL     1       6.963   4.745  14.052  0.00  0.00    +0.000 C 
ATOM     15  O   UNL     1       7.531   5.502  15.124  0.00  0.00    +0.000 OA
ENDBRANCH  12  15
ENDBRANCH   6  12
ENDBRANCH   1   9
BRANCH   2  16
ATOM     16  O   UNL     1       0.798   9.185  17.981  0.00  0.00    +0.000 OA
BRANCH  16  17
ATOM     17  C   UNL     1       0.577  10.503  18.296  0.00  0.00    +0.000 A 
ATOM     18  C   UNL     1       1.697  11.329  18.348  0.00  0.00    +0.000 A 
ATOM     19  C   UNL     1       1.551  12.690  18.631  0.00  0.00    +0.000 A 
ATOM     20  C   UNL     1       0.283  13.237  18.837  0.00  0.00    +0.000 A 
ATOM     21  C   UNL     1      -0.838  12.407  18.785  0.00  0.00    +0.000 A 
ATOM     22  C   UNL     1      -0.691  11.046  18.509  0.00  0.00    +0.000 A 
BRANCH  20  23
ATOM     23  O   UNL     1       0.250  14.577  19.104  0.00  0.00    +0.000 OA
ATOM     24  C   UNL     1       1.500  15.254  18.998  0.00  0.00    +0.000 C 
ENDBRANCH  20  23
ENDBRANCH  16  17
ENDBRANCH   2  16
BRANCH   5  25
ATOM     25  C   UNL     1       1.991   5.802  20.754  0.00  0.00    +0.000 C 
BRANCH  25  26
ATOM     26  C   UNL     1       1.152   4.553  20.458  0.00  0.00    +0.000 C 
BRANCH  26  27
ATOM     27  C   UNL     1       1.959   3.467  19.790  0.00  0.00    +0.000 A 
ATOM     28  C   UNL     1       3.231   3.129  20.276  0.00  0.00    +0.000 A 
ATOM     29  C   UNL     1       3.980   2.133  19.649  0.00  0.00    +0.000 A 
ATOM     30  C   UNL     1       3.458   1.479  18.539  0.00  0.00    +0.000 A 
ATOM     31  F   UNL     1       4.178   0.525  17.938  0.00  0.00    +0.000 F 
ATOM     32  C   UNL     1       2.199   1.801  18.046  0.00  0.00    +0.000 A 
ATOM     33  C   UNL     1       1.448   2.796  18.670  0.00  0.00    +0.000 A 
ENDBRANCH  26  27
ENDBRANCH  25  26
ENDBRANCH   5  25
TORSDOF 9
ENDMDL
MODEL 2
REMARK VINA RESULT:      -7.8      0.438      1.257
REMARK  Name = 
REMARK  11 active torsions:
REMARK  status: ('A' for Active; 'I' for Inactive)
REMARK    1  A    between atoms: C_1  and  O_2
REMARK    2  A    between atoms: O_2  and  C_3
REMARK    3  A    between atoms: C_3  and  C_5
REMARK    4  A    between atoms: C_8  and  C_9
REMARK    5  A    between atoms: C_10  and  O_11
REMARK    6  A    between atoms: O_11  and  C_12
REMARK    7  A    between atoms: C_15  and  O_16
REMARK    8  A    between atoms: O_16  and  C_17
REMARK    9  A    between atoms: N_22  and  C_23
REMARK   10  A    between atoms: C_23  and  C_24
REMARK   11  A    between atoms: C_24  and  C_25
REMARK                            x       y       z     vdW  Elec       q    Type
REMARK                         _______ _______ _______ _____ _____    ______ ____
ROOT
ATOM      1  C   UNL     1       2.068   7.000  18.353  0.00  0.00    +0.000 C 
ATOM      2  C   UNL     1       1.928   8.549  18.524  0.00  0.00    +0.000 C 
ATOM      3  C   UNL     1       1.836   8.230  20.026  0.00  0.00    +0.000 C 
ATOM      4  O   UNL     1       1.905   8.862  21.059  0.00  0.00    +0.000 OA
ATOM      5  N   UNL     1       1.757   6.896  19.792  0.00  0.00    +0.000 N 
ENDROOT
BRANCH   1   9
ATOM      6  C   UNL     1       6.020   5.519  16.922  0.00  0.00    +0.000 A 
ATOM      7  C   UNL     1       4.920   4.658  16.971  0.00  0.00    +0.000 A 
ATOM      8  C   UNL     1       3.671   5.124  17.403  0.00  0.00    +0.000 A 
ATOM      9  C   UNL     1       3.466   6.461  17.802  0.00  0.00    +0.000 A 
ATOM     10  C   UNL     1       4.597   7.303  17.741  0.00  0.00    +0.000 A 
ATOM     11  C   UNL     1       5.853   6.849  17.310  0.00  0.00    +0.000 A 
BRANCH   6  12
ATOM     12  C   UNL     1       7.323   4.970  16.451  0.00  0.00    +0.000 C 
ATOM     13  O   UNL     1       8.006   4.206  17.116  0.00  0.00    +0.000 OA
BRANCH  12  15
ATOM     14  C   UNL     1       6.930   4.777  14.158  0.00  0.00    +0.000 C 
ATOM     15  O   UNL     1       7.629   5.438  15.216  0.00  0.00    +0.000 OA
ENDBRANCH  12  15
ENDBRANCH   6  12
ENDBRANCH   1   9
BRANCH   2  16
ATOM     16  O   UNL     1       0.754   9.177  17.950  0.00  0.00    +0.000 OA
BRANCH  16  17
ATOM     17  C   UNL     1       0.472  10.460  18.349  0.00  0.00    +0.000 A 
ATOM     18  C   UNL     1      -0.869  10.766  18.565  0.00  0.00    +0.000 A 
ATOM     19  C   UNL     1      -1.233  12.042  19.004  0.00  0.00    +0.000 A 
ATOM     20  C   UNL     1      -0.258  13.010  19.254  0.00  0.00    +0.000 A 
ATOM     21  C   UNL     1       1.085  12.700  19.037  0.00  0.00    +0.000 A 
ATOM     22  C   UNL     1       1.449  11.427  18.592  0.00  0.00    +0.000 A 
BRANCH  20  23
ATOM     23  O   UNL     1      -0.720  14.223  19.682  0.00  0.00    +0.000 OA
ATOM     24  C   UNL     1      -0.300  15.346  18.911  0.00  0.00    +0.000 C 
ENDBRANCH  20  23
ENDBRANCH  16  17
ENDBRANCH   2  16
BRANCH   5  25
ATOM     25  C   UNL     1       2.057   5.818  20.703  0.00  0.00    +0.000 C 
BRANCH  25  26
ATOM     26  C   UNL     1       1.213   4.563  20.444  0.00  0.00    +0.000 C 
BRANCH  26  27
ATOM     27  C   UNL     1       2.007   3.469  19.775  0.00  0.00    +0.000 A 
ATOM     28  C   UNL     1       3.286   3.132  20.245  0.00  0.00    +0.000 A 
ATOM     29  C   UNL     1       4.023   2.128  19.617  0.00  0.00    +0.000 A 
ATOM     30  C   UNL     1       3.483   1.464  18.522  0.00  0.00    +0.000 A 
ATOM     31  F   UNL     1       4.192   0.503  17.919  0.00  0.00    +0.000 F 
ATOM     32  C   UNL     1       2.218   1.785  18.043  0.00  0.00    +0.000 A 
ATOM     33  C   UNL     1       1.478   2.789  18.669  0.00  0.00    +0.000 A 
ENDBRANCH  26  27
ENDBRANCH  25  26
ENDBRANCH   5  25
TORSDOF 9
ENDMDL
MODEL 3
REMARK VINA RESULT:      -7.8      0.326      1.230
REMARK  Name = 
REMARK  11 active torsions:
REMARK  status: ('A' for Active; 'I' for Inactive)
REMARK    1  A    between atoms: C_1  and  O_2
REMARK    2  A    between atoms: O_2  and  C_3
REMARK    3  A    between atoms: C_3  and  C_5
REMARK    4  A    between atoms: C_8  and  C_9
REMARK    5  A    between atoms: C_10  and  O_11
REMARK    6  A    between atoms: O_11  and  C_12
REMARK    7  A    between atoms: C_15  and  O_16
REMARK    8  A    between atoms: O_16  and  C_17
REMARK    9  A    between atoms: N_22  and  C_23
REMARK   10  A    between atoms: C_23  and  C_24
REMARK   11  A    between atoms: C_24  and  C_25
REMARK                            x       y       z     vdW  Elec       q    Type
REMARK                         _______ _______ _______ _____ _____    ______ ____
ROOT
ATOM      1  C   UNL     1       2.041   7.040  18.407  0.00  0.00    +0.000 C 
ATOM      2  C   UNL     1       1.891   8.588  18.577  0.00  0.00    +0.000 C 
ATOM      3  C   UNL     1       1.770   8.268  20.076  0.00  0.00    +0.000 C 
ATOM      4  O   UNL     1       1.816   8.898  21.110  0.00  0.00    +0.000 OA
ATOM      5  N   UNL     1       1.701   6.933  19.839  0.00  0.00    +0.000 N 
ENDROOT
BRANCH   1   9
ATOM      6  C   UNL     1       5.928   5.528  16.838  0.00  0.00    +0.000 A 
ATOM      7  C   UNL     1       5.812   6.848  17.280  0.00  0.00    +0.000 A 
ATOM      8  C   UNL     1       4.597   7.323  17.791  0.00  0.00    +0.000 A 
ATOM      9  C   UNL     1       3.451   6.506  17.884  0.00  0.00    +0.000 A 
ATOM     10  C   UNL     1       3.603   5.178  17.428  0.00  0.00    +0.000 A 
ATOM     11  C   UNL     1       4.814   4.691  16.915  0.00  0.00    +0.000 A 
BRANCH   6  12
ATOM     12  C   UNL     1       7.245   5.076  16.308  0.00  0.00    +0.000 C 
ATOM     13  O   UNL     1       8.002   4.346  16.929  0.00  0.00    +0.000 OA
BRANCH  12  15
ATOM     14  C   UNL     1       6.999   4.761  14.007  0.00  0.00    +0.000 C 
ATOM     15  O   UNL     1       7.472   5.589  15.073  0.00  0.00    +0.000 OA
ENDBRANCH  12  15
ENDBRANCH   6  12
ENDBRANCH   1   9
BRANCH   2  16
ATOM     16  O   UNL     1       0.727   9.213  17.980  0.00  0.00    +0.000 OA
BRANCH  16  17
ATOM     17  C   UNL     1       0.496  10.530  18.290  0.00  0.00    +0.000 A 
ATOM     18  C   UNL     1      -0.836  10.910  18.443  0.00  0.00    +0.000 A 
ATOM     19  C   UNL     1      -1.152  12.226  18.791  0.00  0.00    +0.000 A 
ATOM     20  C   UNL     1      -0.139  13.162  19.012  0.00  0.00    +0.000 A 
ATOM     21  C   UNL     1       1.194  12.778  18.857  0.00  0.00    +0.000 A 
ATOM     22  C   UNL     1       1.509  11.465  18.504  0.00  0.00    +0.000 A 
BRANCH  20  23
ATOM     23  O   UNL     1      -0.556  14.420  19.350  0.00  0.00    +0.000 OA
ATOM     24  C   UNL     1       0.441  15.262  19.924  0.00  0.00    +0.000 C 
ENDBRANCH  20  23
ENDBRANCH  16  17
ENDBRANCH   2  16
BRANCH   5  25
ATOM     25  C   UNL     1       1.985   5.855  20.755  0.00  0.00    +0.000 C 
BRANCH  25  26
ATOM     26  C   UNL     1       1.153   4.597  20.476  0.00  0.00    +0.000 C 
BRANCH  26  27
ATOM     27  C   UNL     1       1.956   3.522  19.786  0.00  0.00    +0.000 A 
ATOM     28  C   UNL     1       1.432   2.854  18.668  0.00  0.00    +0.000 A 
ATOM     29  C   UNL     1       2.172   1.852  18.040  0.00  0.00    +0.000 A 
ATOM     30  C   UNL     1       3.430   1.520  18.529  0.00  0.00    +0.000 A 
ATOM     31  F   UNL     1       4.137   0.557  17.926  0.00  0.00    +0.000 F 
ATOM     32  C   UNL     1       3.963   2.172  19.634  0.00  0.00    +0.000 A 
ATOM     33  C   UNL     1       3.227   3.174  20.265  0.00  0.00    +0.000 A 
ENDBRANCH  26  27
ENDBRANCH  25  26
ENDBRANCH   5  25
TORSDOF 9
ENDMDL
MODEL 4
REMARK VINA RESULT:      -7.8      0.780      1.691
REMARK  Name = 
REMARK  11 active torsions:
REMARK  status: ('A' for Active; 'I' for Inactive)
REMARK    1  A    between atoms: C_1  and  O_2
REMARK    2  A    between atoms: O_2  and  C_3
REMARK    3  A    between atoms: C_3  and  C_5
REMARK    4  A    between atoms: C_8  and  C_9
REMARK    5  A    between atoms: C_10  and  O_11
REMARK    6  A    between atoms: O_11  and  C_12
REMARK    7  A    between atoms: C_15  and  O_16
REMARK    8  A    between atoms: O_16  and  C_17
REMARK    9  A    between atoms: N_22  and  C_23
REMARK   10  A    between atoms: C_23  and  C_24
REMARK   11  A    between atoms: C_24  and  C_25
REMARK                            x       y       z     vdW  Elec       q    Type
REMARK                         _______ _______ _______ _____ _____    ______ ____
ROOT
ATOM      1  C   UNL     1       2.024   7.068  18.360  0.00  0.00    +0.000 C 
ATOM      2  C   UNL     1       1.874   8.616  18.530  0.00  0.00    +0.000 C 
ATOM      3  C   UNL     1       1.794   8.299  20.033  0.00  0.00    +0.000 C 
ATOM      4  O   UNL     1       1.864   8.932  21.064  0.00  0.00    +0.000 OA
ATOM      5  N   UNL     1       1.722   6.964  19.801  0.00  0.00    +0.000 N 
ENDROOT
BRANCH   1   9
ATOM      6  C   UNL     1       5.978   5.612  16.907  0.00  0.00    +0.000 A 
ATOM      7  C   UNL     1       4.887   4.741  16.977  0.00  0.00    +0.000 A 
ATOM      8  C   UNL     1       3.638   5.198  17.416  0.00  0.00    +0.000 A 
ATOM      9  C   UNL     1       3.422   6.537  17.801  0.00  0.00    +0.000 A 
ATOM     10  C   UNL     1       4.544   7.391  17.720  0.00  0.00    +0.000 A 
ATOM     11  C   UNL     1       5.800   6.945  17.282  0.00  0.00    +0.000 A 
BRANCH   6  12
ATOM     12  C   UNL     1       7.282   5.072  16.431  0.00  0.00    +0.000 C 
ATOM     13  O   UNL     1       7.982   4.328  17.099  0.00  0.00    +0.000 OA
BRANCH  12  15
ATOM     14  C   UNL     1       6.967   4.753  14.139  0.00  0.00    +0.000 C 
ATOM     15  O   UNL     1       7.567   5.523  15.184  0.00  0.00    +0.000 OA
ENDBRANCH  12  15
ENDBRANCH   6  12
ENDBRANCH   1   9
BRANCH   2  16
ATOM     16  O   UNL     1       0.694   9.236  17.962  0.00  0.00    +0.000 OA
BRANCH  16  17
ATOM     17  C   UNL     1       0.276  10.418  18.522  0.00  0.00    +0.000 A 
ATOM     18  C   UNL     1      -1.040  10.464  18.974  0.00  0.00    +0.000 A 
ATOM     19  C   UNL     1      -1.530  11.622  19.586  0.00  0.00    +0.000 A 
ATOM     20  C   UNL     1      -0.700  12.729  19.771  0.00  0.00    +0.000 A 
ATOM     21  C   UNL     1       0.619  12.680  19.317  0.00  0.00    +0.000 A 
ATOM     22  C   UNL     1       1.106  11.526  18.700  0.00  0.00    +0.000 A 
BRANCH  20  23
ATOM     23  O   UNL     1      -1.276  13.808  20.381  0.00  0.00    +0.000 OA
ATOM     24  C   UNL     1      -0.888  14.027  21.736  0.00  0.00    +0.000 C 
ENDBRANCH  20  23
ENDBRANCH  16  17
ENDBRANCH   2  16
BRANCH   5  25
ATOM     25  C   UNL     1       2.034   5.889  20.712  0.00  0.00    +0.000 C 
BRANCH  25  26
ATOM     26  C   UNL     1       1.195   4.630  20.461  0.00  0.00    +0.000 C 
BRANCH  26  27
ATOM     27  C   UNL     1       1.986   3.543  19.776  0.00  0.00    +0.000 A 
ATOM     28  C   UNL     1       1.455   2.875  18.661  0.00  0.00    +0.000 A 
ATOM     29  C   UNL     1       2.184   1.862  18.037  0.00  0.00    +0.000 A 
ATOM     30  C   UNL     1       3.438   1.519  18.527  0.00  0.00    +0.000 A 
ATOM     31  F   UNL     1       4.135   0.546  17.928  0.00  0.00    +0.000 F 
ATOM     32  C   UNL     1       3.980   2.171  19.628  0.00  0.00    +0.000 A 
ATOM     33  C   UNL     1       3.254   3.184  20.255  0.00  0.00    +0.000 A 
ENDBRANCH  26  27
ENDBRANCH  25  26
ENDBRANCH   5  25
TORSDOF 9
ENDMDL
MODEL 5
REMARK VINA RESULT:      -7.7      0.966      1.379
REMARK  Name = 
REMARK  11 active torsions:
REMARK  status: ('A' for Active; 'I' for Inactive)
REMARK    1  A    between atoms: C_1  and  O_2
REMARK    2  A    between atoms: O_2  and  C_3
REMARK    3  A    between atoms: C_3  and  C_5
REMARK    4  A    between atoms: C_8  and  C_9
REMARK    5  A    between atoms: C_10  and  O_11
REMARK    6  A    between atoms: O_11  and  C_12
REMARK    7  A    between atoms: C_15  and  O_16
REMARK    8  A    between atoms: O_16  and  C_17
REMARK    9  A    between atoms: N_22  and  C_23
REMARK   10  A    between atoms: C_23  and  C_24
REMARK   11  A    between atoms: C_24  and  C_25
REMARK                            x       y       z     vdW  Elec       q    Type
REMARK                         _______ _______ _______ _____ _____    ______ ____
ROOT
ATOM      1  C   UNL     1       2.047   7.128  18.646  0.00  0.00    +0.000 C 
ATOM      2  C   UNL     1       1.903   8.657  18.946  0.00  0.00    +0.000 C 
ATOM      3  C   UNL     1       1.711   8.206  20.404  0.00  0.00    +0.000 C 
ATOM      4  O   UNL     1       1.715   8.742  21.492  0.00  0.00    +0.000 OA
ATOM      5  N   UNL     1       1.641   6.899  20.047  0.00  0.00    +0.000 N 
ENDROOT
BRANCH   1   9
ATOM      6  C   UNL     1       5.989   5.610  17.227  0.00  0.00    +0.000 A 
ATOM      7  C   UNL     1       5.292   6.566  16.484  0.00  0.00    +0.000 A 
ATOM      8  C   UNL     1       4.061   7.059  16.935  0.00  0.00    +0.000 A 
ATOM      9  C   UNL     1       3.475   6.624  18.141  0.00  0.00    +0.000 A 
ATOM     10  C   UNL     1       4.204   5.658  18.867  0.00  0.00    +0.000 A 
ATOM     11  C   UNL     1       5.438   5.156  18.426  0.00  0.00    +0.000 A 
BRANCH   6  12
ATOM     12  C   UNL     1       7.295   5.123  16.701  0.00  0.00    +0.000 C 
ATOM     13  O   UNL     1       8.047   4.403  17.339  0.00  0.00    +0.000 OA
BRANCH  12  15
ATOM     14  C   UNL     1       7.072   4.712  14.413  0.00  0.00    +0.000 C 
ATOM     15  O   UNL     1       7.518   5.592  15.448  0.00  0.00    +0.000 OA
ENDBRANCH  12  15
ENDBRANCH   6  12
ENDBRANCH   1   9
BRANCH   2  16
ATOM     16  O   UNL     1       0.773   9.346  18.356  0.00  0.00    +0.000 OA
BRANCH  16  17
ATOM     17  C   UNL     1       0.432  10.562  18.894  0.00  0.00    +0.000 A 
ATOM     18  C   UNL     1      -0.815  10.645  19.510  0.00  0.00    +0.000 A 
ATOM     19  C   UNL     1      -1.221  11.840  20.109  0.00  0.00    +0.000 A 
ATOM     20  C   UNL     1      -0.375  12.950  20.119  0.00  0.00    +0.000 A 
ATOM     21  C   UNL     1       0.874  12.865  19.501  0.00  0.00    +0.000 A 
ATOM     22  C   UNL     1       1.277  11.673  18.897  0.00  0.00    +0.000 A 
BRANCH  20  23
ATOM     23  O   UNL     1      -0.867  14.068  20.733  0.00  0.00    +0.000 OA
ATOM     24  C   UNL     1      -2.286  14.204  20.713  0.00  0.00    +0.000 C 
ENDBRANCH  20  23
ENDBRANCH  16  17
ENDBRANCH   2  16
BRANCH   5  25
ATOM     25  C   UNL     1       1.874   5.740  20.875  0.00  0.00    +0.000 C 
BRANCH  25  26
ATOM     26  C   UNL     1       1.050   4.521  20.444  0.00  0.00    +0.000 C 
BRANCH  26  27
ATOM     27  C   UNL     1       1.878   3.507  19.694  0.00  0.00    +0.000 A 
ATOM     28  C   UNL     1       2.919   2.823  20.342  0.00  0.00    +0.000 A 
ATOM     29  C   UNL     1       3.691   1.896  19.643  0.00  0.00    +0.000 A 
ATOM     30  C   UNL     1       3.423   1.654  18.301  0.00  0.00    +0.000 A 
ATOM     31  F   UNL     1       4.166   0.764  17.631  0.00  0.00    +0.000 F 
ATOM     32  C   UNL     1       2.397   2.321  17.644  0.00  0.00    +0.000 A 
ATOM     33  C   UNL     1       1.622   3.250  18.340  0.00  0.00    +0.000 A 
ENDBRANCH  26  27
ENDBRANCH  25  26
ENDBRANCH   5  25
TORSDOF 9
ENDMDL
MODEL 6
REMARK VINA RESULT:      -7.6      0.798      1.472
REMARK  Name = 
REMARK  11 active torsions:
REMARK  status: ('A' for Active; 'I' for Inactive)
REMARK    1  A    between atoms: C_1  and  O_2
REMARK    2  A    between atoms: O_2  and  C_3
REMARK    3  A    between atoms: C_3  and  C_5
REMARK    4  A    between atoms: C_8  and  C_9
REMARK    5  A    between atoms: C_10  and  O_11
REMARK    6  A    between atoms: O_11  and  C_12
REMARK    7  A    between atoms: C_15  and  O_16
REMARK    8  A    between atoms: O_16  and  C_17
REMARK    9  A    between atoms: N_22  and  C_23
REMARK   10  A    between atoms: C_23  and  C_24
REMARK   11  A    between atoms: C_24  and  C_25
REMARK                            x       y       z     vdW  Elec       q    Type
REMARK                         _______ _______ _______ _____ _____    ______ ____
ROOT
ATOM      1  C   UNL     1       1.941   7.167  18.855  0.00  0.00    +0.000 C 
ATOM      2  C   UNL     1       1.875   8.681  19.246  0.00  0.00    +0.000 C 
ATOM      3  C   UNL     1       1.645   8.155  20.673  0.00  0.00    +0.000 C 
ATOM      4  O   UNL     1       1.667   8.625  21.791  0.00  0.00    +0.000 OA
ATOM      5  N   UNL     1       1.509   6.877  20.237  0.00  0.00    +0.000 N 
ENDROOT
BRANCH   1   9
ATOM      6  C   UNL     1       5.901   5.751  17.382  0.00  0.00    +0.000 A 
ATOM      7  C   UNL     1       5.445   5.377  18.649  0.00  0.00    +0.000 A 
ATOM      8  C   UNL     1       4.193   5.805  19.109  0.00  0.00    +0.000 A 
ATOM      9  C   UNL     1       3.345   6.619  18.331  0.00  0.00    +0.000 A 
ATOM     10  C   UNL     1       3.836   6.979  17.057  0.00  0.00    +0.000 A 
ATOM     11  C   UNL     1       5.088   6.558  16.584  0.00  0.00    +0.000 A 
BRANCH   6  12
ATOM     12  C   UNL     1       7.239   5.265  16.944  0.00  0.00    +0.000 C 
ATOM     13  O   UNL     1       7.973   4.595  17.654  0.00  0.00    +0.000 OA
BRANCH  12  15
ATOM     14  C   UNL     1       7.103   4.744  14.671  0.00  0.00    +0.000 C 
ATOM     15  O   UNL     1       7.513   5.672  15.680  0.00  0.00    +0.000 OA
ENDBRANCH  12  15
ENDBRANCH   6  12
ENDBRANCH   1   9
BRANCH   2  16
ATOM     16  O   UNL     1       0.789   9.464  18.690  0.00  0.00    +0.000 OA
BRANCH  16  17
ATOM     17  C   UNL     1       0.960  10.825  18.644  0.00  0.00    +0.000 A 
ATOM     18  C   UNL     1      -0.109  11.604  19.082  0.00  0.00    +0.000 A 
ATOM     19  C   UNL     1       0.000  12.997  19.096  0.00  0.00    +0.000 A 
ATOM     20  C   UNL     1       1.185  13.618  18.696  0.00  0.00    +0.000 A 
ATOM     21  C   UNL     1       2.253  12.836  18.256  0.00  0.00    +0.000 A 
ATOM     22  C   UNL     1       2.143  11.444  18.236  0.00  0.00    +0.000 A 
BRANCH  20  23
ATOM     23  O   UNL     1       1.187  14.985  18.749  0.00  0.00    +0.000 OA
ATOM     24  C   UNL     1       1.857  15.553  19.872  0.00  0.00    +0.000 C 
ENDBRANCH  20  23
ENDBRANCH  16  17
ENDBRANCH   2  16
BRANCH   5  25
ATOM     25  C   UNL     1       1.673   5.661  20.996  0.00  0.00    +0.000 C 
BRANCH  25  26
ATOM     26  C   UNL     1       0.886   4.481  20.411  0.00  0.00    +0.000 C 
BRANCH  26  27
ATOM     27  C   UNL     1       1.771   3.522  19.655  0.00  0.00    +0.000 A 
ATOM     28  C   UNL     1       1.607   3.346  18.272  0.00  0.00    +0.000 A 
ATOM     29  C   UNL     1       2.419   2.450  17.578  0.00  0.00    +0.000 A 
ATOM     30  C   UNL     1       3.391   1.732  18.264  0.00  0.00    +0.000 A 
ATOM     31  F   UNL     1       4.168   0.871  17.596  0.00  0.00    +0.000 F 
ATOM     32  C   UNL     1       3.568   1.895  19.633  0.00  0.00    +0.000 A 
ATOM     33  C   UNL     1       2.757   2.790  20.331  0.00  0.00    +0.000 A 
ENDBRANCH  26  27
ENDBRANCH  25  26
ENDBRANCH   5  25
TORSDOF 9
ENDMDL
MODEL 7
REMARK VINA RESULT:      -7.6      0.997      1.026
REMARK  Name = 
REMARK  11 active torsions:
REMARK  status: ('A' for Active; 'I' for Inactive)
REMARK    1  A    between atoms: C_1  and  O_2
REMARK    2  A    between atoms: O_2  and  C_3
REMARK    3  A    between atoms: C_3  and  C_5
REMARK    4  A    between atoms: C_8  and  C_9
REMARK    5  A    between atoms: C_10  and  O_11
REMARK    6  A    between atoms: O_11  and  C_12
REMARK    7  A    between atoms: C_15  and  O_16
REMARK    8  A    between atoms: O_16  and  C_17
REMARK    9  A    between atoms: N_22  and  C_23
REMARK   10  A    between atoms: C_23  and  C_24
REMARK   11  A    between atoms: C_24  and  C_25
REMARK                            x       y       z     vdW  Elec       q    Type
REMARK                         _______ _______ _______ _____ _____    ______ ____
ROOT
ATOM      1  C   UNL     1       1.932   7.187  18.939  0.00  0.00    +0.000 C 
ATOM      2  C   UNL     1       1.813   8.690  19.358  0.00  0.00    +0.000 C 
ATOM      3  C   UNL     1       1.600   8.129  20.775  0.00  0.00    +0.000 C 
ATOM      4  O   UNL     1       1.604   8.577  21.901  0.00  0.00    +0.000 OA
ATOM      5  N   UNL     1       1.510   6.856  20.314  0.00  0.00    +0.000 N 
ENDROOT
BRANCH   1   9
ATOM      6  C   UNL     1       5.867   5.711  17.457  0.00  0.00    +0.000 A 
ATOM      7  C   UNL     1       5.084   6.551  16.661  0.00  0.00    +0.000 A 
ATOM      8  C   UNL     1       3.854   7.032  17.130  0.00  0.00    +0.000 A 
ATOM      9  C   UNL     1       3.356   6.699  18.406  0.00  0.00    +0.000 A 
ATOM     10  C   UNL     1       4.171   5.849  19.184  0.00  0.00    +0.000 A 
ATOM     11  C   UNL     1       5.404   5.361  18.726  0.00  0.00    +0.000 A 
BRANCH   6  12
ATOM     12  C   UNL     1       7.167   5.232  16.909  0.00  0.00    +0.000 C 
ATOM     13  O   UNL     1       7.931   4.510  17.532  0.00  0.00    +0.000 OA
BRANCH  12  15
ATOM     14  C   UNL     1       7.127   4.749  14.625  0.00  0.00    +0.000 C 
ATOM     15  O   UNL     1       7.370   5.709  15.656  0.00  0.00    +0.000 OA
ENDBRANCH  12  15
ENDBRANCH   6  12
ENDBRANCH   1   9
BRANCH   2  16
ATOM     16  O   UNL     1       0.700   9.445  18.816  0.00  0.00    +0.000 OA
BRANCH  16  17
ATOM     17  C   UNL     1       0.589  10.758  19.200  0.00  0.00    +0.000 A 
ATOM     18  C   UNL     1       1.546  11.638  18.700  0.00  0.00    +0.000 A 
ATOM     19  C   UNL     1       1.481  12.997  19.018  0.00  0.00    +0.000 A 
ATOM     20  C   UNL     1       0.446  13.488  19.816  0.00  0.00    +0.000 A 
ATOM     21  C   UNL     1      -0.511  12.604  20.317  0.00  0.00    +0.000 A 
ATOM     22  C   UNL     1      -0.443  11.245  20.003  0.00  0.00    +0.000 A 
BRANCH  20  23
ATOM     23  O   UNL     1       0.474  14.832  20.066  0.00  0.00    +0.000 OA
ATOM     24  C   UNL     1      -0.059  15.232  21.326  0.00  0.00    +0.000 C 
ENDBRANCH  20  23
ENDBRANCH  16  17
ENDBRANCH   2  16
BRANCH   5  25
ATOM     25  C   UNL     1       1.716   5.631  21.050  0.00  0.00    +0.000 C 
BRANCH  25  26
ATOM     26  C   UNL     1       0.927   4.449  20.475  0.00  0.00    +0.000 C 
BRANCH  26  27
ATOM     27  C   UNL     1       1.798   3.519  19.668  0.00  0.00    +0.000 A 
ATOM     28  C   UNL     1       2.838   2.806  20.286  0.00  0.00    +0.000 A 
ATOM     29  C   UNL     1       3.649   1.956  19.535  0.00  0.00    +0.000 A 
ATOM     30  C   UNL     1       3.423   1.821  18.170  0.00  0.00    +0.000 A 
ATOM     31  F   UNL     1       4.204   1.006  17.451  0.00  0.00    +0.000 F 
ATOM     32  C   UNL     1       2.398   2.519  17.542  0.00  0.00    +0.000 A 
ATOM     33  C   UNL     1       1.585   3.370  18.290  0.00  0.00    +0.000 A 
ENDBRANCH  26  27
ENDBRANCH  25  26
ENDBRANCH   5  25
TORSDOF 9
ENDMDL
MODEL 8
REMARK VINA RESULT:      -7.6      0.636      1.361
REMARK  Name = 
REMARK  11 active torsions:
REMARK  status: ('A' for Active; 'I' for Inactive)
REMARK    1  A    between atoms: C_1  and  O_2
REMARK    2  A    between atoms: O_2  and  C_3
REMARK    3  A    between atoms: C_3  and  C_5
REMARK    4  A    between atoms: C_8  and  C_9
REMARK    5  A    between atoms: C_10  and  O_11
REMARK    6  A    between atoms: O_11  and  C_12
REMARK    7  A    between atoms: C_15  and  O_16
REMARK    8  A    between atoms: O_16  and  C_17
REMARK    9  A    between atoms: N_22  and  C_23
REMARK   10  A    between atoms: C_23  and  C_24
REMARK   11  A    between atoms: C_24  and  C_25
REMARK                            x       y       z     vdW  Elec       q    Type
REMARK                         _______ _______ _______ _____ _____    ______ ____
ROOT
ATOM      1  C   UNL     1       2.021   7.056  18.389  0.00  0.00    +0.000 C 
ATOM      2  C   UNL     1       1.859   8.601  18.575  0.00  0.00    +0.000 C 
ATOM      3  C   UNL     1       1.794   8.269  20.075  0.00  0.00    +0.000 C 
ATOM      4  O   UNL     1       1.867   8.892  21.112  0.00  0.00    +0.000 OA
ATOM      5  N   UNL     1       1.732   6.935  19.831  0.00  0.00    +0.000 N 
ENDROOT
BRANCH   1   9
ATOM      6  C   UNL     1       5.870   5.602  16.676  0.00  0.00    +0.000 A 
ATOM      7  C   UNL     1       5.746   6.925  17.109  0.00  0.00    +0.000 A 
ATOM      8  C   UNL     1       4.544   7.382  17.664  0.00  0.00    +0.000 A 
ATOM      9  C   UNL     1       3.419   6.544  17.813  0.00  0.00    +0.000 A 
ATOM     10  C   UNL     1       3.578   5.214  17.366  0.00  0.00    +0.000 A 
ATOM     11  C   UNL     1       4.777   4.745  16.807  0.00  0.00    +0.000 A 
BRANCH   6  12
ATOM     12  C   UNL     1       7.173   5.170  16.096  0.00  0.00    +0.000 C 
ATOM     13  O   UNL     1       7.572   5.537  15.001  0.00  0.00    +0.000 OA
BRANCH  12  15
ATOM     14  C   UNL     1       7.918   4.814  18.280  0.00  0.00    +0.000 C 
ATOM     15  O   UNL     1       7.824   4.329  16.938  0.00  0.00    +0.000 OA
ENDBRANCH  12  15
ENDBRANCH   6  12
ENDBRANCH   1   9
BRANCH   2  16
ATOM     16  O   UNL     1       0.668   9.216  18.023  0.00  0.00    +0.000 OA
BRANCH  16  17
ATOM     17  C   UNL     1       0.361  10.483  18.452  0.00  0.00    +0.000 A 
ATOM     18  C   UNL     1      -0.972  10.728  18.774  0.00  0.00    +0.000 A 
ATOM     19  C   UNL     1      -1.358  11.985  19.249  0.00  0.00    +0.000 A 
ATOM     20  C   UNL     1      -0.410  12.994  19.429  0.00  0.00    +0.000 A 
ATOM     21  C   UNL     1       0.924  12.746  19.106  0.00  0.00    +0.000 A 
ATOM     22  C   UNL     1       1.309  11.493  18.625  0.00  0.00    +0.000 A 
BRANCH  20  23
ATOM     23  O   UNL     1      -0.892  14.184  19.901  0.00  0.00    +0.000 OA
ATOM     24  C   UNL     1      -0.401  15.348  19.241  0.00  0.00    +0.000 C 
ENDBRANCH  20  23
ENDBRANCH  16  17
ENDBRANCH   2  16
BRANCH   5  25
ATOM     25  C   UNL     1       2.062   5.854  20.728  0.00  0.00    +0.000 C 
BRANCH  25  26
ATOM     26  C   UNL     1       1.219   4.596  20.485  0.00  0.00    +0.000 C 
BRANCH  26  27
ATOM     27  C   UNL     1       1.999   3.514  19.781  0.00  0.00    +0.000 A 
ATOM     28  C   UNL     1       3.278   3.154  20.233  0.00  0.00    +0.000 A 
ATOM     29  C   UNL     1       4.002   2.161  19.573  0.00  0.00    +0.000 A 
ATOM     30  C   UNL     1       3.448   1.530  18.465  0.00  0.00    +0.000 A 
ATOM     31  F   UNL     1       4.144   0.579  17.832  0.00  0.00    +0.000 F 
ATOM     32  C   UNL     1       2.182   1.874  18.005  0.00  0.00    +0.000 A 
ATOM     33  C   UNL     1       1.456   2.867  18.662  0.00  0.00    +0.000 A 
ENDBRANCH  26  27
ENDBRANCH  25  26
ENDBRANCH   5  25
TORSDOF 9
ENDMDL
MODEL 9
REMARK VINA RESULT:      -7.5      1.064      1.897
REMARK  Name = 
REMARK  11 active torsions:
REMARK  status: ('A' for Active; 'I' for Inactive)
REMARK    1  A    between atoms: C_1  and  O_2
REMARK    2  A    between atoms: O_2  and  C_3
REMARK    3  A    between atoms: C_3  and  C_5
REMARK    4  A    between atoms: C_8  and  C_9
REMARK    5  A    between atoms: C_10  and  O_11
REMARK    6  A    between atoms: O_11  and  C_12
REMARK    7  A    between atoms: C_15  and  O_16
REMARK    8  A    between atoms: O_16  and  C_17
REMARK    9  A    between atoms: N_22  and  C_23
REMARK   10  A    between atoms: C_23  and  C_24
REMARK   11  A    between atoms: C_24  and  C_25
REMARK                            x       y       z     vdW  Elec       q    Type
REMARK                         _______ _______ _______ _____ _____    ______ ____
ROOT
ATOM      1  C   UNL     1       2.058   6.965  18.793  0.00  0.00    +0.000 C 
ATOM      2  C   UNL     1       2.006   8.502  19.083  0.00  0.00    +0.000 C 
ATOM      3  C   UNL     1       1.638   8.075  20.514  0.00  0.00    +0.000 C 
ATOM      4  O   UNL     1       1.578   8.614  21.598  0.00  0.00    +0.000 OA
ATOM      5  N   UNL     1       1.501   6.775  20.147  0.00  0.00    +0.000 N 
ENDROOT
BRANCH   1   9
ATOM      6  C   UNL     1       6.085   5.358  17.764  0.00  0.00    +0.000 A 
ATOM      7  C   UNL     1       5.507   5.070  19.003  0.00  0.00    +0.000 A 
ATOM      8  C   UNL     1       4.233   5.558  19.324  0.00  0.00    +0.000 A 
ATOM      9  C   UNL     1       3.485   6.349  18.428  0.00  0.00    +0.000 A 
ATOM     10  C   UNL     1       4.098   6.622  17.186  0.00  0.00    +0.000 A 
ATOM     11  C   UNL     1       5.373   6.139  16.853  0.00  0.00    +0.000 A 
BRANCH   6  12
ATOM     12  C   UNL     1       7.440   4.810  17.475  0.00  0.00    +0.000 C 
ATOM     13  O   UNL     1       7.838   4.569  16.346  0.00  0.00    +0.000 OA
BRANCH  12  15
ATOM     14  C   UNL     1       8.323   5.810  19.392  0.00  0.00    +0.000 C 
ATOM     15  O   UNL     1       8.140   4.620  18.621  0.00  0.00    +0.000 OA
ENDBRANCH  12  15
ENDBRANCH   6  12
ENDBRANCH   1   9
BRANCH   2  16
ATOM     16  O   UNL     1       0.997   9.275  18.387  0.00  0.00    +0.000 OA
BRANCH  16  17
ATOM     17  C   UNL     1       1.114  10.642  18.433  0.00  0.00    +0.000 A 
ATOM     18  C   UNL     1      -0.003  11.351  18.869  0.00  0.00    +0.000 A 
ATOM     19  C   UNL     1       0.049  12.744  18.974  0.00  0.00    +0.000 A 
ATOM     20  C   UNL     1       1.224  13.433  18.668  0.00  0.00    +0.000 A 
ATOM     21  C   UNL     1       2.341  12.721  18.230  0.00  0.00    +0.000 A 
ATOM     22  C   UNL     1       2.288  11.330  18.119  0.00  0.00    +0.000 A 
BRANCH  20  23
ATOM     23  O   UNL     1       1.169  14.792  18.806  0.00  0.00    +0.000 OA
ATOM     24  C   UNL     1      -0.140  15.357  18.793  0.00  0.00    +0.000 C 
ENDBRANCH  20  23
ENDBRANCH  16  17
ENDBRANCH   2  16
BRANCH   5  25
ATOM     25  C   UNL     1       1.561   5.606  20.990  0.00  0.00    +0.000 C 
BRANCH  25  26
ATOM     26  C   UNL     1       0.795   4.410  20.411  0.00  0.00    +0.000 C 
BRANCH  26  27
ATOM     27  C   UNL     1       1.701   3.452  19.678  0.00  0.00    +0.000 A 
ATOM     28  C   UNL     1       1.534   3.231  18.302  0.00  0.00    +0.000 A 
ATOM     29  C   UNL     1       2.365   2.335  17.629  0.00  0.00    +0.000 A 
ATOM     30  C   UNL     1       3.359   1.663  18.330  0.00  0.00    +0.000 A 
ATOM     31  F   UNL     1       4.155   0.803  17.684  0.00  0.00    +0.000 F 
ATOM     32  C   UNL     1       3.539   1.872  19.692  0.00  0.00    +0.000 A 
ATOM     33  C   UNL     1       2.709   2.766  20.369  0.00  0.00    +0.000 A 
ENDBRANCH  26  27
ENDBRANCH  25  26
ENDBRANCH   5  25
TORSDOF 9
ENDMDL
