MODEL 1
REMARK VINA RESULT:      -5.9      0.000      0.000
REMARK  Name = 
REMARK  4 active torsions:
REMARK  status: ('A' for Active; 'I' for Inactive)
REMARK    1  A    between atoms: C_2  and  C_3
REMARK    2  A    between atoms: C_2  and  C_4
REMARK    3  A    between atoms: C_4  and  N_5
REMARK    4  A    between atoms: C_8  and  C_9
REMARK                            x       y       z     vdW  Elec       q    Type
REMARK                         _______ _______ _______ _____ _____    ______ ____
ROOT
ATOM      1  N   UNL     1       4.015   4.825  18.456  0.00  0.00    +0.000 NA
ATOM      2  C   UNL     1       5.273   4.324  19.035  0.00  0.00    +0.000 C 
ATOM      3  C   UNL     1       6.332   5.423  19.192  0.00  0.00    +0.000 C 
ATOM      4  C   UNL     1       6.630   6.116  17.861  0.00  0.00    +0.000 C 
ATOM      5  C   UNL     1       5.318   6.648  17.291  0.00  0.00    +0.000 C 
ATOM      6  C   UNL     1       4.253   5.554  17.191  0.00  0.00    +0.000 C 
ENDROOT
BRANCH   4   7
ATOM      7  C   UNL     1       7.356   5.198  16.873  0.00  0.00    +0.000 C 
ATOM      8  N   UNL     1       7.209   5.523  15.555  0.00  0.00    +0.000 N 
ATOM      9  O   UNL     1       8.013   4.215  17.189  0.00  0.00    +0.000 OA
ATOM     10  H   UNL     1       6.489   6.152  15.232  0.00  0.00    +0.000 HD
ATOM     11  H   UNL     1       7.623   4.888  14.883  0.00  0.00    +0.000 HD
ENDBRANCH   4   7
BRANCH   1  12
ATOM     12  C   UNL     1       3.089   3.710  18.152  0.00  0.00    +0.000 C 
BRANCH  12  14
ATOM     13  C   UNL     1       1.576   4.496  19.976  0.00  0.00    +0.000 C 
ATOM     14  C   UNL     1       1.827   3.622  18.985  0.00  0.00    +0.000 C 
ATOM     15  C   UNL     1       0.922   2.447  18.743  0.00  0.00    +0.000 C 
ENDBRANCH  12  14
ENDBRANCH   1  12
TORSDOF 3
ENDMDL
MODEL 2
REMARK VINA RESULT:      -5.9      1.272      1.790
REMARK  Name = 
REMARK  4 active torsions:
REMARK  status: ('A' for Active; 'I' for Inactive)
REMARK    1  A    between atoms: C_2  and  C_3
REMARK    2  A    between atoms: C_2  and  C_4
REMARK    3  A    between atoms: C_4  and  N_5
REMARK    4  A    between atoms: C_8  and  C_9
REMARK                            x       y       z     vdW  Elec       q    Type
REMARK                         _______ _______ _______ _____ _____    ______ ____
ROOT
ATOM      1  N   UNL     1       3.724   4.685  17.684  0.00  0.00    +0.000 NA
ATOM      2  C   UNL     1       4.323   6.029  17.763  0.00  0.00    +0.000 C 
ATOM      3  C   UNL     1       4.791   6.549  16.397  0.00  0.00    +0.000 C 
ATOM      4  C   UNL     1       5.785   5.591  15.738  0.00  0.00    +0.000 C 
ATOM      5  C   UNL     1       5.137   4.214  15.644  0.00  0.00    +0.000 C 
ATOM      6  C   UNL     1       4.625   3.730  17.002  0.00  0.00    +0.000 C 
ENDROOT
BRANCH   4   7
ATOM      7  C   UNL     1       7.130   5.546  16.470  0.00  0.00    +0.000 C 
ATOM      8  N   UNL     1       7.614   6.755  16.880  0.00  0.00    +0.000 N 
ATOM      9  O   UNL     1       7.777   4.528  16.676  0.00  0.00    +0.000 OA
ATOM     10  H   UNL     1       7.258   7.628  16.521  0.00  0.00    +0.000 HD
ATOM     11  H   UNL     1       8.535   6.754  17.303  0.00  0.00    +0.000 HD
ENDBRANCH   4   7
BRANCH   1  12
ATOM     12  C   UNL     1       3.453   4.146  19.036  0.00  0.00    +0.000 C 
BRANCH  12  14
ATOM     13  C   UNL     1       1.505   4.789  20.458  0.00  0.00    +0.000 C 
ATOM     14  C   UNL     1       2.001   4.044  19.454  0.00  0.00    +0.000 C 
ATOM     15  C   UNL     1       1.163   2.990  18.787  0.00  0.00    +0.000 C 
ENDBRANCH  12  14
ENDBRANCH   1  12
TORSDOF 3
ENDMDL
MODEL 3
REMARK VINA RESULT:      -5.8      2.552      5.329
REMARK  Name = 
REMARK  4 active torsions:
REMARK  status: ('A' for Active; 'I' for Inactive)
REMARK    1  A    between atoms: C_2  and  C_3
REMARK    2  A    between atoms: C_2  and  C_4
REMARK    3  A    between atoms: C_4  and  N_5
REMARK    4  A    between atoms: C_8  and  C_9
REMARK                            x       y       z     vdW  Elec       q    Type
REMARK                         _______ _______ _______ _____ _____    ______ ____
ROOT
ATOM      1  N   UNL     1       4.502   4.643  18.168  0.00  0.00    +0.000 NA
ATOM      2  C   UNL     1       4.043   3.281  17.845  0.00  0.00    +0.000 C 
ATOM      3  C   UNL     1       2.655   3.264  17.191  0.00  0.00    +0.000 C 
ATOM      4  C   UNL     1       1.608   3.955  18.067  0.00  0.00    +0.000 C 
ATOM      5  C   UNL     1       2.091   5.370  18.369  0.00  0.00    +0.000 C 
ATOM      6  C   UNL     1       3.499   5.377  18.970  0.00  0.00    +0.000 C 
ENDROOT
BRANCH   4   7
ATOM      7  C   UNL     1       1.301   3.167  19.344  0.00  0.00    +0.000 C 
ATOM      8  N   UNL     1       0.657   3.867  20.323  0.00  0.00    +0.000 N 
ATOM      9  O   UNL     1       1.611   1.998  19.534  0.00  0.00    +0.000 OA
ATOM     10  H   UNL     1       0.608   4.875  20.321  0.00  0.00    +0.000 HD
ATOM     11  H   UNL     1       0.509   3.384  21.201  0.00  0.00    +0.000 HD
ENDBRANCH   4   7
BRANCH   1  12
ATOM     12  C   UNL     1       5.754   4.607  18.957  0.00  0.00    +0.000 C 
BRANCH  12  14
ATOM     13  C   UNL     1       7.737   6.119  18.831  0.00  0.00    +0.000 C 
ATOM     14  C   UNL     1       7.004   5.133  18.282  0.00  0.00    +0.000 C 
ATOM     15  C   UNL     1       7.328   4.598  16.916  0.00  0.00    +0.000 C 
ENDBRANCH  12  14
ENDBRANCH   1  12
TORSDOF 3
ENDMDL
MODEL 4
REMARK VINA RESULT:      -5.8      2.671      5.528
REMARK  Name = 
REMARK  4 active torsions:
REMARK  status: ('A' for Active; 'I' for Inactive)
REMARK    1  A    between atoms: C_2  and  C_3
REMARK    2  A    between atoms: C_2  and  C_4
REMARK    3  A    between atoms: C_4  and  N_5
REMARK    4  A    between atoms: C_8  and  C_9
REMARK                            x       y       z     vdW  Elec       q    Type
REMARK                         _______ _______ _______ _____ _____    ______ ____
ROOT
ATOM      1  N   UNL     1       4.499   4.296  18.435  0.00  0.00    +0.000 NA
ATOM      2  C   UNL     1       4.026   3.081  19.121  0.00  0.00    +0.000 C 
ATOM      3  C   UNL     1       2.686   2.573  18.572  0.00  0.00    +0.000 C 
ATOM      4  C   UNL     1       1.601   3.650  18.646  0.00  0.00    +0.000 C 
ATOM      5  C   UNL     1       2.101   4.888  17.909  0.00  0.00    +0.000 C 
ATOM      6  C   UNL     1       3.463   5.352  18.428  0.00  0.00    +0.000 C 
ENDROOT
BRANCH   4   7
ATOM      7  C   UNL     1       1.186   3.965  20.086  0.00  0.00    +0.000 C 
ATOM      8  N   UNL     1       0.801   2.889  20.833  0.00  0.00    +0.000 N 
ATOM      9  O   UNL     1       1.157   5.087  20.573  0.00  0.00    +0.000 OA
ATOM     10  H   UNL     1       0.567   2.000  20.417  0.00  0.00    +0.000 HD
ATOM     11  H   UNL     1       0.456   3.086  21.765  0.00  0.00    +0.000 HD
ENDBRANCH   4   7
BRANCH   1  12
ATOM     12  C   UNL     1       5.693   4.855  19.108  0.00  0.00    +0.000 C 
BRANCH  12  14
ATOM     13  C   UNL     1       7.105   4.573  17.068  0.00  0.00    +0.000 C 
ATOM     14  C   UNL     1       6.870   5.217  18.226  0.00  0.00    +0.000 C 
ATOM     15  C   UNL     1       7.838   6.239  18.752  0.00  0.00    +0.000 C 
ENDBRANCH  12  14
ENDBRANCH   1  12
TORSDOF 3
ENDMDL
MODEL 5
REMARK VINA RESULT:      -5.8      1.446      1.863
REMARK  Name = 
REMARK  4 active torsions:
REMARK  status: ('A' for Active; 'I' for Inactive)
REMARK    1  A    between atoms: C_2  and  C_3
REMARK    2  A    between atoms: C_2  and  C_4
REMARK    3  A    between atoms: C_4  and  N_5
REMARK    4  A    between atoms: C_8  and  C_9
REMARK                            x       y       z     vdW  Elec       q    Type
REMARK                         _______ _______ _______ _____ _____    ______ ____
ROOT
ATOM      1  N   UNL     1       3.512   4.200  18.836  0.00  0.00    +0.000 NA
ATOM      2  C   UNL     1       4.397   5.331  19.163  0.00  0.00    +0.000 C 
ATOM      3  C   UNL     1       4.824   6.127  17.923  0.00  0.00    +0.000 C 
ATOM      4  C   UNL     1       5.509   5.233  16.887  0.00  0.00    +0.000 C 
ATOM      5  C   UNL     1       4.567   4.083  16.544  0.00  0.00    +0.000 C 
ATOM      6  C   UNL     1       4.105   3.332  17.795  0.00  0.00    +0.000 C 
ENDROOT
BRANCH   4   7
ATOM      7  C   UNL     1       6.879   4.735  17.357  0.00  0.00    +0.000 C 
ATOM      8  N   UNL     1       7.778   4.469  16.365  0.00  0.00    +0.000 N 
ATOM      9  O   UNL     1       7.188   4.546  18.526  0.00  0.00    +0.000 OA
ATOM     10  H   UNL     1       7.500   4.364  15.400  0.00  0.00    +0.000 HD
ATOM     11  H   UNL     1       8.664   4.071  16.652  0.00  0.00    +0.000 HD
ENDBRANCH   4   7
BRANCH   1  12
ATOM     12  C   UNL     1       3.270   3.354  20.027  0.00  0.00    +0.000 C 
BRANCH  12  14
ATOM     13  C   UNL     1       1.061   4.467  20.371  0.00  0.00    +0.000 C 
ATOM     14  C   UNL     1       1.912   3.473  20.687  0.00  0.00    +0.000 C 
ATOM     15  C   UNL     1       1.597   2.511  21.798  0.00  0.00    +0.000 C 
ENDBRANCH  12  14
ENDBRANCH   1  12
TORSDOF 3
ENDMDL
MODEL 6
REMARK VINA RESULT:      -5.7      1.554      1.827
REMARK  Name = 
REMARK  4 active torsions:
REMARK  status: ('A' for Active; 'I' for Inactive)
REMARK    1  A    between atoms: C_2  and  C_3
REMARK    2  A    between atoms: C_2  and  C_4
REMARK    3  A    between atoms: C_4  and  N_5
REMARK    4  A    between atoms: C_8  and  C_9
REMARK                            x       y       z     vdW  Elec       q    Type
REMARK                         _______ _______ _______ _____ _____    ______ ____
ROOT
ATOM      1  N   UNL     1       3.531   3.974  18.689  0.00  0.00    +0.000 NA
ATOM      2  C   UNL     1       4.316   5.043  19.330  0.00  0.00    +0.000 C 
ATOM      3  C   UNL     1       4.828   6.085  18.326  0.00  0.00    +0.000 C 
ATOM      4  C   UNL     1       5.664   5.440  17.219  0.00  0.00    +0.000 C 
ATOM      5  C   UNL     1       4.826   4.354  16.553  0.00  0.00    +0.000 C 
ATOM      6  C   UNL     1       4.275   3.353  17.572  0.00  0.00    +0.000 C 
ENDROOT
BRANCH   4   7
ATOM      7  C   UNL     1       7.002   4.901  17.734  0.00  0.00    +0.000 C 
ATOM      8  N   UNL     1       7.786   4.290  16.798  0.00  0.00    +0.000 N 
ATOM      9  O   UNL     1       7.377   4.963  18.897  0.00  0.00    +0.000 OA
ATOM     10  H   UNL     1       7.425   3.990  15.905  0.00  0.00    +0.000 HD
ATOM     11  H   UNL     1       8.642   3.864  17.133  0.00  0.00    +0.000 HD
ENDBRANCH   4   7
BRANCH   1  12
ATOM     12  C   UNL     1       3.212   2.899  19.656  0.00  0.00    +0.000 C 
BRANCH  12  14
ATOM     13  C   UNL     1       2.006   2.638  21.826  0.00  0.00    +0.000 C 
ATOM     14  C   UNL     1       2.032   3.134  20.576  0.00  0.00    +0.000 C 
ATOM     15  C   UNL     1       0.836   3.839  19.998  0.00  0.00    +0.000 C 
ENDBRANCH  12  14
ENDBRANCH   1  12
TORSDOF 3
ENDMDL
MODEL 7
REMARK VINA RESULT:      -5.7      0.254      1.004
REMARK  Name = 
REMARK  4 active torsions:
REMARK  status: ('A' for Active; 'I' for Inactive)
REMARK    1  A    between atoms: C_2  and  C_3
REMARK    2  A    between atoms: C_2  and  C_4
REMARK    3  A    between atoms: C_4  and  N_5
REMARK    4  A    between atoms: C_8  and  C_9
REMARK                            x       y       z     vdW  Elec       q    Type
REMARK                         _______ _______ _______ _____ _____    ______ ____
ROOT
ATOM      1  N   UNL     1       3.947   4.626  18.572  0.00  0.00    +0.000 NA
ATOM      2  C   UNL     1       5.277   4.210  19.047  0.00  0.00    +0.000 C 
ATOM      3  C   UNL     1       6.262   5.382  19.154  0.00  0.00    +0.000 C 
ATOM      4  C   UNL     1       6.409   6.120  17.821  0.00  0.00    +0.000 C 
ATOM      5  C   UNL     1       5.024   6.563  17.360  0.00  0.00    +0.000 C 
ATOM      6  C   UNL     1       4.038   5.394  17.311  0.00  0.00    +0.000 C 
ENDROOT
BRANCH   4   7
ATOM      7  C   UNL     1       7.126   5.278  16.762  0.00  0.00    +0.000 C 
ATOM      8  N   UNL     1       6.810   5.573  15.467  0.00  0.00    +0.000 N 
ATOM      9  O   UNL     1       7.915   4.375  17.006  0.00  0.00    +0.000 OA
ATOM     10  H   UNL     1       5.997   6.117  15.221  0.00  0.00    +0.000 HD
ATOM     11  H   UNL     1       7.220   4.980  14.755  0.00  0.00    +0.000 HD
ENDBRANCH   4   7
BRANCH   1  12
ATOM     12  C   UNL     1       3.086   3.451  18.310  0.00  0.00    +0.000 C 
BRANCH  12  14
ATOM     13  C   UNL     1       0.852   2.446  18.794  0.00  0.00    +0.000 C 
ATOM     14  C   UNL     1       1.791   3.362  19.092  0.00  0.00    +0.000 C 
ATOM     15  C   UNL     1       1.541   4.415  20.134  0.00  0.00    +0.000 C 
ENDBRANCH  12  14
ENDBRANCH   1  12
TORSDOF 3
ENDMDL
MODEL 8
REMARK VINA RESULT:      -5.7      2.753      5.430
REMARK  Name = 
REMARK  4 active torsions:
REMARK  status: ('A' for Active; 'I' for Inactive)
REMARK    1  A    between atoms: C_2  and  C_3
REMARK    2  A    between atoms: C_2  and  C_4
REMARK    3  A    between atoms: C_4  and  N_5
REMARK    4  A    between atoms: C_8  and  C_9
REMARK                            x       y       z     vdW  Elec       q    Type
REMARK                         _______ _______ _______ _____ _____    ______ ____
ROOT
ATOM      1  N   UNL     1       3.891   3.887  17.780  0.00  0.00    +0.000 NA
ATOM      2  C   UNL     1       4.107   3.042  18.968  0.00  0.00    +0.000 C 
ATOM      3  C   UNL     1       2.911   2.130  19.271  0.00  0.00    +0.000 C 
ATOM      4  C   UNL     1       1.619   2.931  19.450  0.00  0.00    +0.000 C 
ATOM      5  C   UNL     1       1.402   3.779  18.200  0.00  0.00    +0.000 C 
ATOM      6  C   UNL     1       2.623   4.643  17.877  0.00  0.00    +0.000 C 
ENDROOT
BRANCH   4   7
ATOM      7  C   UNL     1       1.627   3.777  20.726  0.00  0.00    +0.000 C 
ATOM      8  N   UNL     1       2.049   3.134  21.853  0.00  0.00    +0.000 N 
ATOM      9  O   UNL     1       1.264   4.945  20.790  0.00  0.00    +0.000 OA
ATOM     10  H   UNL     1       2.113   2.128  21.907  0.00  0.00    +0.000 HD
ATOM     11  H   UNL     1       1.994   3.655  22.720  0.00  0.00    +0.000 HD
ENDBRANCH   4   7
BRANCH   1  12
ATOM     12  C   UNL     1       4.981   4.876  17.627  0.00  0.00    +0.000 C 
BRANCH  12  14
ATOM     13  C   UNL     1       7.446   4.601  17.341  0.00  0.00    +0.000 C 
ATOM     14  C   UNL     1       6.205   4.431  16.852  0.00  0.00    +0.000 C 
ATOM     15  C   UNL     1       5.987   3.904  15.462  0.00  0.00    +0.000 C 
ENDBRANCH  12  14
ENDBRANCH   1  12
TORSDOF 3
ENDMDL
MODEL 9
REMARK VINA RESULT:      -5.7      2.545      5.449
REMARK  Name = 
REMARK  4 active torsions:
REMARK  status: ('A' for Active; 'I' for Inactive)
REMARK    1  A    between atoms: C_2  and  C_3
REMARK    2  A    between atoms: C_2  and  C_4
REMARK    3  A    between atoms: C_4  and  N_5
REMARK    4  A    between atoms: C_8  and  C_9
REMARK                            x       y       z     vdW  Elec       q    Type
REMARK                         _______ _______ _______ _____ _____    ______ ____
ROOT
ATOM      1  N   UNL     1       3.957   4.398  17.538  0.00  0.00    +0.000 NA
ATOM      2  C   UNL     1       4.013   3.039  18.104  0.00  0.00    +0.000 C 
ATOM      3  C   UNL     1       2.744   2.225  17.817  0.00  0.00    +0.000 C 
ATOM      4  C   UNL     1       1.489   2.933  18.330  0.00  0.00    +0.000 C 
ATOM      5  C   UNL     1       1.438   4.328  17.714  0.00  0.00    +0.000 C 
ATOM      6  C   UNL     1       2.730   5.109  17.960  0.00  0.00    +0.000 C 
ENDROOT
BRANCH   4   7
ATOM      7  C   UNL     1       1.426   2.978  19.860  0.00  0.00    +0.000 C 
ATOM      8  N   UNL     1       0.595   3.926  20.384  0.00  0.00    +0.000 N 
ATOM      9  O   UNL     1       2.073   2.255  20.606  0.00  0.00    +0.000 OA
ATOM     10  H   UNL     1       0.244   4.697  19.836  0.00  0.00    +0.000 HD
ATOM     11  H   UNL     1       0.593   4.019  21.393  0.00  0.00    +0.000 HD
ENDBRANCH   4   7
BRANCH   1  12
ATOM     12  C   UNL     1       5.111   5.208  17.988  0.00  0.00    +0.000 C 
BRANCH  12  14
ATOM     13  C   UNL     1       5.357   6.106  15.671  0.00  0.00    +0.000 C 
ATOM     14  C   UNL     1       5.789   6.072  16.945  0.00  0.00    +0.000 C 
ATOM     15  C   UNL     1       7.039   6.798  17.356  0.00  0.00    +0.000 C 
ENDBRANCH  12  14
ENDBRANCH   1  12
TORSDOF 3
ENDMDL
