MODEL 1
REMARK VINA RESULT:      -7.6      0.000      0.000
REMARK  Name = 
REMARK  7 active torsions:
REMARK  status: ('A' for Active; 'I' for Inactive)
REMARK    1  A    between atoms: C_1  and  C_2
REMARK    2  A    between atoms: C_2  and  C_3
REMARK    3  A    between atoms: C_11  and  O_12
REMARK    4  A    between atoms: O_12  and  C_13
REMARK    5  A    between atoms: C_13  and  C_14
REMARK    6  A    between atoms: C_17  and  C_18
REMARK    7  A    between atoms: C_18  and  O_20
REMARK                            x       y       z     vdW  Elec       q    Type
REMARK                         _______ _______ _______ _____ _____    ______ ____
ROOT
ATOM      1  C   UNL     1       3.329  14.182  20.175  0.00  0.00    +0.000 C 
ATOM      2  C   UNL     1       1.875  14.075  19.668  0.00  0.00    +0.000 C 
ATOM      3  C   UNL     1       1.828  13.197  18.396  0.00  0.00    +0.000 C 
ATOM      4  C   UNL     1       1.546  11.828  18.918  0.00  0.00    +0.000 A 
ATOM      5  C   UNL     1       1.686  10.651  18.207  0.00  0.00    +0.000 A 
ATOM      6  C   UNL     1       1.389   9.445  18.838  0.00  0.00    +0.000 A 
ATOM      7  C   UNL     1       0.852   9.445  20.155  0.00  0.00    +0.000 A 
ATOM      8 CL   UNL     1       0.444   7.922  20.886  0.00  0.00    +0.000 Cl
ATOM      9  C   UNL     1       0.683  10.655  20.859  0.00  0.00    +0.000 A 
ATOM     10 CL   UNL     1       0.060  10.683  22.469  0.00  0.00    +0.000 Cl
ATOM     11  C   UNL     1       1.060  11.827  20.223  0.00  0.00    +0.000 A 
ATOM     12  C   UNL     1       1.117  13.218  20.694  0.00  0.00    +0.000 C 
ATOM     13  O   UNL     1       0.693  13.609  21.766  0.00  0.00    +0.000 OA
ENDROOT
BRANCH   2  14
ATOM     14  C   UNL     1       1.278  15.490  19.472  0.00  0.00    +0.000 C 
ATOM     15  C   UNL     1       2.112  16.437  18.594  0.00  0.00    +0.000 C 
ATOM     16  C   UNL     1       1.156  17.573  18.263  0.00  0.00    +0.000 C 
ATOM     17  C   UNL     1      -0.238  16.953  18.249  0.00  0.00    +0.000 C 
ATOM     18  C   UNL     1      -0.093  15.533  18.788  0.00  0.00    +0.000 C 
ENDBRANCH   2  14
BRANCH   6  19
ATOM     19  O   UNL     1       1.593   8.231  18.226  0.00  0.00    +0.000 OA
BRANCH  19  20
ATOM     20  C   UNL     1       2.970   7.884  18.017  0.00  0.00    +0.000 C 
BRANCH  20  21
ATOM     21  C   UNL     1       3.213   6.405  18.204  0.00  0.00    +0.000 A 
ATOM     22  C   UNL     1       4.429   5.983  18.762  0.00  0.00    +0.000 A 
ATOM     23  C   UNL     1       4.663   4.630  19.009  0.00  0.00    +0.000 A 
ATOM     24  C   UNL     1       3.680   3.684  18.704  0.00  0.00    +0.000 A 
ATOM     25  C   UNL     1       2.448   4.100  18.184  0.00  0.00    +0.000 A 
ATOM     26  C   UNL     1       2.221   5.455  17.934  0.00  0.00    +0.000 A 
BRANCH  24  27
ATOM     27  C   UNL     1       3.968   2.258  18.997  0.00  0.00    +0.000 C 
ATOM     28  O   UNL     1       3.250   1.348  18.621  0.00  0.00    +0.000 OA
BRANCH  27  29
ATOM     29  O   UNL     1       5.067   2.071  19.758  0.00  0.00    +0.000 OA
ATOM     30  H   UNL     1       4.902   1.657  20.624  0.00  0.00    +0.000 HD
ENDBRANCH  27  29
ENDBRANCH  24  27
ENDBRANCH  20  21
ENDBRANCH  19  20
ENDBRANCH   6  19
TORSDOF 6
ENDMDL
MODEL 2
REMARK VINA RESULT:      -7.5      1.290      1.669
REMARK  Name = 
REMARK  7 active torsions:
REMARK  status: ('A' for Active; 'I' for Inactive)
REMARK    1  A    between atoms: C_1  and  C_2
REMARK    2  A    between atoms: C_2  and  C_3
REMARK    3  A    between atoms: C_11  and  O_12
REMARK    4  A    between atoms: O_12  and  C_13
REMARK    5  A    between atoms: C_13  and  C_14
REMARK    6  A    between atoms: C_17  and  C_18
REMARK    7  A    between atoms: C_18  and  O_20
REMARK                            x       y       z     vdW  Elec       q    Type
REMARK                         _______ _______ _______ _____ _____    ______ ____
ROOT
ATOM      1  C   UNL     1       3.074  15.412  20.009  0.00  0.00    +0.000 C 
ATOM      2  C   UNL     1       1.675  15.270  19.373  0.00  0.00    +0.000 C 
ATOM      3  C   UNL     1       1.688  14.126  18.331  0.00  0.00    +0.000 C 
ATOM      4  C   UNL     1       1.247  12.931  19.107  0.00  0.00    +0.000 A 
ATOM      5  C   UNL     1       1.365  11.617  18.698  0.00  0.00    +0.000 A 
ATOM      6  C   UNL     1       0.911  10.605  19.542  0.00  0.00    +0.000 A 
ATOM      7  C   UNL     1       0.246  10.937  20.754  0.00  0.00    +0.000 A 
ATOM      8 CL   UNL     1      -0.353   9.647  21.753  0.00  0.00    +0.000 Cl
ATOM      9  C   UNL     1       0.103  12.283  21.147  0.00  0.00    +0.000 A 
ATOM     10 CL   UNL     1      -0.676  12.714  22.627  0.00  0.00    +0.000 Cl
ATOM     11  C   UNL     1       0.634  13.256  20.315  0.00  0.00    +0.000 A 
ATOM     12  C   UNL     1       0.753  14.713  20.468  0.00  0.00    +0.000 C 
ATOM     13  O   UNL     1       0.255  15.362  21.370  0.00  0.00    +0.000 OA
ENDROOT
BRANCH   2  14
ATOM     14  C   UNL     1       1.215  16.632  18.799  0.00  0.00    +0.000 C 
ATOM     15  C   UNL     1       2.057  17.170  17.632  0.00  0.00    +0.000 C 
ATOM     16  C   UNL     1       1.200  18.274  17.033  0.00  0.00    +0.000 C 
ATOM     17  C   UNL     1      -0.247  17.860  17.287  0.00  0.00    +0.000 C 
ATOM     18  C   UNL     1      -0.202  16.650  18.214  0.00  0.00    +0.000 C 
ENDBRANCH   2  14
BRANCH   6  19
ATOM     19  O   UNL     1       1.080   9.274  19.243  0.00  0.00    +0.000 OA
BRANCH  19  20
ATOM     20  C   UNL     1       2.041   9.004  18.212  0.00  0.00    +0.000 C 
BRANCH  20  21
ATOM     21  C   UNL     1       2.705   7.660  18.399  0.00  0.00    +0.000 A 
ATOM     22  C   UNL     1       3.688   7.255  17.483  0.00  0.00    +0.000 A 
ATOM     23  C   UNL     1       4.368   6.050  17.660  0.00  0.00    +0.000 A 
ATOM     24  C   UNL     1       4.076   5.238  18.759  0.00  0.00    +0.000 A 
ATOM     25  C   UNL     1       3.126   5.653  19.701  0.00  0.00    +0.000 A 
ATOM     26  C   UNL     1       2.444   6.858  19.517  0.00  0.00    +0.000 A 
BRANCH  24  27
ATOM     27  C   UNL     1       4.835   3.973  18.914  0.00  0.00    +0.000 C 
ATOM     28  O   UNL     1       4.302   2.912  19.188  0.00  0.00    +0.000 OA
BRANCH  27  29
ATOM     29  O   UNL     1       6.169   4.118  18.772  0.00  0.00    +0.000 OA
ATOM     30  H   UNL     1       6.581   4.761  19.378  0.00  0.00    +0.000 HD
ENDBRANCH  27  29
ENDBRANCH  24  27
ENDBRANCH  20  21
ENDBRANCH  19  20
ENDBRANCH   6  19
TORSDOF 6
ENDMDL
MODEL 3
REMARK VINA RESULT:      -7.5      3.516      4.335
REMARK  Name = 
REMARK  7 active torsions:
REMARK  status: ('A' for Active; 'I' for Inactive)
REMARK    1  A    between atoms: C_1  and  C_2
REMARK    2  A    between atoms: C_2  and  C_3
REMARK    3  A    between atoms: C_11  and  O_12
REMARK    4  A    between atoms: O_12  and  C_13
REMARK    5  A    between atoms: C_13  and  C_14
REMARK    6  A    between atoms: C_17  and  C_18
REMARK    7  A    between atoms: C_18  and  O_20
REMARK                            x       y       z     vdW  Elec       q    Type
REMARK                         _______ _______ _______ _____ _____    ______ ____
ROOT
ATOM      1  C   UNL     1      -3.176  12.108  23.600  0.00  0.00    +0.000 C 
ATOM      2  C   UNL     1      -2.290  13.103  22.820  0.00  0.00    +0.000 C 
ATOM      3  C   UNL     1      -0.821  12.621  22.837  0.00  0.00    +0.000 C 
ATOM      4  C   UNL     1      -0.694  11.821  21.585  0.00  0.00    +0.000 A 
ATOM      5  C   UNL     1       0.339  10.953  21.286  0.00  0.00    +0.000 A 
ATOM      6  C   UNL     1       0.313  10.268  20.072  0.00  0.00    +0.000 A 
ATOM      7  C   UNL     1      -0.709  10.545  19.123  0.00  0.00    +0.000 A 
ATOM      8 CL   UNL     1      -0.675   9.709  17.599  0.00  0.00    +0.000 Cl
ATOM      9  C   UNL     1      -1.740  11.457  19.425  0.00  0.00    +0.000 A 
ATOM     10 CL   UNL     1      -3.009  11.792  18.303  0.00  0.00    +0.000 Cl
ATOM     11  C   UNL     1      -1.718  12.061  20.673  0.00  0.00    +0.000 A 
ATOM     12  C   UNL     1      -2.673  12.959  21.339  0.00  0.00    +0.000 C 
ATOM     13  O   UNL     1      -3.654  13.449  20.811  0.00  0.00    +0.000 OA
ENDROOT
BRANCH   2  14
ATOM     14  C   UNL     1      -2.484  14.534  23.380  0.00  0.00    +0.000 C 
ATOM     15  C   UNL     1      -3.831  14.788  24.075  0.00  0.00    +0.000 C 
ATOM     16  C   UNL     1      -3.617  16.088  24.836  0.00  0.00    +0.000 C 
ATOM     17  C   UNL     1      -2.134  16.118  25.196  0.00  0.00    +0.000 C 
ATOM     18  C   UNL     1      -1.477  14.959  24.454  0.00  0.00    +0.000 C 
ENDBRANCH   2  14
BRANCH   6  19
ATOM     19  O   UNL     1       1.254   9.320  19.748  0.00  0.00    +0.000 OA
BRANCH  19  20
ATOM     20  C   UNL     1       1.313   8.197  20.639  0.00  0.00    +0.000 C 
BRANCH  20  21
ATOM     21  C   UNL     1       2.009   7.014  20.009  0.00  0.00    +0.000 A 
ATOM     22  C   UNL     1       2.744   7.208  18.829  0.00  0.00    +0.000 A 
ATOM     23  C   UNL     1       3.452   6.152  18.254  0.00  0.00    +0.000 A 
ATOM     24  C   UNL     1       3.436   4.890  18.856  0.00  0.00    +0.000 A 
ATOM     25  C   UNL     1       2.739   4.697  20.056  0.00  0.00    +0.000 A 
ATOM     26  C   UNL     1       2.027   5.756  20.624  0.00  0.00    +0.000 A 
BRANCH  24  27
ATOM     27  C   UNL     1       4.216   3.802  18.217  0.00  0.00    +0.000 C 
ATOM     28  O   UNL     1       3.858   3.247  17.192  0.00  0.00    +0.000 OA
BRANCH  27  29
ATOM     29  O   UNL     1       5.326   3.454  18.901  0.00  0.00    +0.000 OA
ATOM     30  H   UNL     1       5.189   2.786  19.596  0.00  0.00    +0.000 HD
ENDBRANCH  27  29
ENDBRANCH  24  27
ENDBRANCH  20  21
ENDBRANCH  19  20
ENDBRANCH   6  19
TORSDOF 6
ENDMDL
MODEL 4
REMARK VINA RESULT:      -7.4      0.773      1.194
REMARK  Name = 
REMARK  7 active torsions:
REMARK  status: ('A' for Active; 'I' for Inactive)
REMARK    1  A    between atoms: C_1  and  C_2
REMARK    2  A    between atoms: C_2  and  C_3
REMARK    3  A    between atoms: C_11  and  O_12
REMARK    4  A    between atoms: O_12  and  C_13
REMARK    5  A    between atoms: C_13  and  C_14
REMARK    6  A    between atoms: C_17  and  C_18
REMARK    7  A    between atoms: C_18  and  O_20
REMARK                            x       y       z     vdW  Elec       q    Type
REMARK                         _______ _______ _______ _____ _____    ______ ____
ROOT
ATOM      1  C   UNL     1       2.568  14.187  20.258  0.00  0.00    +0.000 C 
ATOM      2  C   UNL     1       1.102  13.826  19.936  0.00  0.00    +0.000 C 
ATOM      3  C   UNL     1       1.038  13.034  18.609  0.00  0.00    +0.000 C 
ATOM      4  C   UNL     1       1.095  11.608  19.040  0.00  0.00    +0.000 A 
ATOM      5  C   UNL     1       1.349  10.527  18.218  0.00  0.00    +0.000 A 
ATOM      6  C   UNL     1       1.378   9.249  18.773  0.00  0.00    +0.000 A 
ATOM      7  C   UNL     1       1.047   9.064  20.144  0.00  0.00    +0.000 A 
ATOM      8 CL   UNL     1       1.041   7.448  20.785  0.00  0.00    +0.000 Cl
ATOM      9  C   UNL     1       0.757  10.171  20.967  0.00  0.00    +0.000 A 
ATOM     10 CL   UNL     1       0.379   9.977  22.641  0.00  0.00    +0.000 Cl
ATOM     11  C   UNL     1       0.812  11.431  20.392  0.00  0.00    +0.000 A 
ATOM     12  C   UNL     1       0.675  12.774  20.973  0.00  0.00    +0.000 C 
ATOM     13  O   UNL     1       0.344  13.008  22.121  0.00  0.00    +0.000 OA
ENDROOT
BRANCH   2  14
ATOM     14  C   UNL     1       0.228  15.103  19.944  0.00  0.00    +0.000 C 
ATOM     15  C   UNL     1       0.880  16.338  20.586  0.00  0.00    +0.000 C 
ATOM     16  C   UNL     1       0.003  17.497  20.135  0.00  0.00    +0.000 C 
ATOM     17  C   UNL     1      -0.554  17.091  18.774  0.00  0.00    +0.000 C 
ATOM     18  C   UNL     1      -0.176  15.629  18.563  0.00  0.00    +0.000 C 
ENDBRANCH   2  14
BRANCH   6  19
ATOM     19  O   UNL     1       1.716   8.140  18.036  0.00  0.00    +0.000 OA
BRANCH  19  20
ATOM     20  C   UNL     1       3.121   7.853  17.986  0.00  0.00    +0.000 C 
BRANCH  20  21
ATOM     21  C   UNL     1       3.410   6.401  18.288  0.00  0.00    +0.000 A 
ATOM     22  C   UNL     1       2.352   5.480  18.269  0.00  0.00    +0.000 A 
ATOM     23  C   UNL     1       2.591   4.121  18.480  0.00  0.00    +0.000 A 
ATOM     24  C   UNL     1       3.894   3.668  18.707  0.00  0.00    +0.000 A 
ATOM     25  C   UNL     1       4.962   4.575  18.686  0.00  0.00    +0.000 A 
ATOM     26  C   UNL     1       4.717   5.934  18.480  0.00  0.00    +0.000 A 
BRANCH  24  27
ATOM     27  C   UNL     1       4.102   2.214  18.910  0.00  0.00    +0.000 C 
ATOM     28  O   UNL     1       3.502   1.365  18.273  0.00  0.00    +0.000 OA
BRANCH  27  29
ATOM     29  O   UNL     1       4.974   1.922  19.898  0.00  0.00    +0.000 OA
ATOM     30  H   UNL     1       4.888   2.468  20.699  0.00  0.00    +0.000 HD
ENDBRANCH  27  29
ENDBRANCH  24  27
ENDBRANCH  20  21
ENDBRANCH  19  20
ENDBRANCH   6  19
TORSDOF 6
ENDMDL
MODEL 5
REMARK VINA RESULT:      -7.3      1.956      2.202
REMARK  Name = 
REMARK  7 active torsions:
REMARK  status: ('A' for Active; 'I' for Inactive)
REMARK    1  A    between atoms: C_1  and  C_2
REMARK    2  A    between atoms: C_2  and  C_3
REMARK    3  A    between atoms: C_11  and  O_12
REMARK    4  A    between atoms: O_12  and  C_13
REMARK    5  A    between atoms: C_13  and  C_14
REMARK    6  A    between atoms: C_17  and  C_18
REMARK    7  A    between atoms: C_18  and  O_20
REMARK                            x       y       z     vdW  Elec       q    Type
REMARK                         _______ _______ _______ _____ _____    ______ ____
ROOT
ATOM      1  C   UNL     1       3.234  13.929  20.329  0.00  0.00    +0.000 C 
ATOM      2  C   UNL     1       1.798  13.774  19.784  0.00  0.00    +0.000 C 
ATOM      3  C   UNL     1       1.812  12.885  18.518  0.00  0.00    +0.000 C 
ATOM      4  C   UNL     1       1.557  11.512  19.043  0.00  0.00    +0.000 A 
ATOM      5  C   UNL     1       1.752  10.335  18.346  0.00  0.00    +0.000 A 
ATOM      6  C   UNL     1       1.475   9.124  18.979  0.00  0.00    +0.000 A 
ATOM      7  C   UNL     1       0.903   9.118  20.281  0.00  0.00    +0.000 A 
ATOM      8 CL   UNL     1       0.522   7.589  21.013  0.00  0.00    +0.000 Cl
ATOM      9  C   UNL     1       0.679  10.327  20.970  0.00  0.00    +0.000 A 
ATOM     10 CL   UNL     1       0.012  10.349  22.563  0.00  0.00    +0.000 Cl
ATOM     11  C   UNL     1       1.037  11.506  20.335  0.00  0.00    +0.000 A 
ATOM     12  C   UNL     1       1.040  12.901  20.796  0.00  0.00    +0.000 C 
ATOM     13  O   UNL     1       0.575  13.287  21.853  0.00  0.00    +0.000 OA
ENDROOT
BRANCH   2  14
ATOM     14  C   UNL     1       1.164  15.168  19.560  0.00  0.00    +0.000 C 
ATOM     15  C   UNL     1       1.924  16.085  18.589  0.00  0.00    +0.000 C 
ATOM     16  C   UNL     1       0.928  17.189  18.266  0.00  0.00    +0.000 C 
ATOM     17  C   UNL     1      -0.452  16.548  18.370  0.00  0.00    +0.000 C 
ATOM     18  C   UNL     1      -0.247  15.158  18.964  0.00  0.00    +0.000 C 
ENDBRANCH   2  14
BRANCH   6  19
ATOM     19  O   UNL     1       1.732   7.913  18.382  0.00  0.00    +0.000 OA
BRANCH  19  20
ATOM     20  C   UNL     1       2.737   7.122  19.031  0.00  0.00    +0.000 C 
BRANCH  20  21
ATOM     21  C   UNL     1       3.649   6.443  18.037  0.00  0.00    +0.000 A 
ATOM     22  C   UNL     1       4.393   7.233  17.147  0.00  0.00    +0.000 A 
ATOM     23  C   UNL     1       5.293   6.645  16.258  0.00  0.00    +0.000 A 
ATOM     24  C   UNL     1       5.463   5.257  16.253  0.00  0.00    +0.000 A 
ATOM     25  C   UNL     1       4.756   4.463  17.165  0.00  0.00    +0.000 A 
ATOM     26  C   UNL     1       3.852   5.057  18.049  0.00  0.00    +0.000 A 
BRANCH  24  27
ATOM     27  C   UNL     1       6.442   4.678  15.301  0.00  0.00    +0.000 C 
ATOM     28  O   UNL     1       7.404   5.299  14.884  0.00  0.00    +0.000 OA
BRANCH  27  29
ATOM     29  O   UNL     1       6.139   3.424  14.905  0.00  0.00    +0.000 OA
ATOM     30  H   UNL     1       5.195   3.191  14.961  0.00  0.00    +0.000 HD
ENDBRANCH  27  29
ENDBRANCH  24  27
ENDBRANCH  20  21
ENDBRANCH  19  20
ENDBRANCH   6  19
TORSDOF 6
ENDMDL
MODEL 6
REMARK VINA RESULT:      -7.3      3.097      3.759
REMARK  Name = 
REMARK  7 active torsions:
REMARK  status: ('A' for Active; 'I' for Inactive)
REMARK    1  A    between atoms: C_1  and  C_2
REMARK    2  A    between atoms: C_2  and  C_3
REMARK    3  A    between atoms: C_11  and  O_12
REMARK    4  A    between atoms: O_12  and  C_13
REMARK    5  A    between atoms: C_13  and  C_14
REMARK    6  A    between atoms: C_17  and  C_18
REMARK    7  A    between atoms: C_18  and  O_20
REMARK                            x       y       z     vdW  Elec       q    Type
REMARK                         _______ _______ _______ _____ _____    ______ ____
ROOT
ATOM      1  C   UNL     1      -1.519  11.497  23.195  0.00  0.00    +0.000 C 
ATOM      2  C   UNL     1      -1.071  12.587  22.198  0.00  0.00    +0.000 C 
ATOM      3  C   UNL     1       0.275  12.182  21.550  0.00  0.00    +0.000 C 
ATOM      4  C   UNL     1      -0.129  11.472  20.302  0.00  0.00    +0.000 A 
ATOM      5  C   UNL     1       0.694  10.681  19.524  0.00  0.00    +0.000 A 
ATOM      6  C   UNL     1       0.166  10.076  18.385  0.00  0.00    +0.000 A 
ATOM      7  C   UNL     1      -1.168  10.361  17.984  0.00  0.00    +0.000 A 
ATOM      8 CL   UNL     1      -1.771   9.629  16.527  0.00  0.00    +0.000 Cl
ATOM      9  C   UNL     1      -1.989  11.196  18.768  0.00  0.00    +0.000 A 
ATOM     10 CL   UNL     1      -3.622  11.536  18.320  0.00  0.00    +0.000 Cl
ATOM     11  C   UNL     1      -1.449  11.718  19.933  0.00  0.00    +0.000 A 
ATOM     12  C   UNL     1      -2.046  12.519  21.011  0.00  0.00    +0.000 C 
ATOM     13  O   UNL     1      -3.168  12.990  20.991  0.00  0.00    +0.000 OA
ENDROOT
BRANCH   2  14
ATOM     14  C   UNL     1      -1.036  13.965  22.901  0.00  0.00    +0.000 C 
ATOM     15  C   UNL     1      -1.137  15.180  21.965  0.00  0.00    +0.000 C 
ATOM     16  C   UNL     1      -1.455  16.340  22.897  0.00  0.00    +0.000 C 
ATOM     17  C   UNL     1      -2.241  15.738  24.057  0.00  0.00    +0.000 C 
ATOM     18  C   UNL     1      -2.173  14.223  23.894  0.00  0.00    +0.000 C 
ENDBRANCH   2  14
BRANCH   6  19
ATOM     19  O   UNL     1       0.898   9.202  17.617  0.00  0.00    +0.000 OA
BRANCH  19  20
ATOM     20  C   UNL     1       2.177   8.845  18.160  0.00  0.00    +0.000 C 
BRANCH  20  21
ATOM     21  C   UNL     1       2.172   7.452  18.744  0.00  0.00    +0.000 A 
ATOM     22  C   UNL     1       1.912   7.292  20.114  0.00  0.00    +0.000 A 
ATOM     23  C   UNL     1       1.836   6.017  20.677  0.00  0.00    +0.000 A 
ATOM     24  C   UNL     1       2.016   4.888  19.873  0.00  0.00    +0.000 A 
ATOM     25  C   UNL     1       2.235   5.037  18.497  0.00  0.00    +0.000 A 
ATOM     26  C   UNL     1       2.315   6.315  17.940  0.00  0.00    +0.000 A 
BRANCH  24  27
ATOM     27  C   UNL     1       1.912   3.553  20.512  0.00  0.00    +0.000 C 
ATOM     28  O   UNL     1       2.884   2.931  20.904  0.00  0.00    +0.000 OA
BRANCH  27  29
ATOM     29  O   UNL     1       0.651   3.075  20.571  0.00  0.00    +0.000 OA
ATOM     30  H   UNL     1       0.521   2.331  21.186  0.00  0.00    +0.000 HD
ENDBRANCH  27  29
ENDBRANCH  24  27
ENDBRANCH  20  21
ENDBRANCH  19  20
ENDBRANCH   6  19
TORSDOF 6
ENDMDL
MODEL 7
REMARK VINA RESULT:      -7.3      4.107      9.119
REMARK  Name = 
REMARK  7 active torsions:
REMARK  status: ('A' for Active; 'I' for Inactive)
REMARK    1  A    between atoms: C_1  and  C_2
REMARK    2  A    between atoms: C_2  and  C_3
REMARK    3  A    between atoms: C_11  and  O_12
REMARK    4  A    between atoms: O_12  and  C_13
REMARK    5  A    between atoms: C_13  and  C_14
REMARK    6  A    between atoms: C_17  and  C_18
REMARK    7  A    between atoms: C_18  and  O_20
REMARK                            x       y       z     vdW  Elec       q    Type
REMARK                         _______ _______ _______ _____ _____    ______ ____
ROOT
ATOM      1  C   UNL     1       1.564   5.655  17.814  0.00  0.00    +0.000 C 
ATOM      2  C   UNL     1       2.633   6.695  18.212  0.00  0.00    +0.000 C 
ATOM      3  C   UNL     1       2.407   8.006  17.422  0.00  0.00    +0.000 C 
ATOM      4  C   UNL     1       1.547   8.823  18.326  0.00  0.00    +0.000 A 
ATOM      5  C   UNL     1       0.845   9.956  17.962  0.00  0.00    +0.000 A 
ATOM      6  C   UNL     1       0.076  10.610  18.923  0.00  0.00    +0.000 A 
ATOM      7  C   UNL     1       0.105  10.170  20.275  0.00  0.00    +0.000 A 
ATOM      8 CL   UNL     1      -0.826  11.046  21.453  0.00  0.00    +0.000 Cl
ATOM      9  C   UNL     1       0.851   9.032  20.642  0.00  0.00    +0.000 A 
ATOM     10 CL   UNL     1       0.882   8.459  22.270  0.00  0.00    +0.000 Cl
ATOM     11  C   UNL     1       1.543   8.366  19.642  0.00  0.00    +0.000 A 
ATOM     12  C   UNL     1       2.314   7.115  19.655  0.00  0.00    +0.000 C 
ATOM     13  O   UNL     1       2.591   6.478  20.655  0.00  0.00    +0.000 OA
ENDROOT
BRANCH   2  14
ATOM     14  C   UNL     1       4.048   6.094  18.033  0.00  0.00    +0.000 C 
ATOM     15  C   UNL     1       4.084   4.642  17.531  0.00  0.00    +0.000 C 
ATOM     16  C   UNL     1       5.526   4.436  17.092  0.00  0.00    +0.000 C 
ATOM     17  C   UNL     1       6.019   5.805  16.632  0.00  0.00    +0.000 C 
ATOM     18  C   UNL     1       4.941   6.813  17.016  0.00  0.00    +0.000 C 
ENDBRANCH   2  14
BRANCH   6  19
ATOM     19  O   UNL     1      -0.721  11.685  18.612  0.00  0.00    +0.000 OA
BRANCH  19  20
ATOM     20  C   UNL     1      -1.715  11.431  17.609  0.00  0.00    +0.000 C 
BRANCH  20  21
ATOM     21  C   UNL     1      -3.112  11.451  18.183  0.00  0.00    +0.000 A 
ATOM     22  C   UNL     1      -3.387  12.291  19.273  0.00  0.00    +0.000 A 
ATOM     23  C   UNL     1      -4.680  12.384  19.788  0.00  0.00    +0.000 A 
ATOM     24  C   UNL     1      -5.715  11.639  19.214  0.00  0.00    +0.000 A 
ATOM     25  C   UNL     1      -5.459  10.830  18.100  0.00  0.00    +0.000 A 
ATOM     26  C   UNL     1      -4.162  10.737  17.592  0.00  0.00    +0.000 A 
BRANCH  24  27
ATOM     27  C   UNL     1      -7.076  11.782  19.786  0.00  0.00    +0.000 C 
ATOM     28  O   UNL     1      -7.540  12.855  20.130  0.00  0.00    +0.000 OA
BRANCH  27  29
ATOM     29  O   UNL     1      -7.729  10.610  19.934  0.00  0.00    +0.000 OA
ATOM     30  H   UNL     1      -8.699  10.683  19.993  0.00  0.00    +0.000 HD
ENDBRANCH  27  29
ENDBRANCH  24  27
ENDBRANCH  20  21
ENDBRANCH  19  20
ENDBRANCH   6  19
TORSDOF 6
ENDMDL
MODEL 8
REMARK VINA RESULT:      -7.3      3.024      3.735
REMARK  Name = 
REMARK  7 active torsions:
REMARK  status: ('A' for Active; 'I' for Inactive)
REMARK    1  A    between atoms: C_1  and  C_2
REMARK    2  A    between atoms: C_2  and  C_3
REMARK    3  A    between atoms: C_11  and  O_12
REMARK    4  A    between atoms: O_12  and  C_13
REMARK    5  A    between atoms: C_13  and  C_14
REMARK    6  A    between atoms: C_17  and  C_18
REMARK    7  A    between atoms: C_18  and  O_20
REMARK                            x       y       z     vdW  Elec       q    Type
REMARK                         _______ _______ _______ _____ _____    ______ ____
ROOT
ATOM      1  C   UNL     1      -1.815  11.445  23.222  0.00  0.00    +0.000 C 
ATOM      2  C   UNL     1      -1.279  12.535  22.271  0.00  0.00    +0.000 C 
ATOM      3  C   UNL     1       0.072  12.086  21.667  0.00  0.00    +0.000 C 
ATOM      4  C   UNL     1      -0.311  11.425  20.386  0.00  0.00    +0.000 A 
ATOM      5  C   UNL     1       0.507  10.615  19.622  0.00  0.00    +0.000 A 
ATOM      6  C   UNL     1       0.000  10.061  18.448  0.00  0.00    +0.000 A 
ATOM      7  C   UNL     1      -1.303  10.414  18.002  0.00  0.00    +0.000 A 
ATOM      8 CL   UNL     1      -1.878   9.743  16.505  0.00  0.00    +0.000 Cl
ATOM      9  C   UNL     1      -2.117  11.267  18.774  0.00  0.00    +0.000 A 
ATOM     10 CL   UNL     1      -3.715  11.690  18.270  0.00  0.00    +0.000 Cl
ATOM     11  C   UNL     1      -1.603  11.737  19.972  0.00  0.00    +0.000 A 
ATOM     12  C   UNL     1      -2.207  12.539  21.046  0.00  0.00    +0.000 C 
ATOM     13  O   UNL     1      -3.306  13.060  20.993  0.00  0.00    +0.000 OA
ENDROOT
BRANCH   2  14
ATOM     14  C   UNL     1      -1.212  13.895  23.008  0.00  0.00    +0.000 C 
ATOM     15  C   UNL     1      -1.183  15.133  22.099  0.00  0.00    +0.000 C 
ATOM     16  C   UNL     1      -1.495  16.290  23.036  0.00  0.00    +0.000 C 
ATOM     17  C   UNL     1      -2.389  15.709  24.128  0.00  0.00    +0.000 C 
ATOM     18  C   UNL     1      -2.397  14.197  23.932  0.00  0.00    +0.000 C 
ENDBRANCH   2  14
BRANCH   6  19
ATOM     19  O   UNL     1       0.724   9.173  17.688  0.00  0.00    +0.000 OA
BRANCH  19  20
ATOM     20  C   UNL     1       2.142   9.217  17.895  0.00  0.00    +0.000 C 
BRANCH  20  21
ATOM     21  C   UNL     1       2.717   7.844  18.154  0.00  0.00    +0.000 A 
ATOM     22  C   UNL     1       3.703   7.346  17.289  0.00  0.00    +0.000 A 
ATOM     23  C   UNL     1       4.302   6.110  17.534  0.00  0.00    +0.000 A 
ATOM     24  C   UNL     1       3.923   5.359  18.650  0.00  0.00    +0.000 A 
ATOM     25  C   UNL     1       2.969   5.866  19.542  0.00  0.00    +0.000 A 
ATOM     26  C   UNL     1       2.369   7.101  19.289  0.00  0.00    +0.000 A 
BRANCH  24  27
ATOM     27  C   UNL     1       4.598   4.058  18.877  0.00  0.00    +0.000 C 
ATOM     28  O   UNL     1       4.274   3.292  19.769  0.00  0.00    +0.000 OA
BRANCH  27  29
ATOM     29  O   UNL     1       5.630   3.827  18.040  0.00  0.00    +0.000 OA
ATOM     30  H   UNL     1       5.983   2.918  18.060  0.00  0.00    +0.000 HD
ENDBRANCH  27  29
ENDBRANCH  24  27
ENDBRANCH  20  21
ENDBRANCH  19  20
ENDBRANCH   6  19
TORSDOF 6
ENDMDL
MODEL 9
REMARK VINA RESULT:      -7.3      3.576      4.427
REMARK  Name = 
REMARK  7 active torsions:
REMARK  status: ('A' for Active; 'I' for Inactive)
REMARK    1  A    between atoms: C_1  and  C_2
REMARK    2  A    between atoms: C_2  and  C_3
REMARK    3  A    between atoms: C_11  and  O_12
REMARK    4  A    between atoms: O_12  and  C_13
REMARK    5  A    between atoms: C_13  and  C_14
REMARK    6  A    between atoms: C_17  and  C_18
REMARK    7  A    between atoms: C_18  and  O_20
REMARK                            x       y       z     vdW  Elec       q    Type
REMARK                         _______ _______ _______ _____ _____    ______ ____
ROOT
ATOM      1  C   UNL     1      -2.479  11.798  23.290  0.00  0.00    +0.000 C 
ATOM      2  C   UNL     1      -2.060  12.934  22.333  0.00  0.00    +0.000 C 
ATOM      3  C   UNL     1      -0.648  12.650  21.770  0.00  0.00    +0.000 C 
ATOM      4  C   UNL     1      -0.912  11.927  20.492  0.00  0.00    +0.000 A 
ATOM      5  C   UNL     1       0.021  11.217  19.761  0.00  0.00    +0.000 A 
ATOM      6  C   UNL     1      -0.382  10.587  18.586  0.00  0.00    +0.000 A 
ATOM      7  C   UNL     1      -1.708  10.767  18.102  0.00  0.00    +0.000 A 
ATOM      8 CL   UNL     1      -2.155  10.008  16.604  0.00  0.00    +0.000 Cl
ATOM      9  C   UNL     1      -2.642  11.521  18.840  0.00  0.00    +0.000 A 
ATOM     10 CL   UNL     1      -4.266  11.733  18.291  0.00  0.00    +0.000 Cl
ATOM     11  C   UNL     1      -2.222  12.069  20.041  0.00  0.00    +0.000 A 
ATOM     12  C   UNL     1      -2.949  12.803  21.086  0.00  0.00    +0.000 C 
ATOM     13  O   UNL     1      -4.103  13.181  20.998  0.00  0.00    +0.000 OA
ENDROOT
BRANCH   2  14
ATOM     14  C   UNL     1      -2.183  14.301  23.049  0.00  0.00    +0.000 C 
ATOM     15  C   UNL     1      -3.126  14.322  24.263  0.00  0.00    +0.000 C 
ATOM     16  C   UNL     1      -2.780  15.619  24.978  0.00  0.00    +0.000 C 
ATOM     17  C   UNL     1      -1.304  15.873  24.688  0.00  0.00    +0.000 C 
ATOM     18  C   UNL     1      -0.880  14.851  23.638  0.00  0.00    +0.000 C 
ENDBRANCH   2  14
BRANCH   6  19
ATOM     19  O   UNL     1       0.466   9.787  17.858  0.00  0.00    +0.000 OA
BRANCH  19  20
ATOM     20  C   UNL     1       1.769   9.610  18.431  0.00  0.00    +0.000 C 
BRANCH  20  21
ATOM     21  C   UNL     1       1.979   8.199  18.929  0.00  0.00    +0.000 A 
ATOM     22  C   UNL     1       1.621   7.886  20.250  0.00  0.00    +0.000 A 
ATOM     23  C   UNL     1       1.741   6.579  20.725  0.00  0.00    +0.000 A 
ATOM     24  C   UNL     1       2.216   5.570  19.882  0.00  0.00    +0.000 A 
ATOM     25  C   UNL     1       2.536   5.865  18.551  0.00  0.00    +0.000 A 
ATOM     26  C   UNL     1       2.420   7.176  18.082  0.00  0.00    +0.000 A 
BRANCH  24  27
ATOM     27  C   UNL     1       2.312   4.194  20.427  0.00  0.00    +0.000 C 
ATOM     28  O   UNL     1       2.292   3.954  21.622  0.00  0.00    +0.000 OA
BRANCH  27  29
ATOM     29  O   UNL     1       2.473   3.244  19.482  0.00  0.00    +0.000 OA
ATOM     30  H   UNL     1       3.155   3.439  18.814  0.00  0.00    +0.000 HD
ENDBRANCH  27  29
ENDBRANCH  24  27
ENDBRANCH  20  21
ENDBRANCH  19  20
ENDBRANCH   6  19
TORSDOF 6
ENDMDL
