MODEL 1
REMARK VINA RESULT:      -5.8      0.000      0.000
REMARK  Name = 
REMARK  2 active torsions:
REMARK  status: ('A' for Active; 'I' for Inactive)
REMARK    1  A    between atoms: C_3  and  C_4
REMARK    2  A    between atoms: C_4  and  N_5
REMARK                            x       y       z     vdW  Elec       q    Type
REMARK                         _______ _______ _______ _____ _____    ______ ____
ROOT
ATOM      1  N   UNL     1       3.322   4.251  19.185  0.00  0.00    +0.000 NA
ATOM      2  C   UNL     1       2.473   3.962  20.347  0.00  0.00    +0.000 C 
ATOM      3  C   UNL     1       1.000   3.722  20.020  0.00  0.00    +0.000 C 
ATOM      4  C   UNL     1       0.644   2.572  19.081  0.00  0.00    +0.000 C 
ATOM      5  N   UNL     1       1.697   1.592  18.832  0.00  0.00    +0.000 NA
ATOM      6  C   UNL     1       2.688   2.131  17.888  0.00  0.00    +0.000 C 
ATOM      7  C   UNL     1       3.781   3.016  18.519  0.00  0.00    +0.000 C 
ATOM      8  H   UNL     1       1.267   0.775  18.398  0.00  0.00    +0.000 HD
ENDROOT
BRANCH   1   9
ATOM      9  C   UNL     1       4.483   5.100  19.547  0.00  0.00    +0.000 C 
BRANCH   9  12
ATOM     10  C   UNL     1       7.572   4.686  17.686  0.00  0.00    +0.000 A 
ATOM     11  N   UNL     1       6.774   4.506  18.715  0.00  0.00    +0.000 NA
ATOM     12  C   UNL     1       5.570   5.173  18.501  0.00  0.00    +0.000 A 
ATOM     13  C   UNL     1       5.488   5.820  17.278  0.00  0.00    +0.000 A 
ATOM     14  S   UNL     1       6.949   5.631  16.399  0.00  0.00    +0.000 S 
ENDBRANCH   9  12
ENDBRANCH   1   9
TORSDOF 2
ENDMDL
MODEL 2
REMARK VINA RESULT:      -5.7      2.653      5.319
REMARK  Name = 
REMARK  2 active torsions:
REMARK  status: ('A' for Active; 'I' for Inactive)
REMARK    1  A    between atoms: C_3  and  C_4
REMARK    2  A    between atoms: C_4  and  N_5
REMARK                            x       y       z     vdW  Elec       q    Type
REMARK                         _______ _______ _______ _____ _____    ______ ____
ROOT
ATOM      1  N   UNL     1       4.547   4.859  17.571  0.00  0.00    +0.000 NA
ATOM      2  C   UNL     1       5.445   5.863  18.155  0.00  0.00    +0.000 C 
ATOM      3  C   UNL     1       6.775   5.312  18.666  0.00  0.00    +0.000 C 
ATOM      4  C   UNL     1       7.698   4.610  17.673  0.00  0.00    +0.000 C 
ATOM      5  N   UNL     1       7.395   4.807  16.259  0.00  0.00    +0.000 NA
ATOM      6  C   UNL     1       6.244   3.981  15.860  0.00  0.00    +0.000 C 
ATOM      7  C   UNL     1       4.863   4.598  16.153  0.00  0.00    +0.000 C 
ATOM      8  H   UNL     1       8.203   4.494  15.720  0.00  0.00    +0.000 HD
ENDROOT
BRANCH   1   9
ATOM      9  C   UNL     1       3.121   5.241  17.717  0.00  0.00    +0.000 C 
BRANCH   9  12
ATOM     10  C   UNL     1       0.891   2.586  18.792  0.00  0.00    +0.000 A 
ATOM     11  N   UNL     1       1.528   3.312  17.899  0.00  0.00    +0.000 NA
ATOM     12  C   UNL     1       2.287   4.289  18.541  0.00  0.00    +0.000 A 
ATOM     13  C   UNL     1       2.221   4.243  19.923  0.00  0.00    +0.000 A 
ATOM     14  S   UNL     1       1.163   2.993  20.434  0.00  0.00    +0.000 S 
ENDBRANCH   9  12
ENDBRANCH   1   9
TORSDOF 2
ENDMDL
MODEL 3
REMARK VINA RESULT:      -5.6      2.610      5.312
REMARK  Name = 
REMARK  2 active torsions:
REMARK  status: ('A' for Active; 'I' for Inactive)
REMARK    1  A    between atoms: C_3  and  C_4
REMARK    2  A    between atoms: C_4  and  N_5
REMARK                            x       y       z     vdW  Elec       q    Type
REMARK                         _______ _______ _______ _____ _____    ______ ____
ROOT
ATOM      1  N   UNL     1       4.774   4.064  17.731  0.00  0.00    +0.000 NA
ATOM      2  C   UNL     1       4.981   5.285  18.520  0.00  0.00    +0.000 C 
ATOM      3  C   UNL     1       6.351   5.392  19.188  0.00  0.00    +0.000 C 
ATOM      4  C   UNL     1       7.593   5.381  18.300  0.00  0.00    +0.000 C 
ATOM      5  N   UNL     1       7.370   5.602  16.874  0.00  0.00    +0.000 NA
ATOM      6  C   UNL     1       6.838   4.384  16.242  0.00  0.00    +0.000 C 
ATOM      7  C   UNL     1       5.313   4.196  16.363  0.00  0.00    +0.000 C 
ATOM      8  H   UNL     1       8.273   5.806  16.444  0.00  0.00    +0.000 HD
ENDROOT
BRANCH   1   9
ATOM      9  C   UNL     1       3.345   3.673  17.684  0.00  0.00    +0.000 C 
BRANCH   9  12
ATOM     10  C   UNL     1       1.117   4.036  20.527  0.00  0.00    +0.000 A 
ATOM     11  N   UNL     1       1.550   4.312  19.316  0.00  0.00    +0.000 NA
ATOM     12  C   UNL     1       2.675   3.540  19.031  0.00  0.00    +0.000 A 
ATOM     13  C   UNL     1       3.038   2.668  20.044  0.00  0.00    +0.000 A 
ATOM     14  S   UNL     1       1.991   2.843  21.391  0.00  0.00    +0.000 S 
ENDBRANCH   9  12
ENDBRANCH   1   9
TORSDOF 2
ENDMDL
MODEL 4
REMARK VINA RESULT:      -5.6      1.760      2.316
REMARK  Name = 
REMARK  2 active torsions:
REMARK  status: ('A' for Active; 'I' for Inactive)
REMARK    1  A    between atoms: C_3  and  C_4
REMARK    2  A    between atoms: C_4  and  N_5
REMARK                            x       y       z     vdW  Elec       q    Type
REMARK                         _______ _______ _______ _____ _____    ______ ____
ROOT
ATOM      1  N   UNL     1       2.916   5.005  18.611  0.00  0.00    +0.000 NA
ATOM      2  C   UNL     1       1.899   4.323  17.801  0.00  0.00    +0.000 C 
ATOM      3  C   UNL     1       1.594   2.889  18.232  0.00  0.00    +0.000 C 
ATOM      4  C   UNL     1       1.075   2.653  19.648  0.00  0.00    +0.000 C 
ATOM      5  N   UNL     1       0.598   3.831  20.366  0.00  0.00    +0.000 NA
ATOM      6  C   UNL     1       1.733   4.629  20.855  0.00  0.00    +0.000 C 
ATOM      7  C   UNL     1       2.337   5.607  19.828  0.00  0.00    +0.000 C 
ATOM      8  H   UNL     1       0.072   3.509  21.179  0.00  0.00    +0.000 HD
ENDROOT
BRANCH   1   9
ATOM      9  C   UNL     1       3.646   6.033  17.829  0.00  0.00    +0.000 C 
BRANCH   9  12
ATOM     10  C   UNL     1       7.198   6.385  17.167  0.00  0.00    +0.000 A 
ATOM     11  N   UNL     1       5.954   6.809  17.226  0.00  0.00    +0.000 NA
ATOM     12  C   UNL     1       5.126   5.779  17.667  0.00  0.00    +0.000 A 
ATOM     13  C   UNL     1       5.792   4.601  17.963  0.00  0.00    +0.000 A 
ATOM     14  S   UNL     1       7.470   4.763  17.645  0.00  0.00    +0.000 S 
ENDBRANCH   9  12
ENDBRANCH   1   9
TORSDOF 2
ENDMDL
MODEL 5
REMARK VINA RESULT:      -5.6      1.419      2.056
REMARK  Name = 
REMARK  2 active torsions:
REMARK  status: ('A' for Active; 'I' for Inactive)
REMARK    1  A    between atoms: C_3  and  C_4
REMARK    2  A    between atoms: C_4  and  N_5
REMARK                            x       y       z     vdW  Elec       q    Type
REMARK                         _______ _______ _______ _____ _____    ______ ____
ROOT
ATOM      1  N   UNL     1       3.104   4.835  18.653  0.00  0.00    +0.000 NA
ATOM      2  C   UNL     1       2.124   4.174  17.782  0.00  0.00    +0.000 C 
ATOM      3  C   UNL     1       1.795   2.732  18.167  0.00  0.00    +0.000 C 
ATOM      4  C   UNL     1       1.209   2.469  19.551  0.00  0.00    +0.000 C 
ATOM      5  N   UNL     1       0.702   3.633  20.272  0.00  0.00    +0.000 NA
ATOM      6  C   UNL     1       1.815   4.416  20.830  0.00  0.00    +0.000 C 
ATOM      7  C   UNL     1       2.469   5.413  19.854  0.00  0.00    +0.000 C 
ATOM      8  H   UNL     1       0.137   3.296  21.052  0.00  0.00    +0.000 HD
ENDROOT
BRANCH   1   9
ATOM      9  C   UNL     1       3.873   5.876  17.929  0.00  0.00    +0.000 C 
BRANCH   9  12
ATOM     10  C   UNL     1       7.200   4.596  17.244  0.00  0.00    +0.000 A 
ATOM     11  N   UNL     1       6.223   5.002  18.024  0.00  0.00    +0.000 NA
ATOM     12  C   UNL     1       5.129   5.384  17.250  0.00  0.00    +0.000 A 
ATOM     13  C   UNL     1       5.312   5.219  15.887  0.00  0.00    +0.000 A 
ATOM     14  S   UNL     1       6.887   4.620  15.560  0.00  0.00    +0.000 S 
ENDBRANCH   9  12
ENDBRANCH   1   9
TORSDOF 2
ENDMDL
MODEL 6
REMARK VINA RESULT:      -5.5      1.513      2.087
REMARK  Name = 
REMARK  2 active torsions:
REMARK  status: ('A' for Active; 'I' for Inactive)
REMARK    1  A    between atoms: C_3  and  C_4
REMARK    2  A    between atoms: C_4  and  N_5
REMARK                            x       y       z     vdW  Elec       q    Type
REMARK                         _______ _______ _______ _____ _____    ______ ____
ROOT
ATOM      1  N   UNL     1       3.132   4.493  19.518  0.00  0.00    +0.000 NA
ATOM      2  C   UNL     1       2.152   4.599  18.430  0.00  0.00    +0.000 C 
ATOM      3  C   UNL     1       1.534   3.271  17.994  0.00  0.00    +0.000 C 
ATOM      4  C   UNL     1       0.763   2.457  19.029  0.00  0.00    +0.000 C 
ATOM      5  N   UNL     1       0.394   3.155  20.257  0.00  0.00    +0.000 NA
ATOM      6  C   UNL     1       1.560   3.285  21.145  0.00  0.00    +0.000 C 
ATOM      7  C   UNL     1       2.483   4.482  20.844  0.00  0.00    +0.000 C 
ATOM      8  H   UNL     1      -0.304   2.589  20.741  0.00  0.00    +0.000 HD
ENDROOT
BRANCH   1   9
ATOM      9  C   UNL     1       4.148   5.572  19.454  0.00  0.00    +0.000 C 
BRANCH   9  12
ATOM     10  C   UNL     1       6.017   6.020  16.375  0.00  0.00    +0.000 A 
ATOM     11  N   UNL     1       5.052   6.289  17.227  0.00  0.00    +0.000 NA
ATOM     12  C   UNL     1       5.147   5.442  18.329  0.00  0.00    +0.000 A 
ATOM     13  C   UNL     1       6.221   4.568  18.285  0.00  0.00    +0.000 A 
ATOM     14  S   UNL     1       7.103   4.774  16.827  0.00  0.00    +0.000 S 
ENDBRANCH   9  12
ENDBRANCH   1   9
TORSDOF 2
ENDMDL
MODEL 7
REMARK VINA RESULT:      -5.5      2.557      5.200
REMARK  Name = 
REMARK  2 active torsions:
REMARK  status: ('A' for Active; 'I' for Inactive)
REMARK    1  A    between atoms: C_3  and  C_4
REMARK    2  A    between atoms: C_4  and  N_5
REMARK                            x       y       z     vdW  Elec       q    Type
REMARK                         _______ _______ _______ _____ _____    ______ ____
ROOT
ATOM      1  N   UNL     1       4.215   5.238  17.796  0.00  0.00    +0.000 NA
ATOM      2  C   UNL     1       4.571   4.121  16.913  0.00  0.00    +0.000 C 
ATOM      3  C   UNL     1       5.816   4.353  16.058  0.00  0.00    +0.000 C 
ATOM      4  C   UNL     1       7.141   4.624  16.766  0.00  0.00    +0.000 C 
ATOM      5  N   UNL     1       7.187   4.317  18.192  0.00  0.00    +0.000 NA
ATOM      6  C   UNL     1       6.495   5.360  18.965  0.00  0.00    +0.000 C 
ATOM      7  C   UNL     1       4.966   5.196  19.067  0.00  0.00    +0.000 C 
ATOM      8  H   UNL     1       8.165   4.314  18.480  0.00  0.00    +0.000 HD
ENDROOT
BRANCH   1   9
ATOM      9  C   UNL     1       2.757   5.288  18.064  0.00  0.00    +0.000 C 
BRANCH   9  12
ATOM     10  C   UNL     1       1.658   2.228  19.678  0.00  0.00    +0.000 A 
ATOM     11  N   UNL     1       2.085   2.947  18.662  0.00  0.00    +0.000 NA
ATOM     12  C   UNL     1       2.257   4.271  19.062  0.00  0.00    +0.000 A 
ATOM     13  C   UNL     1       1.979   4.503  20.399  0.00  0.00    +0.000 A 
ATOM     14  S   UNL     1       1.453   3.059  21.162  0.00  0.00    +0.000 S 
ENDBRANCH   9  12
ENDBRANCH   1   9
TORSDOF 2
ENDMDL
MODEL 8
REMARK VINA RESULT:      -5.5      1.098      1.588
REMARK  Name = 
REMARK  2 active torsions:
REMARK  status: ('A' for Active; 'I' for Inactive)
REMARK    1  A    between atoms: C_3  and  C_4
REMARK    2  A    between atoms: C_4  and  N_5
REMARK                            x       y       z     vdW  Elec       q    Type
REMARK                         _______ _______ _______ _____ _____    ______ ____
ROOT
ATOM      1  N   UNL     1       3.264   3.630  18.407  0.00  0.00    +0.000 NA
ATOM      2  C   UNL     1       3.494   3.944  19.823  0.00  0.00    +0.000 C 
ATOM      3  C   UNL     1       2.423   4.824  20.466  0.00  0.00    +0.000 C 
ATOM      4  C   UNL     1       0.984   4.315  20.489  0.00  0.00    +0.000 C 
ATOM      5  N   UNL     1       0.796   2.897  20.198  0.00  0.00    +0.000 NA
ATOM      6  C   UNL     1       0.920   2.649  18.753  0.00  0.00    +0.000 C 
ATOM      7  C   UNL     1       2.362   2.473  18.240  0.00  0.00    +0.000 C 
ATOM      8  H   UNL     1      -0.153   2.644  20.476  0.00  0.00    +0.000 HD
ENDROOT
BRANCH   1   9
ATOM      9  C   UNL     1       4.535   3.399  17.679  0.00  0.00    +0.000 C 
BRANCH   9  12
ATOM     10  C   UNL     1       7.410   5.537  18.264  0.00  0.00    +0.000 A 
ATOM     11  N   UNL     1       6.715   4.426  18.377  0.00  0.00    +0.000 NA
ATOM     12  C   UNL     1       5.503   4.558  17.702  0.00  0.00    +0.000 A 
ATOM     13  C   UNL     1       5.337   5.776  17.063  0.00  0.00    +0.000 A 
ATOM     14  S   UNL     1       6.692   6.791  17.344  0.00  0.00    +0.000 S 
ENDBRANCH   9  12
ENDBRANCH   1   9
TORSDOF 2
ENDMDL
MODEL 9
REMARK VINA RESULT:      -5.5      2.532      5.117
REMARK  Name = 
REMARK  2 active torsions:
REMARK  status: ('A' for Active; 'I' for Inactive)
REMARK    1  A    between atoms: C_3  and  C_4
REMARK    2  A    between atoms: C_4  and  N_5
REMARK                            x       y       z     vdW  Elec       q    Type
REMARK                         _______ _______ _______ _____ _____    ______ ____
ROOT
ATOM      1  N   UNL     1       4.934   5.463  17.733  0.00  0.00    +0.000 NA
ATOM      2  C   UNL     1       4.769   4.374  16.762  0.00  0.00    +0.000 C 
ATOM      3  C   UNL     1       5.598   4.522  15.487  0.00  0.00    +0.000 C 
ATOM      4  C   UNL     1       7.118   4.597  15.616  0.00  0.00    +0.000 C 
ATOM      5  N   UNL     1       7.678   4.192  16.902  0.00  0.00    +0.000 NA
ATOM      6  C   UNL     1       7.485   5.253  17.903  0.00  0.00    +0.000 C 
ATOM      7  C   UNL     1       6.110   5.252  18.600  0.00  0.00    +0.000 C 
ATOM      8  H   UNL     1       8.682   4.062  16.777  0.00  0.00    +0.000 HD
ENDROOT
BRANCH   1   9
ATOM      9  C   UNL     1       3.717   5.656  18.558  0.00  0.00    +0.000 C 
BRANCH   9  12
ATOM     10  C   UNL     1       2.467   2.488  19.813  0.00  0.00    +0.000 A 
ATOM     11  N   UNL     1       3.318   3.489  19.757  0.00  0.00    +0.000 NA
ATOM     12  C   UNL     1       2.901   4.407  18.795  0.00  0.00    +0.000 A 
ATOM     13  C   UNL     1       1.711   4.076  18.170  0.00  0.00    +0.000 A 
ATOM     14  S   UNL     1       1.121   2.575  18.757  0.00  0.00    +0.000 S 
ENDBRANCH   9  12
ENDBRANCH   1   9
TORSDOF 2
ENDMDL
