MODEL 1
REMARK VINA RESULT:      -5.1      0.000      0.000
REMARK  Name = 
REMARK  12 active torsions:
REMARK  status: ('A' for Active; 'I' for Inactive)
REMARK    1  A    between atoms: C_1  and  C_2
REMARK    2  A    between atoms: C_2  and  C_3
REMARK    3  A    between atoms: C_2  and  C_4
REMARK    4  A    between atoms: C_4  and  C_5
REMARK    5  A    between atoms: C_5  and  S_6
REMARK    6  A    between atoms: S_6  and  C_7
REMARK    7  A    between atoms: C_7  and  N_9
REMARK    8  A    between atoms: N_9  and  C_10
REMARK    9  A    between atoms: C_10  and  C_11
REMARK   10  A    between atoms: C_11  and  C_12
REMARK   11  A    between atoms: C_13  and  S_14
REMARK   12  A    between atoms: S_14  and  C_15
REMARK                            x       y       z     vdW  Elec       q    Type
REMARK                         _______ _______ _______ _____ _____    ______ ____
ROOT
ATOM      1  N   UNL     1       5.780   4.307  17.950  0.00  0.00    +0.000 N 
ATOM      2  H   UNL     1       5.909   4.169  18.946  0.00  0.00    +0.000 HD
ENDROOT
BRANCH   1   3
ATOM      3  C   UNL     1       4.528   4.756  17.612  0.00  0.00    +0.000 C 
ATOM      4  S   UNL     1       3.909   6.273  17.922  0.00  0.00    +0.000 S 
BRANCH   3   5
ATOM      5  S   UNL     1       3.627   3.419  16.920  0.00  0.00    +0.000 S 
BRANCH   5   6
ATOM      6  C   UNL     1       2.125   3.431  17.940  0.00  0.00    +0.000 C 
BRANCH   6   7
ATOM      7  C   UNL     1       2.439   3.012  19.382  0.00  0.00    +0.000 C 
BRANCH   7   9
ATOM      8  C   UNL     1       1.377   2.701  21.657  0.00  0.00    +0.000 C 
ATOM      9  C   UNL     1       1.423   3.576  20.400  0.00  0.00    +0.000 C 
ATOM     10  C   UNL     1       1.730   5.021  20.800  0.00  0.00    +0.000 C 
ENDBRANCH   7   9
ENDBRANCH   6   7
ENDBRANCH   5   6
ENDBRANCH   3   5
ENDBRANCH   1   3
BRANCH   1  11
ATOM     11  C   UNL     1       6.980   4.506  17.140  0.00  0.00    +0.000 C 
BRANCH  11  12
ATOM     12  C   UNL     1       6.755   5.436  15.947  0.00  0.00    +0.000 C 
BRANCH  12  13
ATOM     13  C   UNL     1       6.986   4.735  14.634  0.00  0.00    +0.000 C 
ATOM     14  C   UNL     1       6.086   3.925  14.065  0.00  0.00    +0.000 C 
BRANCH  14  15
ATOM     15  S   UNL     1       6.399   3.299  12.419  0.00  0.00    +0.000 S 
ATOM     16  C   UNL     1       4.704   3.398  11.793  0.00  0.00    +0.000 C 
ATOM     17  O   UNL     1       7.217   4.440  11.714  0.00  0.00    +0.000 OA
ENDBRANCH  14  15
ENDBRANCH  12  13
ENDBRANCH  11  12
ENDBRANCH   1  11
TORSDOF 9
ENDMDL
MODEL 2
REMARK VINA RESULT:      -5.0      3.620      7.230
REMARK  Name = 
REMARK  12 active torsions:
REMARK  status: ('A' for Active; 'I' for Inactive)
REMARK    1  A    between atoms: C_1  and  C_2
REMARK    2  A    between atoms: C_2  and  C_3
REMARK    3  A    between atoms: C_2  and  C_4
REMARK    4  A    between atoms: C_4  and  C_5
REMARK    5  A    between atoms: C_5  and  S_6
REMARK    6  A    between atoms: S_6  and  C_7
REMARK    7  A    between atoms: C_7  and  N_9
REMARK    8  A    between atoms: N_9  and  C_10
REMARK    9  A    between atoms: C_10  and  C_11
REMARK   10  A    between atoms: C_11  and  C_12
REMARK   11  A    between atoms: C_13  and  S_14
REMARK   12  A    between atoms: S_14  and  C_15
REMARK                            x       y       z     vdW  Elec       q    Type
REMARK                         _______ _______ _______ _____ _____    ______ ____
ROOT
ATOM      1  N   UNL     1       4.973   6.596  16.934  0.00  0.00    +0.000 N 
ATOM      2  H   UNL     1       4.683   7.533  16.680  0.00  0.00    +0.000 HD
ENDROOT
BRANCH   1   3
ATOM      3  C   UNL     1       6.333   6.457  17.067  0.00  0.00    +0.000 C 
ATOM      4  S   UNL     1       7.399   7.639  17.564  0.00  0.00    +0.000 S 
BRANCH   3   5
ATOM      5  S   UNL     1       6.786   4.862  16.493  0.00  0.00    +0.000 S 
BRANCH   5   6
ATOM      6  C   UNL     1       6.283   4.951  14.751  0.00  0.00    +0.000 C 
BRANCH   6   7
ATOM      7  C   UNL     1       5.971   3.555  14.198  0.00  0.00    +0.000 C 
BRANCH   7   9
ATOM      8  C   UNL     1       4.900   3.675  11.910  0.00  0.00    +0.000 C 
ATOM      9  C   UNL     1       6.208   3.451  12.676  0.00  0.00    +0.000 C 
ATOM     10  C   UNL     1       7.261   4.442  12.175  0.00  0.00    +0.000 C 
ENDBRANCH   7   9
ENDBRANCH   6   7
ENDBRANCH   5   6
ENDBRANCH   3   5
ENDBRANCH   1   3
BRANCH   1  11
ATOM     11  C   UNL     1       3.984   5.739  17.582  0.00  0.00    +0.000 C 
BRANCH  11  12
ATOM     12  C   UNL     1       3.828   6.021  19.077  0.00  0.00    +0.000 C 
BRANCH  12  13
ATOM     13  C   UNL     1       3.288   4.829  19.823  0.00  0.00    +0.000 C 
ATOM     14  C   UNL     1       2.075   4.801  20.386  0.00  0.00    +0.000 C 
BRANCH  14  15
ATOM     15  S   UNL     1       1.476   3.267  21.081  0.00  0.00    +0.000 S 
ATOM     16  C   UNL     1       1.761   2.215  19.635  0.00  0.00    +0.000 C 
ATOM     17  O   UNL     1       2.553   2.874  22.154  0.00  0.00    +0.000 OA
ENDBRANCH  14  15
ENDBRANCH  12  13
ENDBRANCH  11  12
ENDBRANCH   1  11
TORSDOF 9
ENDMDL
MODEL 3
REMARK VINA RESULT:      -5.0      3.436      7.379
REMARK  Name = 
REMARK  12 active torsions:
REMARK  status: ('A' for Active; 'I' for Inactive)
REMARK    1  A    between atoms: C_1  and  C_2
REMARK    2  A    between atoms: C_2  and  C_3
REMARK    3  A    between atoms: C_2  and  C_4
REMARK    4  A    between atoms: C_4  and  C_5
REMARK    5  A    between atoms: C_5  and  S_6
REMARK    6  A    between atoms: S_6  and  C_7
REMARK    7  A    between atoms: C_7  and  N_9
REMARK    8  A    between atoms: N_9  and  C_10
REMARK    9  A    between atoms: C_10  and  C_11
REMARK   10  A    between atoms: C_11  and  C_12
REMARK   11  A    between atoms: C_13  and  S_14
REMARK   12  A    between atoms: S_14  and  C_15
REMARK                            x       y       z     vdW  Elec       q    Type
REMARK                         _______ _______ _______ _____ _____    ______ ____
ROOT
ATOM      1  N   UNL     1       5.823   3.846  16.835  0.00  0.00    +0.000 N 
ATOM      2  H   UNL     1       6.466   3.072  16.714  0.00  0.00    +0.000 HD
ENDROOT
BRANCH   1   3
ATOM      3  C   UNL     1       6.243   5.011  16.242  0.00  0.00    +0.000 C 
ATOM      4  S   UNL     1       7.076   6.250  16.987  0.00  0.00    +0.000 S 
BRANCH   3   5
ATOM      5  S   UNL     1       5.637   5.047  14.597  0.00  0.00    +0.000 S 
BRANCH   5   6
ATOM      6  C   UNL     1       6.843   3.989  13.747  0.00  0.00    +0.000 C 
BRANCH   6   7
ATOM      7  C   UNL     1       6.464   3.800  12.272  0.00  0.00    +0.000 C 
BRANCH   7   9
ATOM      8  C   UNL     1       4.165   3.295  11.347  0.00  0.00    +0.000 C 
ATOM      9  C   UNL     1       5.384   2.714  12.070  0.00  0.00    +0.000 C 
ATOM     10  C   UNL     1       5.905   1.504  11.292  0.00  0.00    +0.000 C 
ENDBRANCH   7   9
ENDBRANCH   6   7
ENDBRANCH   5   6
ENDBRANCH   3   5
ENDBRANCH   1   3
BRANCH   1  11
ATOM     11  C   UNL     1       4.430   3.521  17.130  0.00  0.00    +0.000 C 
BRANCH  11  12
ATOM     12  C   UNL     1       3.589   4.743  17.501  0.00  0.00    +0.000 C 
BRANCH  12  13
ATOM     13  C   UNL     1       2.820   4.531  18.779  0.00  0.00    +0.000 C 
ATOM     14  C   UNL     1       3.143   3.603  19.687  0.00  0.00    +0.000 C 
BRANCH  14  15
ATOM     15  S   UNL     1       2.268   3.573  21.246  0.00  0.00    +0.000 S 
ATOM     16  C   UNL     1       0.669   3.002  20.619  0.00  0.00    +0.000 C 
ATOM     17  O   UNL     1       2.908   2.374  22.032  0.00  0.00    +0.000 OA
ENDBRANCH  14  15
ENDBRANCH  12  13
ENDBRANCH  11  12
ENDBRANCH   1  11
TORSDOF 9
ENDMDL
MODEL 4
REMARK VINA RESULT:      -5.0      2.933      6.904
REMARK  Name = 
REMARK  12 active torsions:
REMARK  status: ('A' for Active; 'I' for Inactive)
REMARK    1  A    between atoms: C_1  and  C_2
REMARK    2  A    between atoms: C_2  and  C_3
REMARK    3  A    between atoms: C_2  and  C_4
REMARK    4  A    between atoms: C_4  and  C_5
REMARK    5  A    between atoms: C_5  and  S_6
REMARK    6  A    between atoms: S_6  and  C_7
REMARK    7  A    between atoms: C_7  and  N_9
REMARK    8  A    between atoms: N_9  and  C_10
REMARK    9  A    between atoms: C_10  and  C_11
REMARK   10  A    between atoms: C_11  and  C_12
REMARK   11  A    between atoms: C_13  and  S_14
REMARK   12  A    between atoms: S_14  and  C_15
REMARK                            x       y       z     vdW  Elec       q    Type
REMARK                         _______ _______ _______ _____ _____    ______ ____
ROOT
ATOM      1  N   UNL     1       6.157   4.796  17.794  0.00  0.00    +0.000 N 
ATOM      2  H   UNL     1       5.884   3.979  17.261  0.00  0.00    +0.000 HD
ENDROOT
BRANCH   1   3
ATOM      3  C   UNL     1       6.423   5.897  17.018  0.00  0.00    +0.000 C 
ATOM      4  S   UNL     1       7.351   7.211  17.459  0.00  0.00    +0.000 S 
BRANCH   3   5
ATOM      5  S   UNL     1       5.508   5.761  15.528  0.00  0.00    +0.000 S 
BRANCH   5   6
ATOM      6  C   UNL     1       6.635   4.774  14.503  0.00  0.00    +0.000 C 
BRANCH   6   7
ATOM      7  C   UNL     1       5.892   3.611  13.833  0.00  0.00    +0.000 C 
BRANCH   7   9
ATOM      8  C   UNL     1       7.091   3.022  11.686  0.00  0.00    +0.000 C 
ATOM      9  C   UNL     1       5.873   3.726  12.294  0.00  0.00    +0.000 C 
ATOM     10  C   UNL     1       4.597   3.152  11.675  0.00  0.00    +0.000 C 
ENDBRANCH   7   9
ENDBRANCH   6   7
ENDBRANCH   5   6
ENDBRANCH   3   5
ENDBRANCH   1   3
BRANCH   1  11
ATOM     11  C   UNL     1       5.754   4.847  19.197  0.00  0.00    +0.000 C 
BRANCH  11  12
ATOM     12  C   UNL     1       4.404   5.532  19.413  0.00  0.00    +0.000 C 
BRANCH  12  13
ATOM     13  C   UNL     1       3.252   4.579  19.235  0.00  0.00    +0.000 C 
ATOM     14  C   UNL     1       3.357   3.257  19.409  0.00  0.00    +0.000 C 
BRANCH  14  15
ATOM     15  S   UNL     1       1.879   2.253  19.351  0.00  0.00    +0.000 S 
ATOM     16  C   UNL     1       1.143   2.809  20.908  0.00  0.00    +0.000 C 
ATOM     17  O   UNL     1       1.026   2.877  18.190  0.00  0.00    +0.000 OA
ENDBRANCH  14  15
ENDBRANCH  12  13
ENDBRANCH  11  12
ENDBRANCH   1  11
TORSDOF 9
ENDMDL
MODEL 5
REMARK VINA RESULT:      -5.0      3.637      4.823
REMARK  Name = 
REMARK  12 active torsions:
REMARK  status: ('A' for Active; 'I' for Inactive)
REMARK    1  A    between atoms: C_1  and  C_2
REMARK    2  A    between atoms: C_2  and  C_3
REMARK    3  A    between atoms: C_2  and  C_4
REMARK    4  A    between atoms: C_4  and  C_5
REMARK    5  A    between atoms: C_5  and  S_6
REMARK    6  A    between atoms: S_6  and  C_7
REMARK    7  A    between atoms: C_7  and  N_9
REMARK    8  A    between atoms: N_9  and  C_10
REMARK    9  A    between atoms: C_10  and  C_11
REMARK   10  A    between atoms: C_11  and  C_12
REMARK   11  A    between atoms: C_13  and  S_14
REMARK   12  A    between atoms: S_14  and  C_15
REMARK                            x       y       z     vdW  Elec       q    Type
REMARK                         _______ _______ _______ _____ _____    ______ ____
ROOT
ATOM      1  N   UNL     1       5.243   3.639  18.366  0.00  0.00    +0.000 N 
ATOM      2  H   UNL     1       5.896   4.049  19.025  0.00  0.00    +0.000 HD
ENDROOT
BRANCH   1   3
ATOM      3  C   UNL     1       4.386   2.729  18.932  0.00  0.00    +0.000 C 
ATOM      4  S   UNL     1       4.623   1.913  20.367  0.00  0.00    +0.000 S 
BRANCH   3   5
ATOM      5  S   UNL     1       3.053   2.458  17.824  0.00  0.00    +0.000 S 
BRANCH   5   6
ATOM      6  C   UNL     1       1.731   1.963  18.966  0.00  0.00    +0.000 C 
BRANCH   6   7
ATOM      7  C   UNL     1       0.767   3.128  19.227  0.00  0.00    +0.000 C 
BRANCH   7   9
ATOM      8  C   UNL     1       1.369   2.708  21.648  0.00  0.00    +0.000 C 
ATOM      9  C   UNL     1       0.974   3.770  20.616  0.00  0.00    +0.000 C 
ATOM     10  C   UNL     1       2.029   4.878  20.602  0.00  0.00    +0.000 C 
ENDBRANCH   7   9
ENDBRANCH   6   7
ENDBRANCH   5   6
ENDBRANCH   3   5
ENDBRANCH   1   3
BRANCH   1  11
ATOM     11  C   UNL     1       4.971   4.386  17.141  0.00  0.00    +0.000 C 
BRANCH  11  12
ATOM     12  C   UNL     1       5.081   5.901  17.319  0.00  0.00    +0.000 C 
BRANCH  12  13
ATOM     13  C   UNL     1       3.756   6.526  17.668  0.00  0.00    +0.000 C 
ATOM     14  C   UNL     1       3.538   7.845  17.650  0.00  0.00    +0.000 C 
BRANCH  14  15
ATOM     15  S   UNL     1       1.876   8.454  17.902  0.00  0.00    +0.000 S 
ATOM     16  C   UNL     1       1.836   8.317  19.707  0.00  0.00    +0.000 C 
ATOM     17  O   UNL     1       1.961   9.984  17.560  0.00  0.00    +0.000 OA
ENDBRANCH  14  15
ENDBRANCH  12  13
ENDBRANCH  11  12
ENDBRANCH   1  11
TORSDOF 9
ENDMDL
MODEL 6
REMARK VINA RESULT:      -4.9      3.257      7.239
REMARK  Name = 
REMARK  12 active torsions:
REMARK  status: ('A' for Active; 'I' for Inactive)
REMARK    1  A    between atoms: C_1  and  C_2
REMARK    2  A    between atoms: C_2  and  C_3
REMARK    3  A    between atoms: C_2  and  C_4
REMARK    4  A    between atoms: C_4  and  C_5
REMARK    5  A    between atoms: C_5  and  S_6
REMARK    6  A    between atoms: S_6  and  C_7
REMARK    7  A    between atoms: C_7  and  N_9
REMARK    8  A    between atoms: N_9  and  C_10
REMARK    9  A    between atoms: C_10  and  C_11
REMARK   10  A    between atoms: C_11  and  C_12
REMARK   11  A    between atoms: C_13  and  S_14
REMARK   12  A    between atoms: S_14  and  C_15
REMARK                            x       y       z     vdW  Elec       q    Type
REMARK                         _______ _______ _______ _____ _____    ______ ____
ROOT
ATOM      1  N   UNL     1       4.758   5.285  16.414  0.00  0.00    +0.000 N 
ATOM      2  H   UNL     1       4.080   5.023  15.708  0.00  0.00    +0.000 HD
ENDROOT
BRANCH   1   3
ATOM      3  C   UNL     1       5.941   4.594  16.326  0.00  0.00    +0.000 C 
ATOM      4  S   UNL     1       7.252   4.753  17.346  0.00  0.00    +0.000 S 
BRANCH   3   5
ATOM      5  S   UNL     1       5.904   3.610  14.875  0.00  0.00    +0.000 S 
BRANCH   5   6
ATOM      6  C   UNL     1       6.841   4.645  13.715  0.00  0.00    +0.000 C 
BRANCH   6   7
ATOM      7  C   UNL     1       6.732   4.103  12.284  0.00  0.00    +0.000 C 
BRANCH   7   9
ATOM      8  C   UNL     1       4.422   3.444  11.491  0.00  0.00    +0.000 C 
ATOM      9  C   UNL     1       5.710   2.952  12.161  0.00  0.00    +0.000 C 
ATOM     10  C   UNL     1       6.260   1.757  11.381  0.00  0.00    +0.000 C 
ENDBRANCH   7   9
ENDBRANCH   6   7
ENDBRANCH   5   6
ENDBRANCH   3   5
ENDBRANCH   1   3
BRANCH   1  11
ATOM     11  C   UNL     1       4.608   6.600  17.031  0.00  0.00    +0.000 C 
BRANCH  11  12
ATOM     12  C   UNL     1       3.586   6.622  18.168  0.00  0.00    +0.000 C 
BRANCH  12  13
ATOM     13  C   UNL     1       2.981   5.263  18.408  0.00  0.00    +0.000 C 
ATOM     14  C   UNL     1       3.091   4.604  19.567  0.00  0.00    +0.000 C 
BRANCH  14  15
ATOM     15  S   UNL     1       2.174   3.086  19.792  0.00  0.00    +0.000 S 
ATOM     16  C   UNL     1       2.452   2.893  21.570  0.00  0.00    +0.000 C 
ATOM     17  O   UNL     1       0.672   3.502  19.605  0.00  0.00    +0.000 OA
ENDBRANCH  14  15
ENDBRANCH  12  13
ENDBRANCH  11  12
ENDBRANCH   1  11
TORSDOF 9
ENDMDL
MODEL 7
REMARK VINA RESULT:      -4.9      5.021      6.328
REMARK  Name = 
REMARK  12 active torsions:
REMARK  status: ('A' for Active; 'I' for Inactive)
REMARK    1  A    between atoms: C_1  and  C_2
REMARK    2  A    between atoms: C_2  and  C_3
REMARK    3  A    between atoms: C_2  and  C_4
REMARK    4  A    between atoms: C_4  and  C_5
REMARK    5  A    between atoms: C_5  and  S_6
REMARK    6  A    between atoms: S_6  and  C_7
REMARK    7  A    between atoms: C_7  and  N_9
REMARK    8  A    between atoms: N_9  and  C_10
REMARK    9  A    between atoms: C_10  and  C_11
REMARK   10  A    between atoms: C_11  and  C_12
REMARK   11  A    between atoms: C_13  and  S_14
REMARK   12  A    between atoms: S_14  and  C_15
REMARK                            x       y       z     vdW  Elec       q    Type
REMARK                         _______ _______ _______ _____ _____    ______ ____
ROOT
ATOM      1  N   UNL     1       7.542   6.686  16.895  0.00  0.00    +0.000 N 
ATOM      2  H   UNL     1       8.443   6.227  16.958  0.00  0.00    +0.000 HD
ENDROOT
BRANCH   1   3
ATOM      3  C   UNL     1       6.485   5.816  16.797  0.00  0.00    +0.000 C 
ATOM      4  S   UNL     1       5.780   5.277  15.385  0.00  0.00    +0.000 S 
BRANCH   3   5
ATOM      5  S   UNL     1       5.901   5.467  18.414  0.00  0.00    +0.000 S 
BRANCH   5   6
ATOM      6  C   UNL     1       4.160   5.067  18.089  0.00  0.00    +0.000 C 
BRANCH   6   7
ATOM      7  C   UNL     1       3.423   4.726  19.391  0.00  0.00    +0.000 C 
BRANCH   7   9
ATOM      8  C   UNL     1       1.465   3.982  17.972  0.00  0.00    +0.000 C 
ATOM      9  C   UNL     1       1.888   4.751  19.229  0.00  0.00    +0.000 C 
ATOM     10  C   UNL     1       1.157   4.174  20.443  0.00  0.00    +0.000 C 
ENDBRANCH   7   9
ENDBRANCH   6   7
ENDBRANCH   5   6
ENDBRANCH   3   5
ENDBRANCH   1   3
BRANCH   1  11
ATOM     11  C   UNL     1       7.448   8.052  17.405  0.00  0.00    +0.000 C 
BRANCH  11  12
ATOM     12  C   UNL     1       8.445   8.348  18.526  0.00  0.00    +0.000 C 
BRANCH  12  13
ATOM     13  C   UNL     1       8.934   9.772  18.485  0.00  0.00    +0.000 C 
ATOM     14  C   UNL     1       9.317  10.450  19.573  0.00  0.00    +0.000 C 
BRANCH  14  15
ATOM     15  S   UNL     1      10.053  12.067  19.373  0.00  0.00    +0.000 S 
ATOM     16  C   UNL     1      10.679  11.845  17.689  0.00  0.00    +0.000 C 
ATOM     17  O   UNL     1       8.830  13.047  19.284  0.00  0.00    +0.000 OA
ENDBRANCH  14  15
ENDBRANCH  12  13
ENDBRANCH  11  12
ENDBRANCH   1  11
TORSDOF 9
ENDMDL
MODEL 8
REMARK VINA RESULT:      -4.9      3.541      7.149
REMARK  Name = 
REMARK  12 active torsions:
REMARK  status: ('A' for Active; 'I' for Inactive)
REMARK    1  A    between atoms: C_1  and  C_2
REMARK    2  A    between atoms: C_2  and  C_3
REMARK    3  A    between atoms: C_2  and  C_4
REMARK    4  A    between atoms: C_4  and  C_5
REMARK    5  A    between atoms: C_5  and  S_6
REMARK    6  A    between atoms: S_6  and  C_7
REMARK    7  A    between atoms: C_7  and  N_9
REMARK    8  A    between atoms: N_9  and  C_10
REMARK    9  A    between atoms: C_10  and  C_11
REMARK   10  A    between atoms: C_11  and  C_12
REMARK   11  A    between atoms: C_13  and  S_14
REMARK   12  A    between atoms: S_14  and  C_15
REMARK                            x       y       z     vdW  Elec       q    Type
REMARK                         _______ _______ _______ _____ _____    ______ ____
ROOT
ATOM      1  N   UNL     1       4.694   6.424  16.881  0.00  0.00    +0.000 N 
ATOM      2  H   UNL     1       4.787   7.108  16.139  0.00  0.00    +0.000 HD
ENDROOT
BRANCH   1   3
ATOM      3  C   UNL     1       5.756   5.559  16.970  0.00  0.00    +0.000 C 
ATOM      4  S   UNL     1       7.260   5.908  17.600  0.00  0.00    +0.000 S 
BRANCH   3   5
ATOM      5  S   UNL     1       5.315   4.056  16.180  0.00  0.00    +0.000 S 
BRANCH   5   6
ATOM      6  C   UNL     1       5.392   4.534  14.430  0.00  0.00    +0.000 C 
BRANCH   6   7
ATOM      7  C   UNL     1       6.431   3.692  13.677  0.00  0.00    +0.000 C 
BRANCH   7   9
ATOM      8  C   UNL     1       6.882   2.384  11.560  0.00  0.00    +0.000 C 
ATOM      9  C   UNL     1       6.106   3.555  12.173  0.00  0.00    +0.000 C 
ATOM     10  C   UNL     1       4.612   3.364  11.908  0.00  0.00    +0.000 C 
ENDBRANCH   7   9
ENDBRANCH   6   7
ENDBRANCH   5   6
ENDBRANCH   3   5
ENDBRANCH   1   3
BRANCH   1  11
ATOM     11  C   UNL     1       3.794   6.750  17.985  0.00  0.00    +0.000 C 
BRANCH  11  12
ATOM     12  C   UNL     1       2.446   6.034  17.896  0.00  0.00    +0.000 C 
BRANCH  12  13
ATOM     13  C   UNL     1       2.482   4.679  18.553  0.00  0.00    +0.000 C 
ATOM     14  C   UNL     1       2.671   4.502  19.865  0.00  0.00    +0.000 C 
BRANCH  14  15
ATOM     15  S   UNL     1       2.508   2.860  20.553  0.00  0.00    +0.000 S 
ATOM     16  C   UNL     1       4.205   2.303  20.260  0.00  0.00    +0.000 C 
ATOM     17  O   UNL     1       2.362   3.093  22.099  0.00  0.00    +0.000 OA
ENDBRANCH  14  15
ENDBRANCH  12  13
ENDBRANCH  11  12
ENDBRANCH   1  11
TORSDOF 9
ENDMDL
MODEL 9
REMARK VINA RESULT:      -4.9      5.080      7.618
REMARK  Name = 
REMARK  12 active torsions:
REMARK  status: ('A' for Active; 'I' for Inactive)
REMARK    1  A    between atoms: C_1  and  C_2
REMARK    2  A    between atoms: C_2  and  C_3
REMARK    3  A    between atoms: C_2  and  C_4
REMARK    4  A    between atoms: C_4  and  C_5
REMARK    5  A    between atoms: C_5  and  S_6
REMARK    6  A    between atoms: S_6  and  C_7
REMARK    7  A    between atoms: C_7  and  N_9
REMARK    8  A    between atoms: N_9  and  C_10
REMARK    9  A    between atoms: C_10  and  C_11
REMARK   10  A    between atoms: C_11  and  C_12
REMARK   11  A    between atoms: C_13  and  S_14
REMARK   12  A    between atoms: S_14  and  C_15
REMARK                            x       y       z     vdW  Elec       q    Type
REMARK                         _______ _______ _______ _____ _____    ______ ____
ROOT
ATOM      1  N   UNL     1       2.617   7.498  18.550  0.00  0.00    +0.000 N 
ATOM      2  H   UNL     1       1.928   7.153  19.209  0.00  0.00    +0.000 HD
ENDROOT
BRANCH   1   3
ATOM      3  C   UNL     1       3.612   6.596  18.267  0.00  0.00    +0.000 C 
ATOM      4  S   UNL     1       4.645   6.648  16.959  0.00  0.00    +0.000 S 
BRANCH   3   5
ATOM      5  S   UNL     1       3.529   5.292  19.438  0.00  0.00    +0.000 S 
BRANCH   5   6
ATOM      6  C   UNL     1       2.093   5.793  20.431  0.00  0.00    +0.000 C 
BRANCH   6   7
ATOM      7  C   UNL     1       1.013   4.703  20.420  0.00  0.00    +0.000 C 
BRANCH   7   9
ATOM      8  C   UNL     1       1.568   2.512  21.554  0.00  0.00    +0.000 C 
ATOM      9  C   UNL     1       1.599   3.287  20.233  0.00  0.00    +0.000 C 
ATOM     10  C   UNL     1       0.864   2.483  19.158  0.00  0.00    +0.000 C 
ENDBRANCH   7   9
ENDBRANCH   6   7
ENDBRANCH   5   6
ENDBRANCH   3   5
ENDBRANCH   1   3
BRANCH   1  11
ATOM     11  C   UNL     1       2.212   8.591  17.669  0.00  0.00    +0.000 C 
BRANCH  11  12
ATOM     12  C   UNL     1       1.260   9.584  18.337  0.00  0.00    +0.000 C 
BRANCH  12  13
ATOM     13  C   UNL     1       1.129   9.333  19.816  0.00  0.00    +0.000 C 
ATOM     14  C   UNL     1       0.312  10.033  20.611  0.00  0.00    +0.000 C 
BRANCH  14  15
ATOM     15  S   UNL     1       0.105   9.519  22.311  0.00  0.00    +0.000 S 
ATOM     16  C   UNL     1      -0.970  10.873  22.848  0.00  0.00    +0.000 C 
ATOM     17  O   UNL     1      -0.788   8.230  22.227  0.00  0.00    +0.000 OA
ENDBRANCH  14  15
ENDBRANCH  12  13
ENDBRANCH  11  12
ENDBRANCH   1  11
TORSDOF 9
ENDMDL
