MODEL 1
REMARK VINA RESULT:      -6.8      0.000      0.000
REMARK  Name = 
REMARK  5 active torsions:
REMARK  status: ('A' for Active; 'I' for Inactive)
REMARK    1  A    between atoms: C_1  and  N_2
REMARK    2  A    between atoms: N_2  and  S_3
REMARK    3  A    between atoms: S_3  and  C_6
REMARK    4  A    between atoms: C_9  and  N_10
REMARK    5  A    between atoms: C_11  and  C_13
REMARK                            x       y       z     vdW  Elec       q    Type
REMARK                         _______ _______ _______ _____ _____    ______ ____
ROOT
ATOM      1  C   UNL     1       2.959   5.138  18.333  0.00  0.00    +0.000 A 
ATOM      2  C   UNL     1       3.171   6.411  17.818  0.00  0.00    +0.000 A 
ATOM      3  C   UNL     1       2.743   7.527  18.538  0.00  0.00    +0.000 A 
ATOM      4  C   UNL     1       2.092   7.395  19.771  0.00  0.00    +0.000 A 
ATOM      5  C   UNL     1       1.885   6.105  20.281  0.00  0.00    +0.000 A 
ATOM      6  C   UNL     1       2.307   4.976  19.561  0.00  0.00    +0.000 A 
ENDROOT
BRANCH   4   7
ATOM      7  N   UNL     1       1.616   8.503  20.518  0.00  0.00    +0.000 N 
ATOM      8  C   UNL     1       0.810   9.519  20.029  0.00  0.00    +0.000 C 
ATOM      9  O   UNL     1       0.401   9.618  18.876  0.00  0.00    +0.000 OA
ATOM     10  H   UNL     1       1.896   8.548  21.490  0.00  0.00    +0.000 HD
BRANCH   8  11
ATOM     11  C   UNL     1       0.354  10.586  20.962  0.00  0.00    +0.000 A 
ATOM     12  C   UNL     1      -0.470  10.142  22.019  0.00  0.00    +0.000 A 
ATOM     13  C   UNL     1      -1.080  11.044  22.888  0.00  0.00    +0.000 A 
ATOM     14  C   UNL     1      -0.868  12.406  22.714  0.00  0.00    +0.000 A 
ATOM     15 CL   UNL     1      -1.656  13.527  23.753  0.00  0.00    +0.000 Cl
ATOM     16  C   UNL     1      -0.039  12.866  21.691  0.00  0.00    +0.000 A 
ATOM     17  C   UNL     1       0.576  11.959  20.813  0.00  0.00    +0.000 A 
ATOM     18 CL   UNL     1       1.543  12.634  19.551  0.00  0.00    +0.000 Cl
ENDBRANCH   8  11
ENDBRANCH   4   7
BRANCH   1  19
ATOM     19  S   UNL     1       3.426   3.728  17.365  0.00  0.00    +0.000 S 
ATOM     20  O   UNL     1       4.361   4.167  16.352  0.00  0.00    +0.000 OA
ATOM     21  O   UNL     1       2.234   2.987  17.026  0.00  0.00    +0.000 OA
BRANCH  19  23
ATOM     22  C   UNL     1       3.743   1.586  18.965  0.00  0.00    +0.000 C 
ATOM     23  N   UNL     1       4.325   2.820  18.457  0.00  0.00    +0.000 NA
ATOM     24  H   UNL     1       5.318   2.824  18.224  0.00  0.00    +0.000 HD
ENDBRANCH  19  23
ENDBRANCH   1  19
TORSDOF 4
ENDMDL
MODEL 2
REMARK VINA RESULT:      -6.8      1.039      1.463
REMARK  Name = 
REMARK  5 active torsions:
REMARK  status: ('A' for Active; 'I' for Inactive)
REMARK    1  A    between atoms: C_1  and  N_2
REMARK    2  A    between atoms: N_2  and  S_3
REMARK    3  A    between atoms: S_3  and  C_6
REMARK    4  A    between atoms: C_9  and  N_10
REMARK    5  A    between atoms: C_11  and  C_13
REMARK                            x       y       z     vdW  Elec       q    Type
REMARK                         _______ _______ _______ _____ _____    ______ ____
ROOT
ATOM      1  C   UNL     1       3.010   4.272  19.091  0.00  0.00    +0.000 A 
ATOM      2  C   UNL     1       1.995   4.152  20.032  0.00  0.00    +0.000 A 
ATOM      3  C   UNL     1       1.477   5.297  20.639  0.00  0.00    +0.000 A 
ATOM      4  C   UNL     1       1.965   6.572  20.328  0.00  0.00    +0.000 A 
ATOM      5  C   UNL     1       2.988   6.681  19.375  0.00  0.00    +0.000 A 
ATOM      6  C   UNL     1       3.519   5.534  18.763  0.00  0.00    +0.000 A 
ENDROOT
BRANCH   4   7
ATOM      7  N   UNL     1       1.485   7.757  20.945  0.00  0.00    +0.000 N 
ATOM      8  C   UNL     1       1.053   8.893  20.281  0.00  0.00    +0.000 C 
ATOM      9  O   UNL     1       1.034   9.048  19.063  0.00  0.00    +0.000 OA
ATOM     10  H   UNL     1       1.463   7.763  21.958  0.00  0.00    +0.000 HD
BRANCH   8  11
ATOM     11  C   UNL     1       0.529  10.036  21.078  0.00  0.00    +0.000 A 
ATOM     12  C   UNL     1      -0.254   9.674  22.196  0.00  0.00    +0.000 A 
ATOM     13  C   UNL     1      -0.920  10.635  22.954  0.00  0.00    +0.000 A 
ATOM     14  C   UNL     1      -0.807  11.974  22.605  0.00  0.00    +0.000 A 
ATOM     15 CL   UNL     1      -1.665  13.161  23.506  0.00  0.00    +0.000 Cl
ATOM     16  C   UNL     1      -0.020  12.357  21.519  0.00  0.00    +0.000 A 
ATOM     17  C   UNL     1       0.652  11.391  20.753  0.00  0.00    +0.000 A 
ATOM     18 CL   UNL     1       1.560  11.965  19.401  0.00  0.00    +0.000 Cl
ENDBRANCH   8  11
ENDBRANCH   4   7
BRANCH   1  19
ATOM     19  S   UNL     1       3.721   2.803  18.397  0.00  0.00    +0.000 S 
ATOM     20  O   UNL     1       4.315   3.148  17.124  0.00  0.00    +0.000 OA
ATOM     21  O   UNL     1       2.767   1.727  18.522  0.00  0.00    +0.000 OA
BRANCH  19  23
ATOM     22  C   UNL     1       4.731   1.790  20.677  0.00  0.00    +0.000 C 
ATOM     23  N   UNL     1       5.007   2.498  19.436  0.00  0.00    +0.000 NA
ATOM     24  H   UNL     1       5.858   2.261  18.925  0.00  0.00    +0.000 HD
ENDBRANCH  19  23
ENDBRANCH   1  19
TORSDOF 4
ENDMDL
MODEL 3
REMARK VINA RESULT:      -6.8      1.840      2.242
REMARK  Name = 
REMARK  5 active torsions:
REMARK  status: ('A' for Active; 'I' for Inactive)
REMARK    1  A    between atoms: C_1  and  N_2
REMARK    2  A    between atoms: N_2  and  S_3
REMARK    3  A    between atoms: S_3  and  C_6
REMARK    4  A    between atoms: C_9  and  N_10
REMARK    5  A    between atoms: C_11  and  C_13
REMARK                            x       y       z     vdW  Elec       q    Type
REMARK                         _______ _______ _______ _____ _____    ______ ____
ROOT
ATOM      1  C   UNL     1       3.463   4.843  19.597  0.00  0.00    +0.000 A 
ATOM      2  C   UNL     1       2.517   4.710  20.606  0.00  0.00    +0.000 A 
ATOM      3  C   UNL     1       1.664   5.776  20.897  0.00  0.00    +0.000 A 
ATOM      4  C   UNL     1       1.744   6.987  20.199  0.00  0.00    +0.000 A 
ATOM      5  C   UNL     1       2.700   7.107  19.180  0.00  0.00    +0.000 A 
ATOM      6  C   UNL     1       3.567   6.043  18.884  0.00  0.00    +0.000 A 
ENDROOT
BRANCH   4   7
ATOM      7  N   UNL     1       0.915   8.102  20.485  0.00  0.00    +0.000 N 
ATOM      8  C   UNL     1       1.109   9.008  21.515  0.00  0.00    +0.000 C 
ATOM      9  O   UNL     1       2.018   8.972  22.339  0.00  0.00    +0.000 OA
ATOM     10  H   UNL     1       0.113   8.237  19.880  0.00  0.00    +0.000 HD
BRANCH   8  11
ATOM     11  C   UNL     1       0.172  10.157  21.647  0.00  0.00    +0.000 A 
ATOM     12  C   UNL     1      -0.490  10.247  22.891  0.00  0.00    +0.000 A 
ATOM     13  C   UNL     1      -1.493  11.190  23.110  0.00  0.00    +0.000 A 
ATOM     14  C   UNL     1      -1.843  12.060  22.086  0.00  0.00    +0.000 A 
ATOM     15 CL   UNL     1      -3.112  13.193  22.333  0.00  0.00    +0.000 Cl
ATOM     16  C   UNL     1      -1.186  12.005  20.857  0.00  0.00    +0.000 A 
ATOM     17  C   UNL     1      -0.175  11.056  20.633  0.00  0.00    +0.000 A 
ATOM     18 CL   UNL     1       0.541  11.039  19.062  0.00  0.00    +0.000 Cl
ENDBRANCH   8  11
ENDBRANCH   4   7
BRANCH   1  19
ATOM     19  S   UNL     1       4.600   3.515  19.301  0.00  0.00    +0.000 S 
ATOM     20  O   UNL     1       4.283   2.439  20.214  0.00  0.00    +0.000 OA
ATOM     21  O   UNL     1       5.933   4.062  19.206  0.00  0.00    +0.000 OA
BRANCH  19  23
ATOM     22  C   UNL     1       2.719   2.749  17.534  0.00  0.00    +0.000 C 
ATOM     23  N   UNL     1       4.137   2.974  17.778  0.00  0.00    +0.000 NA
ATOM     24  H   UNL     1       4.689   3.407  17.038  0.00  0.00    +0.000 HD
ENDBRANCH  19  23
ENDBRANCH   1  19
TORSDOF 4
ENDMDL
MODEL 4
REMARK VINA RESULT:      -6.8      2.775      3.395
REMARK  Name = 
REMARK  5 active torsions:
REMARK  status: ('A' for Active; 'I' for Inactive)
REMARK    1  A    between atoms: C_1  and  N_2
REMARK    2  A    between atoms: N_2  and  S_3
REMARK    3  A    between atoms: S_3  and  C_6
REMARK    4  A    between atoms: C_9  and  N_10
REMARK    5  A    between atoms: C_11  and  C_13
REMARK                            x       y       z     vdW  Elec       q    Type
REMARK                         _______ _______ _______ _____ _____    ______ ____
ROOT
ATOM      1  C   UNL     1       2.950   4.465  20.049  0.00  0.00    +0.000 A 
ATOM      2  C   UNL     1       1.847   4.951  20.741  0.00  0.00    +0.000 A 
ATOM      3  C   UNL     1       1.467   6.285  20.585  0.00  0.00    +0.000 A 
ATOM      4  C   UNL     1       2.181   7.155  19.751  0.00  0.00    +0.000 A 
ATOM      5  C   UNL     1       3.291   6.651  19.056  0.00  0.00    +0.000 A 
ATOM      6  C   UNL     1       3.684   5.312  19.212  0.00  0.00    +0.000 A 
ENDROOT
BRANCH   4   7
ATOM      7  N   UNL     1       1.844   8.523  19.589  0.00  0.00    +0.000 N 
ATOM      8  C   UNL     1       1.701   9.181  18.378  0.00  0.00    +0.000 C 
ATOM      9  O   UNL     1       1.858   8.681  17.268  0.00  0.00    +0.000 OA
ATOM     10  H   UNL     1       1.701   9.058  20.437  0.00  0.00    +0.000 HD
BRANCH   8  11
ATOM     11  C   UNL     1       1.292  10.612  18.381  0.00  0.00    +0.000 A 
ATOM     12  C   UNL     1       2.347  11.535  18.208  0.00  0.00    +0.000 A 
ATOM     13  C   UNL     1       2.134  12.907  18.323  0.00  0.00    +0.000 A 
ATOM     14  C   UNL     1       0.858  13.375  18.610  0.00  0.00    +0.000 A 
ATOM     15 CL   UNL     1       0.597  15.064  18.802  0.00  0.00    +0.000 Cl
ATOM     16  C   UNL     1      -0.204  12.483  18.761  0.00  0.00    +0.000 A 
ATOM     17  C   UNL     1       0.008  11.100  18.646  0.00  0.00    +0.000 A 
ATOM     18 CL   UNL     1      -1.362  10.080  18.900  0.00  0.00    +0.000 Cl
ENDBRANCH   8  11
ENDBRANCH   4   7
BRANCH   1  19
ATOM     19  S   UNL     1       3.474   2.794  20.329  0.00  0.00    +0.000 S 
ATOM     20  O   UNL     1       3.075   2.415  21.666  0.00  0.00    +0.000 OA
ATOM     21  O   UNL     1       4.839   2.658  19.878  0.00  0.00    +0.000 OA
BRANCH  19  23
ATOM     22  C   UNL     1       2.688   2.077  17.856  0.00  0.00    +0.000 C 
ATOM     23  N   UNL     1       2.480   1.924  19.289  0.00  0.00    +0.000 NA
ATOM     24  H   UNL     1       2.279   0.992  19.650  0.00  0.00    +0.000 HD
ENDBRANCH  19  23
ENDBRANCH   1  19
TORSDOF 4
ENDMDL
MODEL 5
REMARK VINA RESULT:      -6.7      2.803      3.292
REMARK  Name = 
REMARK  5 active torsions:
REMARK  status: ('A' for Active; 'I' for Inactive)
REMARK    1  A    between atoms: C_1  and  N_2
REMARK    2  A    between atoms: N_2  and  S_3
REMARK    3  A    between atoms: S_3  and  C_6
REMARK    4  A    between atoms: C_9  and  N_10
REMARK    5  A    between atoms: C_11  and  C_13
REMARK                            x       y       z     vdW  Elec       q    Type
REMARK                         _______ _______ _______ _____ _____    ______ ____
ROOT
ATOM      1  C   UNL     1       4.999   5.871  17.955  0.00  0.00    +0.000 A 
ATOM      2  C   UNL     1       4.640   6.870  17.057  0.00  0.00    +0.000 A 
ATOM      3  C   UNL     1       3.501   7.639  17.300  0.00  0.00    +0.000 A 
ATOM      4  C   UNL     1       2.700   7.422  18.427  0.00  0.00    +0.000 A 
ATOM      5  C   UNL     1       3.073   6.413  19.327  0.00  0.00    +0.000 A 
ATOM      6  C   UNL     1       4.215   5.630  19.088  0.00  0.00    +0.000 A 
ENDROOT
BRANCH   4   7
ATOM      7  N   UNL     1       1.519   8.162  18.692  0.00  0.00    +0.000 N 
ATOM      8  C   UNL     1       1.235   9.429  18.208  0.00  0.00    +0.000 C 
ATOM      9  O   UNL     1       1.968  10.102  17.490  0.00  0.00    +0.000 OA
ATOM     10  H   UNL     1       0.831   7.719  19.291  0.00  0.00    +0.000 HD
BRANCH   8  11
ATOM     11  C   UNL     1      -0.077  10.048  18.540  0.00  0.00    +0.000 A 
ATOM     12  C   UNL     1      -1.111   9.788  17.614  0.00  0.00    +0.000 A 
ATOM     13  C   UNL     1      -2.353  10.410  17.723  0.00  0.00    +0.000 A 
ATOM     14  C   UNL     1      -2.578  11.300  18.765  0.00  0.00    +0.000 A 
ATOM     15 CL   UNL     1      -4.092  12.108  18.878  0.00  0.00    +0.000 Cl
ATOM     16  C   UNL     1      -1.580  11.553  19.705  0.00  0.00    +0.000 A 
ATOM     17  C   UNL     1      -0.327  10.928  19.598  0.00  0.00    +0.000 A 
ATOM     18 CL   UNL     1       0.856  11.349  20.784  0.00  0.00    +0.000 Cl
ENDBRANCH   8  11
ENDBRANCH   4   7
BRANCH   1  19
ATOM     19  S   UNL     1       6.395   4.843  17.586  0.00  0.00    +0.000 S 
ATOM     20  O   UNL     1       6.750   4.118  18.787  0.00  0.00    +0.000 OA
ATOM     21  O   UNL     1       7.366   5.626  16.859  0.00  0.00    +0.000 OA
BRANCH  19  23
ATOM     22  C   UNL     1       6.110   3.771  15.133  0.00  0.00    +0.000 C 
ATOM     23  N   UNL     1       5.739   3.703  16.539  0.00  0.00    +0.000 NA
ATOM     24  H   UNL     1       5.673   2.783  16.975  0.00  0.00    +0.000 HD
ENDBRANCH  19  23
ENDBRANCH   1  19
TORSDOF 4
ENDMDL
MODEL 6
REMARK VINA RESULT:      -6.7      4.754      8.851
REMARK  Name = 
REMARK  5 active torsions:
REMARK  status: ('A' for Active; 'I' for Inactive)
REMARK    1  A    between atoms: C_1  and  N_2
REMARK    2  A    between atoms: N_2  and  S_3
REMARK    3  A    between atoms: S_3  and  C_6
REMARK    4  A    between atoms: C_9  and  N_10
REMARK    5  A    between atoms: C_11  and  C_13
REMARK                            x       y       z     vdW  Elec       q    Type
REMARK                         _______ _______ _______ _____ _____    ______ ____
ROOT
ATOM      1  C   UNL     1      -0.088  11.921  19.036  0.00  0.00    +0.000 A 
ATOM      2  C   UNL     1       1.281  12.115  18.900  0.00  0.00    +0.000 A 
ATOM      3  C   UNL     1       2.084  11.070  18.442  0.00  0.00    +0.000 A 
ATOM      4  C   UNL     1       1.542   9.819  18.122  0.00  0.00    +0.000 A 
ATOM      5  C   UNL     1       0.159   9.636  18.262  0.00  0.00    +0.000 A 
ATOM      6  C   UNL     1      -0.657  10.680  18.728  0.00  0.00    +0.000 A 
ENDROOT
BRANCH   4   7
ATOM      7  N   UNL     1       2.329   8.723  17.682  0.00  0.00    +0.000 N 
ATOM      8  C   UNL     1       2.683   7.624  18.448  0.00  0.00    +0.000 C 
ATOM      9  O   UNL     1       2.379   7.443  19.623  0.00  0.00    +0.000 OA
ATOM     10  H   UNL     1       2.658   8.758  16.724  0.00  0.00    +0.000 HD
BRANCH   8  11
ATOM     11  C   UNL     1       3.473   6.532  17.816  0.00  0.00    +0.000 A 
ATOM     12  C   UNL     1       4.599   6.959  17.081  0.00  0.00    +0.000 A 
ATOM     13  C   UNL     1       5.353   6.063  16.326  0.00  0.00    +0.000 A 
ATOM     14  C   UNL     1       4.991   4.722  16.302  0.00  0.00    +0.000 A 
ATOM     15 CL   UNL     1       5.887   3.618  15.335  0.00  0.00    +0.000 Cl
ATOM     16  C   UNL     1       3.896   4.274  17.041  0.00  0.00    +0.000 A 
ATOM     17  C   UNL     1       3.134   5.175  17.801  0.00  0.00    +0.000 A 
ATOM     18 CL   UNL     1       1.770   4.527  18.639  0.00  0.00    +0.000 Cl
ENDBRANCH   8  11
ENDBRANCH   4   7
BRANCH   1  19
ATOM     19  S   UNL     1      -1.082  13.228  19.707  0.00  0.00    +0.000 S 
ATOM     20  O   UNL     1      -0.707  14.460  19.049  0.00  0.00    +0.000 OA
ATOM     21  O   UNL     1      -1.090  13.109  21.146  0.00  0.00    +0.000 OA
BRANCH  19  23
ATOM     22  C   UNL     1      -3.691  12.696  20.101  0.00  0.00    +0.000 C 
ATOM     23  N   UNL     1      -2.615  12.849  19.132  0.00  0.00    +0.000 NA
ATOM     24  H   UNL     1      -2.821  13.329  18.256  0.00  0.00    +0.000 HD
ENDBRANCH  19  23
ENDBRANCH   1  19
TORSDOF 4
ENDMDL
MODEL 7
REMARK VINA RESULT:      -6.7      1.908      2.228
REMARK  Name = 
REMARK  5 active torsions:
REMARK  status: ('A' for Active; 'I' for Inactive)
REMARK    1  A    between atoms: C_1  and  N_2
REMARK    2  A    between atoms: N_2  and  S_3
REMARK    3  A    between atoms: S_3  and  C_6
REMARK    4  A    between atoms: C_9  and  N_10
REMARK    5  A    between atoms: C_11  and  C_13
REMARK                            x       y       z     vdW  Elec       q    Type
REMARK                         _______ _______ _______ _____ _____    ______ ____
ROOT
ATOM      1  C   UNL     1       3.688   5.213  19.109  0.00  0.00    +0.000 A 
ATOM      2  C   UNL     1       2.857   5.036  20.209  0.00  0.00    +0.000 A 
ATOM      3  C   UNL     1       1.970   6.050  20.573  0.00  0.00    +0.000 A 
ATOM      4  C   UNL     1       1.903   7.253  19.860  0.00  0.00    +0.000 A 
ATOM      5  C   UNL     1       2.746   7.418  18.751  0.00  0.00    +0.000 A 
ATOM      6  C   UNL     1       3.646   6.406  18.380  0.00  0.00    +0.000 A 
ENDROOT
BRANCH   4   7
ATOM      7  N   UNL     1       1.037   8.318  20.217  0.00  0.00    +0.000 N 
ATOM      8  C   UNL     1       1.104   9.055  21.388  0.00  0.00    +0.000 C 
ATOM      9  O   UNL     1       1.914   8.887  22.295  0.00  0.00    +0.000 OA
ATOM     10  H   UNL     1       0.307   8.551  19.553  0.00  0.00    +0.000 HD
BRANCH   8  11
ATOM     11  C   UNL     1       0.148  10.178  21.587  0.00  0.00    +0.000 A 
ATOM     12  C   UNL     1      -0.466  10.222  22.857  0.00  0.00    +0.000 A 
ATOM     13  C   UNL     1      -1.480  11.135  23.140  0.00  0.00    +0.000 A 
ATOM     14  C   UNL     1      -1.891  12.022  22.153  0.00  0.00    +0.000 A 
ATOM     15 CL   UNL     1      -3.174  13.118  22.480  0.00  0.00    +0.000 Cl
ATOM     16  C   UNL     1      -1.282  12.013  20.899  0.00  0.00    +0.000 A 
ATOM     17  C   UNL     1      -0.260  11.094  20.610  0.00  0.00    +0.000 A 
ATOM     18 CL   UNL     1       0.393  11.133  19.012  0.00  0.00    +0.000 Cl
ENDBRANCH   8  11
ENDBRANCH   4   7
BRANCH   1  19
ATOM     19  S   UNL     1       4.874   3.954  18.714  0.00  0.00    +0.000 S 
ATOM     20  O   UNL     1       4.747   3.642  17.307  0.00  0.00    +0.000 OA
ATOM     21  O   UNL     1       4.810   2.928  19.727  0.00  0.00    +0.000 OA
BRANCH  19  23
ATOM     22  C   UNL     1       7.292   4.679  17.779  0.00  0.00    +0.000 C 
ATOM     23  N   UNL     1       6.335   4.770  18.873  0.00  0.00    +0.000 NA
ATOM     24  H   UNL     1       6.217   5.672  19.335  0.00  0.00    +0.000 HD
ENDBRANCH  19  23
ENDBRANCH   1  19
TORSDOF 4
ENDMDL
MODEL 8
REMARK VINA RESULT:      -6.7      2.769      3.148
REMARK  Name = 
REMARK  5 active torsions:
REMARK  status: ('A' for Active; 'I' for Inactive)
REMARK    1  A    between atoms: C_1  and  N_2
REMARK    2  A    between atoms: N_2  and  S_3
REMARK    3  A    between atoms: S_3  and  C_6
REMARK    4  A    between atoms: C_9  and  N_10
REMARK    5  A    between atoms: C_11  and  C_13
REMARK                            x       y       z     vdW  Elec       q    Type
REMARK                         _______ _______ _______ _____ _____    ______ ____
ROOT
ATOM      1  C   UNL     1       2.989   4.603  20.178  0.00  0.00    +0.000 A 
ATOM      2  C   UNL     1       3.725   5.451  19.358  0.00  0.00    +0.000 A 
ATOM      3  C   UNL     1       3.316   6.775  19.191  0.00  0.00    +0.000 A 
ATOM      4  C   UNL     1       2.171   7.271  19.826  0.00  0.00    +0.000 A 
ATOM      5  C   UNL     1       1.439   6.406  20.652  0.00  0.00    +0.000 A 
ATOM      6  C   UNL     1       1.839   5.071  20.822  0.00  0.00    +0.000 A 
ENDROOT
BRANCH   4   7
ATOM      7  N   UNL     1       1.708   8.601  19.658  0.00  0.00    +0.000 N 
ATOM      8  C   UNL     1       1.432   9.213  18.445  0.00  0.00    +0.000 C 
ATOM      9  O   UNL     1       1.562   8.699  17.338  0.00  0.00    +0.000 OA
ATOM     10  H   UNL     1       1.572   9.144  20.503  0.00  0.00    +0.000 HD
BRANCH   8  11
ATOM     11  C   UNL     1       0.902  10.603  18.446  0.00  0.00    +0.000 A 
ATOM     12  C   UNL     1       1.860  11.608  18.701  0.00  0.00    +0.000 A 
ATOM     13  C   UNL     1       1.486  12.940  18.864  0.00  0.00    +0.000 A 
ATOM     14  C   UNL     1       0.144  13.286  18.770  0.00  0.00    +0.000 A 
ATOM     15 CL   UNL     1      -0.331  14.920  19.019  0.00  0.00    +0.000 Cl
ATOM     16  C   UNL     1      -0.817  12.314  18.494  0.00  0.00    +0.000 A 
ATOM     17  C   UNL     1      -0.444  10.970  18.330  0.00  0.00    +0.000 A 
ATOM     18 CL   UNL     1      -1.716   9.839  18.042  0.00  0.00    +0.000 Cl
ENDBRANCH   8  11
ENDBRANCH   4   7
BRANCH   1  19
ATOM     19  S   UNL     1       3.468   2.900  20.307  0.00  0.00    +0.000 S 
ATOM     20  O   UNL     1       3.143   2.441  21.639  0.00  0.00    +0.000 OA
ATOM     21  O   UNL     1       4.794   2.751  19.756  0.00  0.00    +0.000 OA
BRANCH  19  23
ATOM     22  C   UNL     1       2.602   2.238  17.846  0.00  0.00    +0.000 C 
ATOM     23  N   UNL     1       2.376   2.138  19.281  0.00  0.00    +0.000 NA
ATOM     24  H   UNL     1       2.063   1.244  19.658  0.00  0.00    +0.000 HD
ENDBRANCH  19  23
ENDBRANCH   1  19
TORSDOF 4
ENDMDL
MODEL 9
REMARK VINA RESULT:      -6.7      4.757      8.946
REMARK  Name = 
REMARK  5 active torsions:
REMARK  status: ('A' for Active; 'I' for Inactive)
REMARK    1  A    between atoms: C_1  and  N_2
REMARK    2  A    between atoms: N_2  and  S_3
REMARK    3  A    between atoms: S_3  and  C_6
REMARK    4  A    between atoms: C_9  and  N_10
REMARK    5  A    between atoms: C_11  and  C_13
REMARK                            x       y       z     vdW  Elec       q    Type
REMARK                         _______ _______ _______ _____ _____    ______ ____
ROOT
ATOM      1  C   UNL     1      -0.005  11.836  19.014  0.00  0.00    +0.000 A 
ATOM      2  C   UNL     1       1.349  12.052  18.783  0.00  0.00    +0.000 A 
ATOM      3  C   UNL     1       2.147  11.001  18.327  0.00  0.00    +0.000 A 
ATOM      4  C   UNL     1       1.616   9.725  18.104  0.00  0.00    +0.000 A 
ATOM      5  C   UNL     1       0.248   9.521  18.338  0.00  0.00    +0.000 A 
ATOM      6  C   UNL     1      -0.562  10.571  18.803  0.00  0.00    +0.000 A 
ENDROOT
BRANCH   4   7
ATOM      7  N   UNL     1       2.400   8.626  17.669  0.00  0.00    +0.000 N 
ATOM      8  C   UNL     1       2.763   7.537  18.445  0.00  0.00    +0.000 C 
ATOM      9  O   UNL     1       2.473   7.370  19.626  0.00  0.00    +0.000 OA
ATOM     10  H   UNL     1       2.719   8.648  16.707  0.00  0.00    +0.000 HD
BRANCH   8  11
ATOM     11  C   UNL     1       3.549   6.438  17.819  0.00  0.00    +0.000 A 
ATOM     12  C   UNL     1       4.787   6.829  17.267  0.00  0.00    +0.000 A 
ATOM     13  C   UNL     1       5.566   5.937  16.532  0.00  0.00    +0.000 A 
ATOM     14  C   UNL     1       5.116   4.637  16.345  0.00  0.00    +0.000 A 
ATOM     15 CL   UNL     1       6.048   3.545  15.399  0.00  0.00    +0.000 Cl
ATOM     16  C   UNL     1       3.907   4.221  16.902  0.00  0.00    +0.000 A 
ATOM     17  C   UNL     1       3.119   5.118  17.642  0.00  0.00    +0.000 A 
ATOM     18 CL   UNL     1       1.617   4.518  18.246  0.00  0.00    +0.000 Cl
ENDBRANCH   8  11
ENDBRANCH   4   7
BRANCH   1  19
ATOM     19  S   UNL     1      -0.985  13.155  19.681  0.00  0.00    +0.000 S 
ATOM     20  O   UNL     1      -0.374  13.589  20.918  0.00  0.00    +0.000 OA
ATOM     21  O   UNL     1      -2.376  12.773  19.615  0.00  0.00    +0.000 OA
BRANCH  19  23
ATOM     22  C   UNL     1      -0.268  15.682  19.091  0.00  0.00    +0.000 C 
ATOM     23  N   UNL     1      -0.721  14.396  18.579  0.00  0.00    +0.000 NA
ATOM     24  H   UNL     1      -0.308  14.051  17.712  0.00  0.00    +0.000 HD
ENDBRANCH  19  23
ENDBRANCH   1  19
TORSDOF 4
ENDMDL
