MODEL 1
REMARK VINA RESULT:      -8.7      0.000      0.000
REMARK  Name = 
REMARK  8 active torsions:
REMARK  status: ('A' for Active; 'I' for Inactive)
REMARK    1  A    between atoms: C_1  and  C_2
REMARK    2  A    between atoms: C_4  and  C_5
REMARK    3  A    between atoms: C_6  and  N_7
REMARK    4  A    between atoms: N_10  and  C_11
REMARK    5  A    between atoms: N_10  and  C_24
REMARK    6  A    between atoms: C_11  and  C_12
REMARK    7  A    between atoms: C_15  and  C_16
REMARK    8  A    between atoms: C_31  and  C_32
REMARK                            x       y       z     vdW  Elec       q    Type
REMARK                         _______ _______ _______ _____ _____    ______ ____
ROOT
ATOM      1  N   UNL     1      -1.699  11.759  19.382  0.00  0.00    +0.000 N 
ATOM      2  C   UNL     1      -0.759  12.762  19.265  0.00  0.00    +0.000 C 
ATOM      3  O   UNL     1      -1.007  13.841  18.714  0.00  0.00    +0.000 OA
ATOM      4  N   UNL     1       0.534  12.466  19.753  0.00  0.00    +0.000 N 
ATOM      5  H   UNL     1      -1.292  10.843  19.297  0.00  0.00    +0.000 HD
ENDROOT
BRANCH   1  11
ATOM      6  C   UNL     1      -7.141  12.389  17.547  0.00  0.00    +0.000 C 
ATOM      7  C   UNL     1      -5.729  12.207  18.015  0.00  0.00    +0.000 A 
ATOM      8  C   UNL     1      -5.334  12.609  19.288  0.00  0.00    +0.000 A 
ATOM      9  C   UNL     1      -4.011  12.435  19.741  0.00  0.00    +0.000 A 
ATOM     10  C   UNL     1      -3.698  12.852  21.151  0.00  0.00    +0.000 C 
ATOM     11  C   UNL     1      -3.038  11.856  18.890  0.00  0.00    +0.000 A 
ATOM     12  C   UNL     1      -3.427  11.459  17.586  0.00  0.00    +0.000 A 
ATOM     13  C   UNL     1      -2.486  10.877  16.565  0.00  0.00    +0.000 C 
ATOM     14  C   UNL     1      -4.773  11.618  17.185  0.00  0.00    +0.000 A 
ENDBRANCH   1  11
BRANCH   4  15
ATOM     15  C   UNL     1       1.543  13.550  19.549  0.00  0.00    +0.000 C 
ATOM     16  C   UNL     1       2.051  14.123  20.886  0.00  0.00    +0.000 C 
ATOM     17  C   UNL     1       3.536  13.934  21.192  0.00  0.00    +0.000 C 
ATOM     18  C   UNL     1       4.429  14.967  20.504  0.00  0.00    +0.000 C 
ATOM     19  C   UNL     1       4.678  14.733  19.017  0.00  0.00    +0.000 C 
ATOM     20  C   UNL     1       3.434  14.538  18.153  0.00  0.00    +0.000 C 
ATOM     21  C   UNL     1       2.627  13.270  18.491  0.00  0.00    +0.000 C 
ENDBRANCH   4  15
BRANCH   4  22
ATOM     22  C   UNL     1       0.873  11.318  20.625  0.00  0.00    +0.000 C 
BRANCH  22  23
ATOM     23  C   UNL     1       1.285  10.045  19.912  0.00  0.00    +0.000 A 
ATOM     24  C   UNL     1       1.469   8.853  20.617  0.00  0.00    +0.000 A 
ATOM     25  C   UNL     1       1.897   7.686  19.968  0.00  0.00    +0.000 A 
ATOM     26  C   UNL     1       2.151   7.650  18.586  0.00  0.00    +0.000 A 
ATOM     27  C   UNL     1       1.869   8.826  17.870  0.00  0.00    +0.000 A 
ATOM     28  C   UNL     1       1.446  10.002  18.519  0.00  0.00    +0.000 A 
BRANCH  26  29
ATOM     29  C   UNL     1       2.787   6.457  17.964  0.00  0.00    +0.000 A 
ATOM     30  C   UNL     1       2.191   5.181  18.018  0.00  0.00    +0.000 A 
ATOM     31  C   UNL     1       2.875   4.029  17.611  0.00  0.00    +0.000 A 
ATOM     32  C   UNL     1       4.167   4.127  17.109  0.00  0.00    +0.000 A 
ATOM     33  C   UNL     1       4.760   5.378  16.982  0.00  0.00    +0.000 A 
ATOM     34  C   UNL     1       4.077   6.527  17.401  0.00  0.00    +0.000 A 
ENDBRANCH  26  29
ENDBRANCH  22  23
ENDBRANCH   4  22
TORSDOF 5
ENDMDL
MODEL 2
REMARK VINA RESULT:      -8.5      0.852      1.608
REMARK  Name = 
REMARK  8 active torsions:
REMARK  status: ('A' for Active; 'I' for Inactive)
REMARK    1  A    between atoms: C_1  and  C_2
REMARK    2  A    between atoms: C_4  and  C_5
REMARK    3  A    between atoms: C_6  and  N_7
REMARK    4  A    between atoms: N_10  and  C_11
REMARK    5  A    between atoms: N_10  and  C_24
REMARK    6  A    between atoms: C_11  and  C_12
REMARK    7  A    between atoms: C_15  and  C_16
REMARK    8  A    between atoms: C_31  and  C_32
REMARK                            x       y       z     vdW  Elec       q    Type
REMARK                         _______ _______ _______ _____ _____    ______ ____
ROOT
ATOM      1  N   UNL     1      -1.943  11.281  19.348  0.00  0.00    +0.000 N 
ATOM      2  C   UNL     1      -0.907  12.170  19.546  0.00  0.00    +0.000 C 
ATOM      3  O   UNL     1      -0.978  13.357  19.208  0.00  0.00    +0.000 OA
ATOM      4  N   UNL     1       0.277  11.634  20.102  0.00  0.00    +0.000 N 
ATOM      5  H   UNL     1      -1.616  10.357  19.120  0.00  0.00    +0.000 HD
ENDROOT
BRANCH   1  11
ATOM      6  C   UNL     1      -6.994  12.917  17.072  0.00  0.00    +0.000 C 
ATOM      7  C   UNL     1      -5.686  12.474  17.653  0.00  0.00    +0.000 A 
ATOM      8  C   UNL     1      -5.370  12.722  18.986  0.00  0.00    +0.000 A 
ATOM      9  C   UNL     1      -4.145  12.303  19.544  0.00  0.00    +0.000 A 
ATOM     10  C   UNL     1      -3.921  12.569  21.007  0.00  0.00    +0.000 C 
ATOM     11  C   UNL     1      -3.191  11.629  18.743  0.00  0.00    +0.000 A 
ATOM     12  C   UNL     1      -3.498  11.388  17.380  0.00  0.00    +0.000 A 
ATOM     13  C   UNL     1      -2.557  10.728  16.407  0.00  0.00    +0.000 C 
ATOM     14  C   UNL     1      -4.752  11.792  16.870  0.00  0.00    +0.000 A 
ENDBRANCH   1  11
BRANCH   4  15
ATOM     15  C   UNL     1       1.401  12.610  20.240  0.00  0.00    +0.000 C 
ATOM     16  C   UNL     1       2.126  12.846  18.901  0.00  0.00    +0.000 C 
ATOM     17  C   UNL     1       2.062  14.262  18.329  0.00  0.00    +0.000 C 
ATOM     18  C   UNL     1       3.083  15.212  18.955  0.00  0.00    +0.000 C 
ATOM     19  C   UNL     1       2.731  15.729  20.347  0.00  0.00    +0.000 C 
ATOM     20  C   UNL     1       2.377  14.668  21.386  0.00  0.00    +0.000 C 
ATOM     21  C   UNL     1       1.096  13.876  21.065  0.00  0.00    +0.000 C 
ENDBRANCH   4  15
BRANCH   4  22
ATOM     22  C   UNL     1       0.391  10.306  20.748  0.00  0.00    +0.000 C 
BRANCH  22  23
ATOM     23  C   UNL     1       1.116   9.241  19.949  0.00  0.00    +0.000 A 
ATOM     24  C   UNL     1       1.551   8.060  20.554  0.00  0.00    +0.000 A 
ATOM     25  C   UNL     1       2.265   7.095  19.829  0.00  0.00    +0.000 A 
ATOM     26  C   UNL     1       2.570   7.258  18.467  0.00  0.00    +0.000 A 
ATOM     27  C   UNL     1       2.044   8.403  17.844  0.00  0.00    +0.000 A 
ATOM     28  C   UNL     1       1.333   9.378  18.570  0.00  0.00    +0.000 A 
BRANCH  26  29
ATOM     29  C   UNL     1       3.492   6.314  17.778  0.00  0.00    +0.000 A 
ATOM     30  C   UNL     1       4.558   6.766  16.975  0.00  0.00    +0.000 A 
ATOM     31  C   UNL     1       5.299   5.892  16.172  0.00  0.00    +0.000 A 
ATOM     32  C   UNL     1       5.013   4.532  16.173  0.00  0.00    +0.000 A 
ATOM     33  C   UNL     1       4.010   4.044  17.003  0.00  0.00    +0.000 A 
ATOM     34  C   UNL     1       3.262   4.924  17.796  0.00  0.00    +0.000 A 
ENDBRANCH  26  29
ENDBRANCH  22  23
ENDBRANCH   4  22
TORSDOF 5
ENDMDL
MODEL 3
REMARK VINA RESULT:      -8.4      0.803      2.019
REMARK  Name = 
REMARK  8 active torsions:
REMARK  status: ('A' for Active; 'I' for Inactive)
REMARK    1  A    between atoms: C_1  and  C_2
REMARK    2  A    between atoms: C_4  and  C_5
REMARK    3  A    between atoms: C_6  and  N_7
REMARK    4  A    between atoms: N_10  and  C_11
REMARK    5  A    between atoms: N_10  and  C_24
REMARK    6  A    between atoms: C_11  and  C_12
REMARK    7  A    between atoms: C_15  and  C_16
REMARK    8  A    between atoms: C_31  and  C_32
REMARK                            x       y       z     vdW  Elec       q    Type
REMARK                         _______ _______ _______ _____ _____    ______ ____
ROOT
ATOM      1  N   UNL     1      -1.885  11.479  19.673  0.00  0.00    +0.000 N 
ATOM      2  C   UNL     1      -0.845  12.369  19.846  0.00  0.00    +0.000 C 
ATOM      3  O   UNL     1      -0.927  13.556  19.514  0.00  0.00    +0.000 OA
ATOM      4  N   UNL     1       0.355  11.832  20.367  0.00  0.00    +0.000 N 
ATOM      5  H   UNL     1      -1.563  10.557  19.433  0.00  0.00    +0.000 HD
ENDROOT
BRANCH   1  11
ATOM      6  C   UNL     1      -6.977  12.652  17.211  0.00  0.00    +0.000 C 
ATOM      7  C   UNL     1      -5.656  12.366  17.858  0.00  0.00    +0.000 A 
ATOM      8  C   UNL     1      -4.638  11.721  17.161  0.00  0.00    +0.000 A 
ATOM      9  C   UNL     1      -3.388  11.456  17.758  0.00  0.00    +0.000 A 
ATOM     10  C   UNL     1      -2.335  10.804  16.905  0.00  0.00    +0.000 C 
ATOM     11  C   UNL     1      -3.149  11.827  19.104  0.00  0.00    +0.000 A 
ATOM     12  C   UNL     1      -4.187  12.469  19.825  0.00  0.00    +0.000 A 
ATOM     13  C   UNL     1      -4.083  12.872  21.272  0.00  0.00    +0.000 C 
ATOM     14  C   UNL     1      -5.411  12.750  19.178  0.00  0.00    +0.000 A 
ENDBRANCH   1  11
BRANCH   4  15
ATOM     15  C   UNL     1       1.481  12.810  20.477  0.00  0.00    +0.000 C 
ATOM     16  C   UNL     1       2.172  13.047  19.121  0.00  0.00    +0.000 C 
ATOM     17  C   UNL     1       2.094  14.463  18.551  0.00  0.00    +0.000 C 
ATOM     18  C   UNL     1       3.129  15.413  19.152  0.00  0.00    +0.000 C 
ATOM     19  C   UNL     1       2.810  15.930  20.552  0.00  0.00    +0.000 C 
ATOM     20  C   UNL     1       2.483  14.868  21.600  0.00  0.00    +0.000 C 
ATOM     21  C   UNL     1       1.196  14.075  21.309  0.00  0.00    +0.000 C 
ENDBRANCH   4  15
BRANCH   4  22
ATOM     22  C   UNL     1       0.488  10.502  21.005  0.00  0.00    +0.000 C 
BRANCH  22  23
ATOM     23  C   UNL     1       1.107   9.416  20.147  0.00  0.00    +0.000 A 
ATOM     24  C   UNL     1       1.518   8.204  20.707  0.00  0.00    +0.000 A 
ATOM     25  C   UNL     1       2.135   7.217  19.926  0.00  0.00    +0.000 A 
ATOM     26  C   UNL     1       2.362   7.387  18.549  0.00  0.00    +0.000 A 
ATOM     27  C   UNL     1       1.857   8.568  17.976  0.00  0.00    +0.000 A 
ATOM     28  C   UNL     1       1.243   9.565  18.759  0.00  0.00    +0.000 A 
BRANCH  26  29
ATOM     29  C   UNL     1       3.189   6.410  17.791  0.00  0.00    +0.000 A 
ATOM     30  C   UNL     1       2.904   5.030  17.796  0.00  0.00    +0.000 A 
ATOM     31  C   UNL     1       3.788   4.091  17.251  0.00  0.00    +0.000 A 
ATOM     32  C   UNL     1       4.973   4.512  16.657  0.00  0.00    +0.000 A 
ATOM     33  C   UNL     1       5.253   5.871  16.578  0.00  0.00    +0.000 A 
ATOM     34  C   UNL     1       4.371   6.807  17.135  0.00  0.00    +0.000 A 
ENDBRANCH  26  29
ENDBRANCH  22  23
ENDBRANCH   4  22
TORSDOF 5
ENDMDL
MODEL 4
REMARK VINA RESULT:      -8.3      0.278      1.747
REMARK  Name = 
REMARK  8 active torsions:
REMARK  status: ('A' for Active; 'I' for Inactive)
REMARK    1  A    between atoms: C_1  and  C_2
REMARK    2  A    between atoms: C_4  and  C_5
REMARK    3  A    between atoms: C_6  and  N_7
REMARK    4  A    between atoms: N_10  and  C_11
REMARK    5  A    between atoms: N_10  and  C_24
REMARK    6  A    between atoms: C_11  and  C_12
REMARK    7  A    between atoms: C_15  and  C_16
REMARK    8  A    between atoms: C_31  and  C_32
REMARK                            x       y       z     vdW  Elec       q    Type
REMARK                         _______ _______ _______ _____ _____    ______ ____
ROOT
ATOM      1  N   UNL     1      -1.661  11.838  19.596  0.00  0.00    +0.000 N 
ATOM      2  C   UNL     1      -0.708  12.815  19.398  0.00  0.00    +0.000 C 
ATOM      3  O   UNL     1      -0.957  13.874  18.810  0.00  0.00    +0.000 OA
ATOM      4  N   UNL     1       0.598  12.515  19.849  0.00  0.00    +0.000 N 
ATOM      5  H   UNL     1      -1.275  10.910  19.537  0.00  0.00    +0.000 HD
ENDROOT
BRANCH   1  11
ATOM      6  C   UNL     1      -7.109  11.993  17.682  0.00  0.00    +0.000 C 
ATOM      7  C   UNL     1      -5.697  11.972  18.184  0.00  0.00    +0.000 A 
ATOM      8  C   UNL     1      -4.689  11.331  17.470  0.00  0.00    +0.000 A 
ATOM      9  C   UNL     1      -3.356  11.312  17.929  0.00  0.00    +0.000 A 
ATOM     10  C   UNL     1      -2.330  10.640  17.059  0.00  0.00    +0.000 C 
ATOM     11  C   UNL     1      -3.016  11.940  19.153  0.00  0.00    +0.000 A 
ATOM     12  C   UNL     1      -4.040  12.580  19.894  0.00  0.00    +0.000 A 
ATOM     13  C   UNL     1      -3.827  13.242  21.230  0.00  0.00    +0.000 C 
ATOM     14  C   UNL     1      -5.356  12.607  19.380  0.00  0.00    +0.000 A 
ENDBRANCH   1  11
BRANCH   4  15
ATOM     15  C   UNL     1       1.618  13.568  19.558  0.00  0.00    +0.000 C 
ATOM     16  C   UNL     1       2.153  14.224  20.845  0.00  0.00    +0.000 C 
ATOM     17  C   UNL     1       3.640  14.036  21.142  0.00  0.00    +0.000 C 
ATOM     18  C   UNL     1       4.536  15.007  20.374  0.00  0.00    +0.000 C 
ATOM     19  C   UNL     1       4.759  14.669  18.902  0.00  0.00    +0.000 C 
ATOM     20  C   UNL     1       3.500  14.433  18.071  0.00  0.00    +0.000 C 
ATOM     21  C   UNL     1       2.682  13.202  18.505  0.00  0.00    +0.000 C 
ENDBRANCH   4  15
BRANCH   4  22
ATOM     22  C   UNL     1       0.950  11.400  20.758  0.00  0.00    +0.000 C 
BRANCH  22  23
ATOM     23  C   UNL     1       1.330  10.095  20.087  0.00  0.00    +0.000 A 
ATOM     24  C   UNL     1       1.430   8.911  20.822  0.00  0.00    +0.000 A 
ATOM     25  C   UNL     1       1.828   7.712  20.214  0.00  0.00    +0.000 A 
ATOM     26  C   UNL     1       2.135   7.635  18.844  0.00  0.00    +0.000 A 
ATOM     27  C   UNL     1       1.938   8.808  18.095  0.00  0.00    +0.000 A 
ATOM     28  C   UNL     1       1.545  10.016  18.703  0.00  0.00    +0.000 A 
BRANCH  26  29
ATOM     29  C   UNL     1       2.740   6.401  18.271  0.00  0.00    +0.000 A 
ATOM     30  C   UNL     1       4.026   6.400  17.696  0.00  0.00    +0.000 A 
ATOM     31  C   UNL     1       4.514   5.299  16.982  0.00  0.00    +0.000 A 
ATOM     32  C   UNL     1       3.738   4.153  16.852  0.00  0.00    +0.000 A 
ATOM     33  C   UNL     1       2.491   4.098  17.464  0.00  0.00    +0.000 A 
ATOM     34  C   UNL     1       2.000   5.207  18.166  0.00  0.00    +0.000 A 
ENDBRANCH  26  29
ENDBRANCH  22  23
ENDBRANCH   4  22
TORSDOF 5
ENDMDL
MODEL 5
REMARK VINA RESULT:      -8.3      0.881      2.420
REMARK  Name = 
REMARK  8 active torsions:
REMARK  status: ('A' for Active; 'I' for Inactive)
REMARK    1  A    between atoms: C_1  and  C_2
REMARK    2  A    between atoms: C_4  and  C_5
REMARK    3  A    between atoms: C_6  and  N_7
REMARK    4  A    between atoms: N_10  and  C_11
REMARK    5  A    between atoms: N_10  and  C_24
REMARK    6  A    between atoms: C_11  and  C_12
REMARK    7  A    between atoms: C_15  and  C_16
REMARK    8  A    between atoms: C_31  and  C_32
REMARK                            x       y       z     vdW  Elec       q    Type
REMARK                         _______ _______ _______ _____ _____    ______ ____
ROOT
ATOM      1  N   UNL     1      -2.116  11.187  19.199  0.00  0.00    +0.000 N 
ATOM      2  C   UNL     1      -0.993  11.965  19.391  0.00  0.00    +0.000 C 
ATOM      3  O   UNL     1      -0.979  13.179  19.160  0.00  0.00    +0.000 OA
ATOM      4  N   UNL     1       0.174  11.283  19.810  0.00  0.00    +0.000 N 
ATOM      5  H   UNL     1      -1.890  10.264  18.870  0.00  0.00    +0.000 HD
ENDROOT
BRANCH   1  11
ATOM      6  C   UNL     1      -7.177  13.003  17.086  0.00  0.00    +0.000 C 
ATOM      7  C   UNL     1      -5.862  12.550  17.644  0.00  0.00    +0.000 A 
ATOM      8  C   UNL     1      -4.940  11.870  16.852  0.00  0.00    +0.000 A 
ATOM      9  C   UNL     1      -3.697  11.447  17.365  0.00  0.00    +0.000 A 
ATOM     10  C   UNL     1      -2.748  10.769  16.415  0.00  0.00    +0.000 C 
ATOM     11  C   UNL     1      -3.365  11.692  18.720  0.00  0.00    +0.000 A 
ATOM     12  C   UNL     1      -4.305  12.368  19.537  0.00  0.00    +0.000 A 
ATOM     13  C   UNL     1      -4.101  12.649  21.002  0.00  0.00    +0.000 C 
ATOM     14  C   UNL     1      -5.524  12.808  18.974  0.00  0.00    +0.000 A 
ENDBRANCH   1  11
BRANCH   4  15
ATOM     15  C   UNL     1       1.388  12.146  19.944  0.00  0.00    +0.000 C 
ATOM     16  C   UNL     1       2.043  12.433  18.579  0.00  0.00    +0.000 C 
ATOM     17  C   UNL     1       2.071  13.893  18.127  0.00  0.00    +0.000 C 
ATOM     18  C   UNL     1       3.212  14.695  18.751  0.00  0.00    +0.000 C 
ATOM     19  C   UNL     1       2.998  15.120  20.201  0.00  0.00    +0.000 C 
ATOM     20  C   UNL     1       2.618  14.008  21.176  0.00  0.00    +0.000 C 
ATOM     21  C   UNL     1       1.253  13.358  20.885  0.00  0.00    +0.000 C 
ENDBRANCH   4  15
BRANCH   4  22
ATOM     22  C   UNL     1       0.210   9.898  20.333  0.00  0.00    +0.000 C 
BRANCH  22  23
ATOM     23  C   UNL     1       1.205   8.967  19.669  0.00  0.00    +0.000 A 
ATOM     24  C   UNL     1       1.662   9.208  18.372  0.00  0.00    +0.000 A 
ATOM     25  C   UNL     1       2.544   8.322  17.738  0.00  0.00    +0.000 A 
ATOM     26  C   UNL     1       3.019   7.160  18.370  0.00  0.00    +0.000 A 
ATOM     27  C   UNL     1       2.632   6.977  19.709  0.00  0.00    +0.000 A 
ATOM     28  C   UNL     1       1.740   7.861  20.347  0.00  0.00    +0.000 A 
BRANCH  26  29
ATOM     29  C   UNL     1       3.795   6.145  17.606  0.00  0.00    +0.000 A 
ATOM     30  C   UNL     1       4.777   6.511  16.665  0.00  0.00    +0.000 A 
ATOM     31  C   UNL     1       5.364   5.573  15.807  0.00  0.00    +0.000 A 
ATOM     32  C   UNL     1       5.004   4.233  15.889  0.00  0.00    +0.000 A 
ATOM     33  C   UNL     1       4.085   3.829  16.851  0.00  0.00    +0.000 A 
ATOM     34  C   UNL     1       3.491   4.772  17.699  0.00  0.00    +0.000 A 
ENDBRANCH  26  29
ENDBRANCH  22  23
ENDBRANCH   4  22
TORSDOF 5
ENDMDL
MODEL 6
REMARK VINA RESULT:      -7.9      1.032      6.238
REMARK  Name = 
REMARK  8 active torsions:
REMARK  status: ('A' for Active; 'I' for Inactive)
REMARK    1  A    between atoms: C_1  and  C_2
REMARK    2  A    between atoms: C_4  and  C_5
REMARK    3  A    between atoms: C_6  and  N_7
REMARK    4  A    between atoms: N_10  and  C_11
REMARK    5  A    between atoms: N_10  and  C_24
REMARK    6  A    between atoms: C_11  and  C_12
REMARK    7  A    between atoms: C_15  and  C_16
REMARK    8  A    between atoms: C_31  and  C_32
REMARK                            x       y       z     vdW  Elec       q    Type
REMARK                         _______ _______ _______ _____ _____    ______ ____
ROOT
ATOM      1  N   UNL     1       1.184  13.070  19.985  0.00  0.00    +0.000 N 
ATOM      2  C   UNL     1       0.030  13.046  19.230  0.00  0.00    +0.000 C 
ATOM      3  O   UNL     1      -0.201  13.877  18.345  0.00  0.00    +0.000 OA
ATOM      4  N   UNL     1      -0.916  12.050  19.567  0.00  0.00    +0.000 N 
ATOM      5  H   UNL     1       1.024  12.785  20.937  0.00  0.00    +0.000 HD
ENDROOT
BRANCH   1  11
ATOM      6  C   UNL     1       5.363  16.951  19.071  0.00  0.00    +0.000 C 
ATOM      7  C   UNL     1       4.283  15.945  19.328  0.00  0.00    +0.000 A 
ATOM      8  C   UNL     1       4.122  14.836  18.502  0.00  0.00    +0.000 A 
ATOM      9  C   UNL     1       3.114  13.878  18.741  0.00  0.00    +0.000 A 
ATOM     10  C   UNL     1       3.057  12.687  17.824  0.00  0.00    +0.000 C 
ATOM     11  C   UNL     1       2.222  14.040  19.829  0.00  0.00    +0.000 A 
ATOM     12  C   UNL     1       2.369  15.176  20.664  0.00  0.00    +0.000 A 
ATOM     13  C   UNL     1       1.461  15.495  21.822  0.00  0.00    +0.000 C 
ATOM     14  C   UNL     1       3.415  16.092  20.412  0.00  0.00    +0.000 A 
ENDBRANCH   1  11
BRANCH   4  15
ATOM     15  C   UNL     1      -2.182  12.097  18.773  0.00  0.00    +0.000 C 
ATOM     16  C   UNL     1      -2.089  11.248  17.491  0.00  0.00    +0.000 C 
ATOM     17  C   UNL     1      -3.042  10.056  17.388  0.00  0.00    +0.000 C 
ATOM     18  C   UNL     1      -4.447  10.446  16.930  0.00  0.00    +0.000 C 
ATOM     19  C   UNL     1      -5.328  11.093  17.995  0.00  0.00    +0.000 C 
ATOM     20  C   UNL     1      -4.725  12.289  18.727  0.00  0.00    +0.000 C 
ATOM     21  C   UNL     1      -3.488  11.946  19.578  0.00  0.00    +0.000 C 
ENDBRANCH   4  15
BRANCH   4  22
ATOM     22  C   UNL     1      -0.649  10.880  20.434  0.00  0.00    +0.000 C 
BRANCH  22  23
ATOM     23  C   UNL     1       0.350   9.874  19.898  0.00  0.00    +0.000 A 
ATOM     24  C   UNL     1       0.747   9.897  18.559  0.00  0.00    +0.000 A 
ATOM     25  C   UNL     1       1.633   8.938  18.050  0.00  0.00    +0.000 A 
ATOM     26  C   UNL     1       2.173   7.918  18.851  0.00  0.00    +0.000 A 
ATOM     27  C   UNL     1       1.844   7.960  20.218  0.00  0.00    +0.000 A 
ATOM     28  C   UNL     1       0.949   8.918  20.732  0.00  0.00    +0.000 A 
BRANCH  26  29
ATOM     29  C   UNL     1       2.951   6.806  18.241  0.00  0.00    +0.000 A 
ATOM     30  C   UNL     1       4.093   7.042  17.449  0.00  0.00    +0.000 A 
ATOM     31  C   UNL     1       4.707   6.020  16.715  0.00  0.00    +0.000 A 
ATOM     32  C   UNL     1       4.212   4.723  16.779  0.00  0.00    +0.000 A 
ATOM     33  C   UNL     1       3.127   4.444  17.601  0.00  0.00    +0.000 A 
ATOM     34  C   UNL     1       2.507   5.471  18.325  0.00  0.00    +0.000 A 
ENDBRANCH  26  29
ENDBRANCH  22  23
ENDBRANCH   4  22
TORSDOF 5
ENDMDL
MODEL 7
REMARK VINA RESULT:      -7.8      1.083      6.039
REMARK  Name = 
REMARK  8 active torsions:
REMARK  status: ('A' for Active; 'I' for Inactive)
REMARK    1  A    between atoms: C_1  and  C_2
REMARK    2  A    between atoms: C_4  and  C_5
REMARK    3  A    between atoms: C_6  and  N_7
REMARK    4  A    between atoms: N_10  and  C_11
REMARK    5  A    between atoms: N_10  and  C_24
REMARK    6  A    between atoms: C_11  and  C_12
REMARK    7  A    between atoms: C_15  and  C_16
REMARK    8  A    between atoms: C_31  and  C_32
REMARK                            x       y       z     vdW  Elec       q    Type
REMARK                         _______ _______ _______ _____ _____    ______ ____
ROOT
ATOM      1  N   UNL     1       1.409  13.233  20.113  0.00  0.00    +0.000 N 
ATOM      2  C   UNL     1       0.228  13.181  19.401  0.00  0.00    +0.000 C 
ATOM      3  O   UNL     1      -0.054  14.006  18.525  0.00  0.00    +0.000 OA
ATOM      4  N   UNL     1      -0.681  12.164  19.773  0.00  0.00    +0.000 N 
ATOM      5  H   UNL     1       1.291  12.945  21.070  0.00  0.00    +0.000 HD
ENDROOT
BRANCH   1  11
ATOM      6  C   UNL     1       5.505  17.275  19.610  0.00  0.00    +0.000 C 
ATOM      7  C   UNL     1       4.439  16.228  19.720  0.00  0.00    +0.000 A 
ATOM      8  C   UNL     1       3.530  16.234  20.775  0.00  0.00    +0.000 A 
ATOM      9  C   UNL     1       2.518  15.259  20.884  0.00  0.00    +0.000 A 
ATOM     10  C   UNL     1       1.551  15.385  22.029  0.00  0.00    +0.000 C 
ATOM     11  C   UNL     1       2.417  14.227  19.918  0.00  0.00    +0.000 A 
ATOM     12  C   UNL     1       3.349  14.203  18.851  0.00  0.00    +0.000 A 
ATOM     13  C   UNL     1       3.386  13.139  17.787  0.00  0.00    +0.000 C 
ATOM     14  C   UNL     1       4.325  15.222  18.759  0.00  0.00    +0.000 A 
ENDBRANCH   1  11
BRANCH   4  15
ATOM     15  C   UNL     1      -1.976  12.180  19.026  0.00  0.00    +0.000 C 
ATOM     16  C   UNL     1      -1.928  11.287  17.772  0.00  0.00    +0.000 C 
ATOM     17  C   UNL     1      -2.879  10.091  17.746  0.00  0.00    +0.000 C 
ATOM     18  C   UNL     1      -4.302  10.461  17.328  0.00  0.00    +0.000 C 
ATOM     19  C   UNL     1      -5.145  11.142  18.402  0.00  0.00    +0.000 C 
ATOM     20  C   UNL     1      -4.519  12.365  19.069  0.00  0.00    +0.000 C 
ATOM     21  C   UNL     1      -3.250  12.054  19.885  0.00  0.00    +0.000 C 
ENDBRANCH   4  15
BRANCH   4  22
ATOM     22  C   UNL     1      -0.355  11.001  20.630  0.00  0.00    +0.000 C 
BRANCH  22  23
ATOM     23  C   UNL     1       0.533   9.945  20.002  0.00  0.00    +0.000 A 
ATOM     24  C   UNL     1       0.904  10.023  18.658  0.00  0.00    +0.000 A 
ATOM     25  C   UNL     1       1.685   9.023  18.062  0.00  0.00    +0.000 A 
ATOM     26  C   UNL     1       2.141   7.904  18.780  0.00  0.00    +0.000 A 
ATOM     27  C   UNL     1       1.846   7.883  20.154  0.00  0.00    +0.000 A 
ATOM     28  C   UNL     1       1.055   8.882  20.755  0.00  0.00    +0.000 A 
BRANCH  26  29
ATOM     29  C   UNL     1       2.798   6.769  18.077  0.00  0.00    +0.000 A 
ATOM     30  C   UNL     1       2.262   5.466  18.103  0.00  0.00    +0.000 A 
ATOM     31  C   UNL     1       2.976   4.364  17.615  0.00  0.00    +0.000 A 
ATOM     32  C   UNL     1       4.237   4.542  17.058  0.00  0.00    +0.000 A 
ATOM     33  C   UNL     1       4.767   5.823  16.959  0.00  0.00    +0.000 A 
ATOM     34  C   UNL     1       4.055   6.921  17.459  0.00  0.00    +0.000 A 
ENDBRANCH  26  29
ENDBRANCH  22  23
ENDBRANCH   4  22
TORSDOF 5
ENDMDL
MODEL 8
REMARK VINA RESULT:      -7.7      1.426      5.577
REMARK  Name = 
REMARK  8 active torsions:
REMARK  status: ('A' for Active; 'I' for Inactive)
REMARK    1  A    between atoms: C_1  and  C_2
REMARK    2  A    between atoms: C_4  and  C_5
REMARK    3  A    between atoms: C_6  and  N_7
REMARK    4  A    between atoms: N_10  and  C_11
REMARK    5  A    between atoms: N_10  and  C_24
REMARK    6  A    between atoms: C_11  and  C_12
REMARK    7  A    between atoms: C_15  and  C_16
REMARK    8  A    between atoms: C_31  and  C_32
REMARK                            x       y       z     vdW  Elec       q    Type
REMARK                         _______ _______ _______ _____ _____    ______ ____
ROOT
ATOM      1  N   UNL     1       0.707  12.526  20.149  0.00  0.00    +0.000 N 
ATOM      2  C   UNL     1      -0.262  12.100  19.265  0.00  0.00    +0.000 C 
ATOM      3  O   UNL     1      -0.722  12.833  18.382  0.00  0.00    +0.000 OA
ATOM      4  N   UNL     1      -0.756  10.790  19.463  0.00  0.00    +0.000 N 
ATOM      5  H   UNL     1       0.585  12.134  21.068  0.00  0.00    +0.000 HD
ENDROOT
BRANCH   1  11
ATOM      6  C   UNL     1       2.985  17.829  20.398  0.00  0.00    +0.000 C 
ATOM      7  C   UNL     1       2.393  16.455  20.313  0.00  0.00    +0.000 A 
ATOM      8  C   UNL     1       1.417  16.035  21.213  0.00  0.00    +0.000 A 
ATOM      9  C   UNL     1       0.848  14.747  21.137  0.00  0.00    +0.000 A 
ATOM     10  C   UNL     1      -0.238  14.408  22.120  0.00  0.00    +0.000 C 
ATOM     11  C   UNL     1       1.278  13.837  20.140  0.00  0.00    +0.000 A 
ATOM     12  C   UNL     1       2.283  14.251  19.231  0.00  0.00    +0.000 A 
ATOM     13  C   UNL     1       2.864  13.370  18.157  0.00  0.00    +0.000 C 
ATOM     14  C   UNL     1       2.800  15.563  19.319  0.00  0.00    +0.000 A 
ENDBRANCH   1  11
BRANCH   4  15
ATOM     15  C   UNL     1      -1.852  10.387  18.529  0.00  0.00    +0.000 C 
ATOM     16  C   UNL     1      -3.214  10.966  18.957  0.00  0.00    +0.000 C 
ATOM     17  C   UNL     1      -3.876  11.947  17.990  0.00  0.00    +0.000 C 
ATOM     18  C   UNL     1      -4.620  11.257  16.847  0.00  0.00    +0.000 C 
ATOM     19  C   UNL     1      -3.739  10.706  15.729  0.00  0.00    +0.000 C 
ATOM     20  C   UNL     1      -2.597   9.791  16.165  0.00  0.00    +0.000 C 
ATOM     21  C   UNL     1      -1.528  10.489  17.026  0.00  0.00    +0.000 C 
ENDBRANCH   4  15
BRANCH   4  22
ATOM     22  C   UNL     1      -0.125   9.763  20.323  0.00  0.00    +0.000 C 
BRANCH  22  23
ATOM     23  C   UNL     1       0.945   8.915  19.665  0.00  0.00    +0.000 A 
ATOM     24  C   UNL     1       1.403   9.205  18.378  0.00  0.00    +0.000 A 
ATOM     25  C   UNL     1       2.357   8.395  17.748  0.00  0.00    +0.000 A 
ATOM     26  C   UNL     1       2.906   7.262  18.373  0.00  0.00    +0.000 A 
ATOM     27  C   UNL     1       2.513   7.034  19.704  0.00  0.00    +0.000 A 
ATOM     28  C   UNL     1       1.549   7.842  20.338  0.00  0.00    +0.000 A 
BRANCH  26  29
ATOM     29  C   UNL     1       3.765   6.316  17.611  0.00  0.00    +0.000 A 
ATOM     30  C   UNL     1       4.773   6.766  16.734  0.00  0.00    +0.000 A 
ATOM     31  C   UNL     1       5.444   5.891  15.870  0.00  0.00    +0.000 A 
ATOM     32  C   UNL     1       5.146   4.534  15.883  0.00  0.00    +0.000 A 
ATOM     33  C   UNL     1       4.203   4.049  16.782  0.00  0.00    +0.000 A 
ATOM     34  C   UNL     1       3.524   4.928  17.636  0.00  0.00    +0.000 A 
ENDBRANCH  26  29
ENDBRANCH  22  23
ENDBRANCH   4  22
TORSDOF 5
ENDMDL
MODEL 9
REMARK VINA RESULT:      -7.7      3.689      7.710
REMARK  Name = 
REMARK  8 active torsions:
REMARK  status: ('A' for Active; 'I' for Inactive)
REMARK    1  A    between atoms: C_1  and  C_2
REMARK    2  A    between atoms: C_4  and  C_5
REMARK    3  A    between atoms: C_6  and  N_7
REMARK    4  A    between atoms: N_10  and  C_11
REMARK    5  A    between atoms: N_10  and  C_24
REMARK    6  A    between atoms: C_11  and  C_12
REMARK    7  A    between atoms: C_15  and  C_16
REMARK    8  A    between atoms: C_31  and  C_32
REMARK                            x       y       z     vdW  Elec       q    Type
REMARK                         _______ _______ _______ _____ _____    ______ ____
ROOT
ATOM      1  N   UNL     1       2.322   8.144  19.897  0.00  0.00    +0.000 N 
ATOM      2  C   UNL     1       2.070   6.796  19.746  0.00  0.00    +0.000 C 
ATOM      3  O   UNL     1       0.928   6.326  19.793  0.00  0.00    +0.000 OA
ATOM      4  N   UNL     1       3.202   5.962  19.600  0.00  0.00    +0.000 N 
ATOM      5  H   UNL     1       3.183   8.319  20.388  0.00  0.00    +0.000 HD
ENDROOT
BRANCH   1  11
ATOM      6  C   UNL     1      -1.903  12.029  20.550  0.00  0.00    +0.000 C 
ATOM      7  C   UNL     1      -0.796  11.030  20.396  0.00  0.00    +0.000 A 
ATOM      8  C   UNL     1      -0.354  10.635  19.136  0.00  0.00    +0.000 A 
ATOM      9  C   UNL     1       0.692   9.702  18.980  0.00  0.00    +0.000 A 
ATOM     10  C   UNL     1       1.133   9.382  17.578  0.00  0.00    +0.000 C 
ATOM     11  C   UNL     1       1.308   9.127  20.118  0.00  0.00    +0.000 A 
ATOM     12  C   UNL     1       0.852   9.512  21.404  0.00  0.00    +0.000 A 
ATOM     13  C   UNL     1       1.385   8.944  22.692  0.00  0.00    +0.000 C 
ATOM     14  C   UNL     1      -0.173  10.477  21.516  0.00  0.00    +0.000 A 
ENDBRANCH   1  11
BRANCH   4  15
ATOM     15  C   UNL     1       2.896   4.502  19.507  0.00  0.00    +0.000 C 
ATOM     16  C   UNL     1       2.145   4.153  18.207  0.00  0.00    +0.000 C 
ATOM     17  C   UNL     1       2.862   3.220  17.231  0.00  0.00    +0.000 C 
ATOM     18  C   UNL     1       2.735   1.744  17.605  0.00  0.00    +0.000 C 
ATOM     19  C   UNL     1       3.628   1.277  18.750  0.00  0.00    +0.000 C 
ATOM     20  C   UNL     1       3.550   2.095  20.037  0.00  0.00    +0.000 C 
ATOM     21  C   UNL     1       4.043   3.547  19.890  0.00  0.00    +0.000 C 
ENDBRANCH   4  15
BRANCH   4  22
ATOM     22  C   UNL     1       4.574   6.433  19.301  0.00  0.00    +0.000 C 
BRANCH  22  23
ATOM     23  C   UNL     1       5.139   6.014  17.957  0.00  0.00    +0.000 A 
ATOM     24  C   UNL     1       4.651   6.563  16.769  0.00  0.00    +0.000 A 
ATOM     25  C   UNL     1       5.138   6.143  15.524  0.00  0.00    +0.000 A 
ATOM     26  C   UNL     1       6.139   5.164  15.404  0.00  0.00    +0.000 A 
ATOM     27  C   UNL     1       6.692   4.689  16.606  0.00  0.00    +0.000 A 
ATOM     28  C   UNL     1       6.202   5.103  17.859  0.00  0.00    +0.000 A 
BRANCH  26  29
ATOM     29  C   UNL     1       6.494   4.602  14.072  0.00  0.00    +0.000 A 
ATOM     30  C   UNL     1       7.521   5.153  13.280  0.00  0.00    +0.000 A 
ATOM     31  C   UNL     1       7.723   4.756  11.953  0.00  0.00    +0.000 A 
ATOM     32  C   UNL     1       6.921   3.770  11.390  0.00  0.00    +0.000 A 
ATOM     33  C   UNL     1       5.941   3.160  12.165  0.00  0.00    +0.000 A 
ATOM     34  C   UNL     1       5.733   3.569  13.489  0.00  0.00    +0.000 A 
ENDBRANCH  26  29
ENDBRANCH  22  23
ENDBRANCH   4  22
TORSDOF 5
ENDMDL
