MODEL 1
REMARK VINA RESULT:      -8.9      0.000      0.000
REMARK  Name = 
REMARK  11 active torsions:
REMARK  status: ('A' for Active; 'I' for Inactive)
REMARK    1  A    between atoms: C_6  and  C_7
REMARK    2  A    between atoms: C_7  and  C_8
REMARK    3  A    between atoms: C_8  and  C_9
REMARK    4  A    between atoms: C_12  and  C_13
REMARK    5  A    between atoms: N_15  and  CA_16
REMARK    6  A    between atoms: CA_16  and  CB_17
REMARK    7  A    between atoms: CA_16  and  C_22
REMARK    8  A    between atoms: CB_17  and  CG_18
REMARK    9  A    between atoms: CG_18  and  CD_19
REMARK   10  A    between atoms: CD_19  and  OE2_21
REMARK   11  A    between atoms: C_22  and  OXT_24
REMARK                            x       y       z     vdW  Elec       q    Type
REMARK                         _______ _______ _______ _____ _____    ______ ____
ROOT
ATOM      1  C   UNK A   0       1.603   8.191  19.688  0.00  0.00    +0.000 A 
ATOM      2  C   UNK A   0       2.207   8.375  18.436  0.00  0.00    +0.000 A 
ATOM      3  C   UNK A   0       2.962   7.363  17.852  0.00  0.00    +0.000 A 
ATOM      4  C   UNK A   0       3.152   6.153  18.519  0.00  0.00    +0.000 A 
ATOM      5  C   UNK A   0       2.624   5.984  19.805  0.00  0.00    +0.000 A 
ATOM      6  C   UNK A   0       1.853   6.999  20.384  0.00  0.00    +0.000 A 
ENDROOT
BRANCH   4   7
ATOM      7  C   UNK A   0       3.921   5.098  17.812  0.00  0.00    +0.000 C 
ATOM      8  O   UNK A   0       3.715   3.912  18.047  0.00  0.00    +0.000 OA
ATOM      9  N   GLU A   1       4.879   5.522  16.925  0.00  0.00    +0.000 N 
ATOM     10  H   GLU A   1       5.108   6.506  16.847  0.00  0.00    +0.000 HD
BRANCH   9  11
ATOM     11  CA  GLU A   1       5.724   4.582  16.198  0.00  0.00    +0.000 C 
BRANCH  11  12
ATOM     12  C   GLU A   1       7.172   4.986  16.500  0.00  0.00    +0.000 C 
ATOM     13  O   GLU A   1       8.003   4.207  16.960  0.00  0.00    +0.000 OA
BRANCH  12  14
ATOM     14  OXT GLU A   1       7.480   6.260  16.184  0.00  0.00    +0.000 OA
ATOM     15  HXT GLU A   1       8.318   6.596  16.573  0.00  0.00    +0.000 HD
ENDBRANCH  12  14
ENDBRANCH  11  12
BRANCH  11  16
ATOM     16  CB  GLU A   1       5.434   4.641  14.688  0.00  0.00    +0.000 C 
BRANCH  16  17
ATOM     17  CG  GLU A   1       6.481   3.972  13.810  0.00  0.00    +0.000 C 
BRANCH  17  18
ATOM     18  CD  GLU A   1       5.839   3.359  12.596  0.00  0.00    +0.000 C 
ATOM     19  OE1 GLU A   1       4.699   3.639  12.249  0.00  0.00    +0.000 OA
BRANCH  18  20
ATOM     20  OE2 GLU A   1       6.658   2.558  11.884  0.00  0.00    +0.000 OA
ATOM     21  HE2 GLU A   1       7.592   2.843  11.868  0.00  0.00    +0.000 HD
ENDBRANCH  18  20
ENDBRANCH  17  18
ENDBRANCH  16  17
ENDBRANCH  11  16
ENDBRANCH   9  11
ENDBRANCH   4   7
BRANCH   1  22
ATOM     22  C   UNK A   0       0.730   9.261  20.312  0.00  0.00    +0.000 C 
BRANCH  22  23
ATOM     23  C   UNK A   0       0.640  10.542  19.469  0.00  0.00    +0.000 C 
BRANCH  23  29
ATOM     24  N   UNK A   0      -6.188  12.077  16.981  0.00  0.00    +0.000 N 
ATOM     25  C   UNK A   0      -4.920  11.608  17.112  0.00  0.00    +0.000 A 
ATOM     26  N   UNK A   0      -4.217  11.927  18.156  0.00  0.00    +0.000 NA
ATOM     27  C   UNK A   0      -2.970  11.389  18.190  0.00  0.00    +0.000 A 
ATOM     28  S   UNK A   0      -1.898  11.680  19.481  0.00  0.00    +0.000 S 
ATOM     29  C   UNK A   0      -0.681  10.692  18.783  0.00  0.00    +0.000 A 
ATOM     30  C   UNK A   0      -1.088  10.155  17.579  0.00  0.00    +0.000 A 
ATOM     31  C   UNK A   0      -2.407  10.563  17.241  0.00  0.00    +0.000 A 
ATOM     32  C   UNK A   0      -3.206  10.235  16.084  0.00  0.00    +0.000 A 
ATOM     33  O   UNK A   0      -2.823   9.513  15.169  0.00  0.00    +0.000 OA
ATOM     34  N   UNK A   0      -4.457  10.808  16.099  0.00  0.00    +0.000 N 
ATOM     35  H   UNK A   0      -6.388  12.825  17.638  0.00  0.00    +0.000 HD
ATOM     36  H   UNK A   0      -6.523  12.266  16.047  0.00  0.00    +0.000 HD
ATOM     37  H   UNK A   0      -5.058  10.566  15.328  0.00  0.00    +0.000 HD
ENDBRANCH  23  29
ENDBRANCH  22  23
ENDBRANCH   1  22
TORSDOF 11
ENDMDL
MODEL 2
REMARK VINA RESULT:      -8.6      0.445      1.129
REMARK  Name = 
REMARK  11 active torsions:
REMARK  status: ('A' for Active; 'I' for Inactive)
REMARK    1  A    between atoms: C_6  and  C_7
REMARK    2  A    between atoms: C_7  and  C_8
REMARK    3  A    between atoms: C_8  and  C_9
REMARK    4  A    between atoms: C_12  and  C_13
REMARK    5  A    between atoms: N_15  and  CA_16
REMARK    6  A    between atoms: CA_16  and  CB_17
REMARK    7  A    between atoms: CA_16  and  C_22
REMARK    8  A    between atoms: CB_17  and  CG_18
REMARK    9  A    between atoms: CG_18  and  CD_19
REMARK   10  A    between atoms: CD_19  and  OE2_21
REMARK   11  A    between atoms: C_22  and  OXT_24
REMARK                            x       y       z     vdW  Elec       q    Type
REMARK                         _______ _______ _______ _____ _____    ______ ____
ROOT
ATOM      1  C   UNK A   0       1.662   8.259  19.616  0.00  0.00    +0.000 A 
ATOM      2  C   UNK A   0       1.948   7.051  20.266  0.00  0.00    +0.000 A 
ATOM      3  C   UNK A   0       2.806   6.117  19.694  0.00  0.00    +0.000 A 
ATOM      4  C   UNK A   0       3.378   6.360  18.445  0.00  0.00    +0.000 A 
ATOM      5  C   UNK A   0       3.038   7.525  17.746  0.00  0.00    +0.000 A 
ATOM      6  C   UNK A   0       2.187   8.468  18.331  0.00  0.00    +0.000 A 
ENDROOT
BRANCH   4   7
ATOM      7  C   UNK A   0       4.328   5.346  17.921  0.00  0.00    +0.000 C 
ATOM      8  O   UNK A   0       4.603   4.350  18.581  0.00  0.00    +0.000 OA
ATOM      9  N   GLU A   1       4.894   5.605  16.698  0.00  0.00    +0.000 N 
ATOM     10  H   GLU A   1       4.742   6.495  16.238  0.00  0.00    +0.000 HD
BRANCH   9  11
ATOM     11  CA  GLU A   1       5.870   4.703  16.097  0.00  0.00    +0.000 C 
BRANCH  11  12
ATOM     12  C   GLU A   1       7.245   5.170  16.588  0.00  0.00    +0.000 C 
ATOM     13  O   GLU A   1       7.615   6.340  16.534  0.00  0.00    +0.000 OA
BRANCH  12  14
ATOM     14  OXT GLU A   1       8.012   4.199  17.126  0.00  0.00    +0.000 OA
ATOM     15  HXT GLU A   1       7.555   3.618  17.775  0.00  0.00    +0.000 HD
ENDBRANCH  12  14
ENDBRANCH  11  12
BRANCH  11  16
ATOM     16  CB  GLU A   1       5.785   4.750  14.561  0.00  0.00    +0.000 C 
BRANCH  16  17
ATOM     17  CG  GLU A   1       5.704   3.390  13.884  0.00  0.00    +0.000 C 
BRANCH  17  18
ATOM     18  CD  GLU A   1       5.835   3.533  12.392  0.00  0.00    +0.000 C 
ATOM     19  OE1 GLU A   1       4.906   3.301  11.630  0.00  0.00    +0.000 OA
BRANCH  18  20
ATOM     20  OE2 GLU A   1       7.024   4.026  11.989  0.00  0.00    +0.000 OA
ATOM     21  HE2 GLU A   1       7.007   4.966  11.727  0.00  0.00    +0.000 HD
ENDBRANCH  18  20
ENDBRANCH  17  18
ENDBRANCH  16  17
ENDBRANCH  11  16
ENDBRANCH   9  11
ENDBRANCH   4   7
BRANCH   1  22
ATOM     22  C   UNK A   0       0.777   9.312  20.250  0.00  0.00    +0.000 C 
BRANCH  22  23
ATOM     23  C   UNK A   0       0.659  10.594  19.413  0.00  0.00    +0.000 C 
BRANCH  23  29
ATOM     24  N   UNK A   0      -6.226  12.075  17.053  0.00  0.00    +0.000 N 
ATOM     25  C   UNK A   0      -4.952  11.616  17.160  0.00  0.00    +0.000 A 
ATOM     26  N   UNK A   0      -4.232  11.941  18.190  0.00  0.00    +0.000 NA
ATOM     27  C   UNK A   0      -2.980  11.413  18.201  0.00  0.00    +0.000 A 
ATOM     28  S   UNK A   0      -1.887  11.714  19.472  0.00  0.00    +0.000 S 
ATOM     29  C   UNK A   0      -0.676  10.734  18.752  0.00  0.00    +0.000 A 
ATOM     30  C   UNK A   0      -1.100  10.193  17.556  0.00  0.00    +0.000 A 
ATOM     31  C   UNK A   0      -2.429  10.591  17.242  0.00  0.00    +0.000 A 
ATOM     32  C   UNK A   0      -3.248  10.256  16.101  0.00  0.00    +0.000 A 
ATOM     33  O   UNK A   0      -2.876   9.535  15.180  0.00  0.00    +0.000 OA
ATOM     34  N   UNK A   0      -4.502  10.819  16.139  0.00  0.00    +0.000 N 
ATOM     35  H   UNK A   0      -6.419  12.823  17.713  0.00  0.00    +0.000 HD
ATOM     36  H   UNK A   0      -6.580  12.261  16.125  0.00  0.00    +0.000 HD
ATOM     37  H   UNK A   0      -5.115  10.571  15.380  0.00  0.00    +0.000 HD
ENDBRANCH  23  29
ENDBRANCH  22  23
ENDBRANCH   1  22
TORSDOF 11
ENDMDL
MODEL 3
REMARK VINA RESULT:      -8.3      1.354      2.175
REMARK  Name = 
REMARK  11 active torsions:
REMARK  status: ('A' for Active; 'I' for Inactive)
REMARK    1  A    between atoms: C_6  and  C_7
REMARK    2  A    between atoms: C_7  and  C_8
REMARK    3  A    between atoms: C_8  and  C_9
REMARK    4  A    between atoms: C_12  and  C_13
REMARK    5  A    between atoms: N_15  and  CA_16
REMARK    6  A    between atoms: CA_16  and  CB_17
REMARK    7  A    between atoms: CA_16  and  C_22
REMARK    8  A    between atoms: CB_17  and  CG_18
REMARK    9  A    between atoms: CG_18  and  CD_19
REMARK   10  A    between atoms: CD_19  and  OE2_21
REMARK   11  A    between atoms: C_22  and  OXT_24
REMARK                            x       y       z     vdW  Elec       q    Type
REMARK                         _______ _______ _______ _____ _____    ______ ____
ROOT
ATOM      1  C   UNK A   0       1.387  10.007  19.322  0.00  0.00    +0.000 A 
ATOM      2  C   UNK A   0       1.375   8.952  20.246  0.00  0.00    +0.000 A 
ATOM      3  C   UNK A   0       1.872   7.699  19.905  0.00  0.00    +0.000 A 
ATOM      4  C   UNK A   0       2.371   7.464  18.623  0.00  0.00    +0.000 A 
ATOM      5  C   UNK A   0       2.314   8.483  17.665  0.00  0.00    +0.000 A 
ATOM      6  C   UNK A   0       1.826   9.747  18.015  0.00  0.00    +0.000 A 
ENDROOT
BRANCH   4   7
ATOM      7  C   UNK A   0       2.938   6.120  18.348  0.00  0.00    +0.000 C 
ATOM      8  O   UNK A   0       2.262   5.111  18.518  0.00  0.00    +0.000 OA
ATOM      9  N   GLU A   1       4.247   6.075  17.937  0.00  0.00    +0.000 N 
ATOM     10  H   GLU A   1       4.813   6.915  17.927  0.00  0.00    +0.000 HD
BRANCH   9  11
ATOM     11  CA  GLU A   1       4.926   4.811  17.672  0.00  0.00    +0.000 C 
BRANCH  11  12
ATOM     12  C   GLU A   1       5.587   4.396  18.991  0.00  0.00    +0.000 C 
ATOM     13  O   GLU A   1       6.281   5.156  19.662  0.00  0.00    +0.000 OA
BRANCH  12  14
ATOM     14  OXT GLU A   1       5.318   3.134  19.385  0.00  0.00    +0.000 OA
ATOM     15  HXT GLU A   1       4.606   2.682  18.878  0.00  0.00    +0.000 HD
ENDBRANCH  12  14
ENDBRANCH  11  12
BRANCH  11  16
ATOM     16  CB  GLU A   1       5.972   4.976  16.555  0.00  0.00    +0.000 C 
BRANCH  16  17
ATOM     17  CG  GLU A   1       5.947   3.889  15.491  0.00  0.00    +0.000 C 
BRANCH  17  18
ATOM     18  CD  GLU A   1       6.685   4.338  14.260  0.00  0.00    +0.000 C 
ATOM     19  OE1 GLU A   1       6.432   3.891  13.148  0.00  0.00    +0.000 OA
BRANCH  18  20
ATOM     20  OE2 GLU A   1       7.571   5.330  14.479  0.00  0.00    +0.000 OA
ATOM     21  HE2 GLU A   1       7.833   5.443  15.413  0.00  0.00    +0.000 HD
ENDBRANCH  18  20
ENDBRANCH  17  18
ENDBRANCH  16  17
ENDBRANCH  11  16
ENDBRANCH   9  11
ENDBRANCH   4   7
BRANCH   1  22
ATOM     22  C   UNK A   0       0.903  11.393  19.694  0.00  0.00    +0.000 C 
BRANCH  22  23
ATOM     23  C   UNK A   0      -0.402  11.385  20.505  0.00  0.00    +0.000 C 
BRANCH  23  29
ATOM     24  N   UNK A   0      -6.900  12.367  17.044  0.00  0.00    +0.000 N 
ATOM     25  C   UNK A   0      -5.635  11.988  17.368  0.00  0.00    +0.000 A 
ATOM     26  N   UNK A   0      -5.105  12.393  18.481  0.00  0.00    +0.000 NA
ATOM     27  C   UNK A   0      -3.844  11.941  18.709  0.00  0.00    +0.000 A 
ATOM     28  S   UNK A   0      -2.981  12.352  20.119  0.00  0.00    +0.000 S 
ATOM     29  C   UNK A   0      -1.622  11.421  19.640  0.00  0.00    +0.000 A 
ATOM     30  C   UNK A   0      -1.824  10.813  18.418  0.00  0.00    +0.000 A 
ATOM     31  C   UNK A   0      -3.105  11.120  17.885  0.00  0.00    +0.000 A 
ATOM     32  C   UNK A   0      -3.716  10.696  16.647  0.00  0.00    +0.000 A 
ATOM     33  O   UNK A   0      -3.166   9.967  15.827  0.00  0.00    +0.000 OA
ATOM     34  N   UNK A   0      -4.989  11.184  16.464  0.00  0.00    +0.000 N 
ATOM     35  H   UNK A   0      -7.234  13.124  17.632  0.00  0.00    +0.000 HD
ATOM     36  H   UNK A   0      -7.113  12.498  16.065  0.00  0.00    +0.000 HD
ATOM     37  H   UNK A   0      -5.461  10.873  15.632  0.00  0.00    +0.000 HD
ENDBRANCH  23  29
ENDBRANCH  22  23
ENDBRANCH   1  22
TORSDOF 11
ENDMDL
MODEL 4
REMARK VINA RESULT:      -8.1      1.427      2.084
REMARK  Name = 
REMARK  11 active torsions:
REMARK  status: ('A' for Active; 'I' for Inactive)
REMARK    1  A    between atoms: C_6  and  C_7
REMARK    2  A    between atoms: C_7  and  C_8
REMARK    3  A    between atoms: C_8  and  C_9
REMARK    4  A    between atoms: C_12  and  C_13
REMARK    5  A    between atoms: N_15  and  CA_16
REMARK    6  A    between atoms: CA_16  and  CB_17
REMARK    7  A    between atoms: CA_16  and  C_22
REMARK    8  A    between atoms: CB_17  and  CG_18
REMARK    9  A    between atoms: CG_18  and  CD_19
REMARK   10  A    between atoms: CD_19  and  OE2_21
REMARK   11  A    between atoms: C_22  and  OXT_24
REMARK                            x       y       z     vdW  Elec       q    Type
REMARK                         _______ _______ _______ _____ _____    ______ ____
ROOT
ATOM      1  C   UNK A   0       1.195   9.100  19.993  0.00  0.00    +0.000 A 
ATOM      2  C   UNK A   0       1.615   9.095  18.655  0.00  0.00    +0.000 A 
ATOM      3  C   UNK A   0       2.139   7.944  18.075  0.00  0.00    +0.000 A 
ATOM      4  C   UNK A   0       2.277   6.778  18.828  0.00  0.00    +0.000 A 
ATOM      5  C   UNK A   0       1.940   6.790  20.187  0.00  0.00    +0.000 A 
ATOM      6  C   UNK A   0       1.400   7.945  20.763  0.00  0.00    +0.000 A 
ENDROOT
BRANCH   4   7
ATOM      7  C   UNK A   0       2.790   5.572  18.129  0.00  0.00    +0.000 C 
ATOM      8  O   UNK A   0       2.015   4.772  17.617  0.00  0.00    +0.000 OA
ATOM      9  N   GLU A   1       4.151   5.393  18.124  0.00  0.00    +0.000 N 
ATOM     10  H   GLU A   1       4.752   6.006  18.662  0.00  0.00    +0.000 HD
BRANCH   9  11
ATOM     11  CA  GLU A   1       4.771   4.228  17.502  0.00  0.00    +0.000 C 
BRANCH  11  12
ATOM     12  C   GLU A   1       4.678   3.095  18.530  0.00  0.00    +0.000 C 
ATOM     13  O   GLU A   1       5.097   3.196  19.680  0.00  0.00    +0.000 OA
BRANCH  12  14
ATOM     14  OXT GLU A   1       4.064   1.979  18.086  0.00  0.00    +0.000 OA
ATOM     15  HXT GLU A   1       3.098   1.934  18.268  0.00  0.00    +0.000 HD
ENDBRANCH  12  14
ENDBRANCH  11  12
BRANCH  11  16
ATOM     16  CB  GLU A   1       6.234   4.522  17.129  0.00  0.00    +0.000 C 
BRANCH  16  17
ATOM     17  CG  GLU A   1       6.417   5.538  16.011  0.00  0.00    +0.000 C 
BRANCH  17  18
ATOM     18  CD  GLU A   1       6.939   4.869  14.770  0.00  0.00    +0.000 C 
ATOM     19  OE1 GLU A   1       7.799   5.381  14.065  0.00  0.00    +0.000 OA
BRANCH  18  20
ATOM     20  OE2 GLU A   1       6.449   3.630  14.563  0.00  0.00    +0.000 OA
ATOM     21  HE2 GLU A   1       7.127   2.934  14.472  0.00  0.00    +0.000 HD
ENDBRANCH  18  20
ENDBRANCH  17  18
ENDBRANCH  16  17
ENDBRANCH  11  16
ENDBRANCH   9  11
ENDBRANCH   4   7
BRANCH   1  22
ATOM     22  C   UNK A   0       0.570  10.327  20.623  0.00  0.00    +0.000 C 
BRANCH  22  23
ATOM     23  C   UNK A   0       0.339  11.473  19.627  0.00  0.00    +0.000 C 
BRANCH  23  29
ATOM     24  N   UNK A   0      -6.715  11.973  17.356  0.00  0.00    +0.000 N 
ATOM     25  C   UNK A   0      -5.389  11.691  17.450  0.00  0.00    +0.000 A 
ATOM     26  N   UNK A   0      -4.705  12.128  18.463  0.00  0.00    +0.000 NA
ATOM     27  C   UNK A   0      -3.394  11.773  18.461  0.00  0.00    +0.000 A 
ATOM     28  S   UNK A   0      -2.333  12.240  19.710  0.00  0.00    +0.000 S 
ATOM     29  C   UNK A   0      -1.011  11.420  18.985  0.00  0.00    +0.000 A 
ATOM     30  C   UNK A   0      -1.376  10.807  17.805  0.00  0.00    +0.000 A 
ATOM     31  C   UNK A   0      -2.750  11.017  17.506  0.00  0.00    +0.000 A 
ATOM     32  C   UNK A   0      -3.532  10.555  16.384  0.00  0.00    +0.000 A 
ATOM     33  O   UNK A   0      -3.080   9.876  15.468  0.00  0.00    +0.000 OA
ATOM     34  N   UNK A   0      -4.851  10.945  16.433  0.00  0.00    +0.000 N 
ATOM     35  H   UNK A   0      -6.998  12.699  18.008  0.00  0.00    +0.000 HD
ATOM     36  H   UNK A   0      -7.104  12.094  16.432  0.00  0.00    +0.000 HD
ATOM     37  H   UNK A   0      -5.435  10.604  15.689  0.00  0.00    +0.000 HD
ENDBRANCH  23  29
ENDBRANCH  22  23
ENDBRANCH   1  22
TORSDOF 11
ENDMDL
MODEL 5
REMARK VINA RESULT:      -8.0      3.284     11.378
REMARK  Name = 
REMARK  11 active torsions:
REMARK  status: ('A' for Active; 'I' for Inactive)
REMARK    1  A    between atoms: C_6  and  C_7
REMARK    2  A    between atoms: C_7  and  C_8
REMARK    3  A    between atoms: C_8  and  C_9
REMARK    4  A    between atoms: C_12  and  C_13
REMARK    5  A    between atoms: N_15  and  CA_16
REMARK    6  A    between atoms: CA_16  and  CB_17
REMARK    7  A    between atoms: CA_16  and  C_22
REMARK    8  A    between atoms: CB_17  and  CG_18
REMARK    9  A    between atoms: CG_18  and  CD_19
REMARK   10  A    between atoms: CD_19  and  OE2_21
REMARK   11  A    between atoms: C_22  and  OXT_24
REMARK                            x       y       z     vdW  Elec       q    Type
REMARK                         _______ _______ _______ _____ _____    ______ ____
ROOT
ATOM      1  C   UNK A   0      -0.509  10.145  18.608  0.00  0.00    +0.000 A 
ATOM      2  C   UNK A   0      -1.237  11.129  19.292  0.00  0.00    +0.000 A 
ATOM      3  C   UNK A   0      -2.489  11.534  18.840  0.00  0.00    +0.000 A 
ATOM      4  C   UNK A   0      -3.031  10.981  17.680  0.00  0.00    +0.000 A 
ATOM      5  C   UNK A   0      -2.281  10.058  16.941  0.00  0.00    +0.000 A 
ATOM      6  C   UNK A   0      -1.029   9.642  17.406  0.00  0.00    +0.000 A 
ENDROOT
BRANCH   4   7
ATOM      7  C   UNK A   0      -4.395  11.419  17.289  0.00  0.00    +0.000 C 
ATOM      8  O   UNK A   0      -4.717  11.475  16.107  0.00  0.00    +0.000 OA
ATOM      9  N   GLU A   1      -5.242  11.782  18.306  0.00  0.00    +0.000 N 
ATOM     10  H   GLU A   1      -4.904  11.843  19.260  0.00  0.00    +0.000 HD
BRANCH   9  11
ATOM     11  CA  GLU A   1      -6.593  12.265  18.046  0.00  0.00    +0.000 C 
BRANCH  11  12
ATOM     12  C   GLU A   1      -6.466  13.767  17.769  0.00  0.00    +0.000 C 
ATOM     13  O   GLU A   1      -6.808  14.285  16.709  0.00  0.00    +0.000 OA
BRANCH  12  14
ATOM     14  OXT GLU A   1      -5.981  14.492  18.799  0.00  0.00    +0.000 OA
ATOM     15  HXT GLU A   1      -5.420  13.991  19.433  0.00  0.00    +0.000 HD
ENDBRANCH  12  14
ENDBRANCH  11  12
BRANCH  11  16
ATOM     16  CB  GLU A   1      -7.510  11.999  19.253  0.00  0.00    +0.000 C 
BRANCH  16  17
ATOM     17  CG  GLU A   1      -6.882  11.167  20.361  0.00  0.00    +0.000 C 
BRANCH  17  18
ATOM     18  CD  GLU A   1      -7.339   9.737  20.273  0.00  0.00    +0.000 C 
ATOM     19  OE1 GLU A   1      -7.641   9.086  21.265  0.00  0.00    +0.000 OA
BRANCH  18  20
ATOM     20  OE2 GLU A   1      -7.474   9.278  19.012  0.00  0.00    +0.000 OA
ATOM     21  HE2 GLU A   1      -7.664   8.323  18.945  0.00  0.00    +0.000 HD
ENDBRANCH  18  20
ENDBRANCH  17  18
ENDBRANCH  16  17
ENDBRANCH  11  16
ENDBRANCH   9  11
ENDBRANCH   4   7
BRANCH   1  22
ATOM     22  C   UNK A   0       0.829   9.651  19.118  0.00  0.00    +0.000 C 
BRANCH  22  23
ATOM     23  C   UNK A   0       1.871   9.458  18.006  0.00  0.00    +0.000 C 
BRANCH  23  29
ATOM     24  N   UNK A   0       4.900   2.877  19.642  0.00  0.00    +0.000 N 
ATOM     25  C   UNK A   0       4.548   4.037  19.029  0.00  0.00    +0.000 A 
ATOM     26  N   UNK A   0       3.703   4.840  19.601  0.00  0.00    +0.000 NA
ATOM     27  C   UNK A   0       3.437   5.977  18.907  0.00  0.00    +0.000 A 
ATOM     28  S   UNK A   0       2.362   7.161  19.495  0.00  0.00    +0.000 S 
ATOM     29  C   UNK A   0       2.614   8.166  18.127  0.00  0.00    +0.000 A 
ATOM     30  C   UNK A   0       3.499   7.599  17.233  0.00  0.00    +0.000 A 
ATOM     31  C   UNK A   0       3.967   6.336  17.687  0.00  0.00    +0.000 A 
ATOM     32  C   UNK A   0       4.894   5.418  17.068  0.00  0.00    +0.000 A 
ATOM     33  O   UNK A   0       5.435   5.618  15.985  0.00  0.00    +0.000 OA
ATOM     34  N   UNK A   0       5.125   4.283  17.810  0.00  0.00    +0.000 N 
ATOM     35  H   UNK A   0       4.283   2.652  20.418  0.00  0.00    +0.000 HD
ATOM     36  H   UNK A   0       5.107   2.081  19.055  0.00  0.00    +0.000 HD
ATOM     37  H   UNK A   0       5.800   3.642  17.429  0.00  0.00    +0.000 HD
ENDBRANCH  23  29
ENDBRANCH  22  23
ENDBRANCH   1  22
TORSDOF 11
ENDMDL
MODEL 6
REMARK VINA RESULT:      -8.0      3.469      4.235
REMARK  Name = 
REMARK  11 active torsions:
REMARK  status: ('A' for Active; 'I' for Inactive)
REMARK    1  A    between atoms: C_6  and  C_7
REMARK    2  A    between atoms: C_7  and  C_8
REMARK    3  A    between atoms: C_8  and  C_9
REMARK    4  A    between atoms: C_12  and  C_13
REMARK    5  A    between atoms: N_15  and  CA_16
REMARK    6  A    between atoms: CA_16  and  CB_17
REMARK    7  A    between atoms: CA_16  and  C_22
REMARK    8  A    between atoms: CB_17  and  CG_18
REMARK    9  A    between atoms: CG_18  and  CD_19
REMARK   10  A    between atoms: CD_19  and  OE2_21
REMARK   11  A    between atoms: C_22  and  OXT_24
REMARK                            x       y       z     vdW  Elec       q    Type
REMARK                         _______ _______ _______ _____ _____    ______ ____
ROOT
ATOM      1  C   UNK A   0       0.972   9.734  19.669  0.00  0.00    +0.000 A 
ATOM      2  C   UNK A   0       1.166   8.664  20.554  0.00  0.00    +0.000 A 
ATOM      3  C   UNK A   0       1.832   7.512  20.147  0.00  0.00    +0.000 A 
ATOM      4  C   UNK A   0       2.299   7.395  18.838  0.00  0.00    +0.000 A 
ATOM      5  C   UNK A   0       2.040   8.419  17.919  0.00  0.00    +0.000 A 
ATOM      6  C   UNK A   0       1.382   9.582  18.335  0.00  0.00    +0.000 A 
ENDROOT
BRANCH   4   7
ATOM      7  C   UNK A   0       3.051   6.162  18.490  0.00  0.00    +0.000 C 
ATOM      8  O   UNK A   0       2.550   5.056  18.663  0.00  0.00    +0.000 OA
ATOM      9  N   GLU A   1       4.325   6.332  18.010  0.00  0.00    +0.000 N 
ATOM     10  H   GLU A   1       4.753   7.251  17.998  0.00  0.00    +0.000 HD
BRANCH   9  11
ATOM     11  CA  GLU A   1       5.176   5.197  17.670  0.00  0.00    +0.000 C 
BRANCH  11  12
ATOM     12  C   GLU A   1       5.728   4.663  18.997  0.00  0.00    +0.000 C 
ATOM     13  O   GLU A   1       6.493   5.306  19.712  0.00  0.00    +0.000 OA
BRANCH  12  14
ATOM     14  OXT GLU A   1       5.279   3.439  19.343  0.00  0.00    +0.000 OA
ATOM     15  HXT GLU A   1       5.344   2.756  18.638  0.00  0.00    +0.000 HD
ENDBRANCH  12  14
ENDBRANCH  11  12
BRANCH  11  16
ATOM     16  CB  GLU A   1       6.315   5.630  16.729  0.00  0.00    +0.000 C 
BRANCH  16  17
ATOM     17  CG  GLU A   1       7.093   4.485  16.099  0.00  0.00    +0.000 C 
BRANCH  17  18
ATOM     18  CD  GLU A   1       7.068   4.591  14.599  0.00  0.00    +0.000 C 
ATOM     19  OE1 GLU A   1       7.658   5.479  13.998  0.00  0.00    +0.000 OA
BRANCH  18  20
ATOM     20  OE2 GLU A   1       6.425   3.578  13.985  0.00  0.00    +0.000 OA
ATOM     21  HE2 GLU A   1       5.467   3.534  14.167  0.00  0.00    +0.000 HD
ENDBRANCH  18  20
ENDBRANCH  17  18
ENDBRANCH  16  17
ENDBRANCH  11  16
ENDBRANCH   9  11
ENDBRANCH   4   7
BRANCH   1  22
ATOM     22  C   UNK A   0       0.300  11.017  20.111  0.00  0.00    +0.000 C 
BRANCH  22  23
ATOM     23  C   UNK A   0      -0.006  11.057  21.615  0.00  0.00    +0.000 C 
BRANCH  23  29
ATOM     24  N   UNK A   0      -6.485  14.675  21.944  0.00  0.00    +0.000 N 
ATOM     25  C   UNK A   0      -5.391  13.924  22.237  0.00  0.00    +0.000 A 
ATOM     26  N   UNK A   0      -4.484  13.722  21.330  0.00  0.00    +0.000 NA
ATOM     27  C   UNK A   0      -3.428  12.971  21.739  0.00  0.00    +0.000 A 
ATOM     28  S   UNK A   0      -2.129  12.604  20.699  0.00  0.00    +0.000 S 
ATOM     29  C   UNK A   0      -1.311  11.722  21.923  0.00  0.00    +0.000 A 
ATOM     30  C   UNK A   0      -2.024  11.705  23.104  0.00  0.00    +0.000 A 
ATOM     31  C   UNK A   0      -3.245  12.424  22.990  0.00  0.00    +0.000 A 
ATOM     32  C   UNK A   0      -4.276  12.655  23.975  0.00  0.00    +0.000 A 
ATOM     33  O   UNK A   0      -4.234  12.223  25.122  0.00  0.00    +0.000 OA
ATOM     34  N   UNK A   0      -5.323  13.416  23.508  0.00  0.00    +0.000 N 
ATOM     35  H   UNK A   0      -6.584  14.832  20.945  0.00  0.00    +0.000 HD
ATOM     36  H   UNK A   0      -7.355  14.431  22.396  0.00  0.00    +0.000 HD
ATOM     37  H   UNK A   0      -6.039  13.633  24.182  0.00  0.00    +0.000 HD
ENDBRANCH  23  29
ENDBRANCH  22  23
ENDBRANCH   1  22
TORSDOF 11
ENDMDL
MODEL 7
REMARK VINA RESULT:      -8.0      5.312     11.871
REMARK  Name = 
REMARK  11 active torsions:
REMARK  status: ('A' for Active; 'I' for Inactive)
REMARK    1  A    between atoms: C_6  and  C_7
REMARK    2  A    between atoms: C_7  and  C_8
REMARK    3  A    between atoms: C_8  and  C_9
REMARK    4  A    between atoms: C_12  and  C_13
REMARK    5  A    between atoms: N_15  and  CA_16
REMARK    6  A    between atoms: CA_16  and  CB_17
REMARK    7  A    between atoms: CA_16  and  C_22
REMARK    8  A    between atoms: CB_17  and  CG_18
REMARK    9  A    between atoms: CG_18  and  CD_19
REMARK   10  A    between atoms: CD_19  and  OE2_21
REMARK   11  A    between atoms: C_22  and  OXT_24
REMARK                            x       y       z     vdW  Elec       q    Type
REMARK                         _______ _______ _______ _____ _____    ______ ____
ROOT
ATOM      1  C   UNK A   0       0.652   9.570  21.787  0.00  0.00    +0.000 A 
ATOM      2  C   UNK A   0       0.349  10.642  20.936  0.00  0.00    +0.000 A 
ATOM      3  C   UNK A   0      -0.602  11.592  21.295  0.00  0.00    +0.000 A 
ATOM      4  C   UNK A   0      -1.289  11.478  22.503  0.00  0.00    +0.000 A 
ATOM      5  C   UNK A   0      -1.058  10.369  23.326  0.00  0.00    +0.000 A 
ATOM      6  C   UNK A   0      -0.090   9.423  22.969  0.00  0.00    +0.000 A 
ENDROOT
BRANCH   4   7
ATOM      7  C   UNK A   0      -2.248  12.559  22.847  0.00  0.00    +0.000 C 
ATOM      8  O   UNK A   0      -1.844  13.670  23.172  0.00  0.00    +0.000 OA
ATOM      9  N   GLU A   1      -3.581  12.234  22.814  0.00  0.00    +0.000 N 
ATOM     10  H   GLU A   1      -3.874  11.276  22.664  0.00  0.00    +0.000 HD
BRANCH   9  11
ATOM     11  CA  GLU A   1      -4.616  13.200  23.168  0.00  0.00    +0.000 C 
BRANCH  11  12
ATOM     12  C   GLU A   1      -5.406  12.576  24.324  0.00  0.00    +0.000 C 
ATOM     13  O   GLU A   1      -6.575  12.213  24.219  0.00  0.00    +0.000 OA
BRANCH  12  14
ATOM     14  OXT GLU A   1      -4.706  12.418  25.466  0.00  0.00    +0.000 OA
ATOM     15  HXT GLU A   1      -5.217  12.053  26.223  0.00  0.00    +0.000 HD
ENDBRANCH  12  14
ENDBRANCH  11  12
BRANCH  11  16
ATOM     16  CB  GLU A   1      -5.529  13.488  21.964  0.00  0.00    +0.000 C 
BRANCH  16  17
ATOM     17  CG  GLU A   1      -5.573  12.385  20.917  0.00  0.00    +0.000 C 
BRANCH  17  18
ATOM     18  CD  GLU A   1      -6.903  11.682  20.946  0.00  0.00    +0.000 C 
ATOM     19  OE1 GLU A   1      -7.024  10.502  20.642  0.00  0.00    +0.000 OA
BRANCH  18  20
ATOM     20  OE2 GLU A   1      -7.914  12.435  21.423  0.00  0.00    +0.000 OA
ATOM     21  HE2 GLU A   1      -8.400  12.037  22.171  0.00  0.00    +0.000 HD
ENDBRANCH  18  20
ENDBRANCH  17  18
ENDBRANCH  16  17
ENDBRANCH  11  16
ENDBRANCH   9  11
ENDBRANCH   4   7
BRANCH   1  22
ATOM     22  C   UNK A   0       1.725   8.560  21.439  0.00  0.00    +0.000 C 
BRANCH  22  23
ATOM     23  C   UNK A   0       1.644   8.060  19.989  0.00  0.00    +0.000 C 
BRANCH  23  29
ATOM     24  N   UNK A   0       4.100   1.285  18.191  0.00  0.00    +0.000 N 
ATOM     25  C   UNK A   0       3.573   2.354  18.845  0.00  0.00    +0.000 A 
ATOM     26  N   UNK A   0       3.526   3.511  18.259  0.00  0.00    +0.000 NA
ATOM     27  C   UNK A   0       2.965   4.502  19.000  0.00  0.00    +0.000 A 
ATOM     28  S   UNK A   0       2.801   6.089  18.403  0.00  0.00    +0.000 S 
ATOM     29  C   UNK A   0       2.044   6.626  19.847  0.00  0.00    +0.000 A 
ATOM     30  C   UNK A   0       1.926   5.608  20.770  0.00  0.00    +0.000 A 
ATOM     31  C   UNK A   0       2.461   4.387  20.278  0.00  0.00    +0.000 A 
ATOM     32  C   UNK A   0       2.539   3.091  20.909  0.00  0.00    +0.000 A 
ATOM     33  O   UNK A   0       2.129   2.856  22.041  0.00  0.00    +0.000 OA
ATOM     34  N   UNK A   0       3.118   2.126  20.118  0.00  0.00    +0.000 N 
ATOM     35  H   UNK A   0       4.610   1.562  17.357  0.00  0.00    +0.000 HD
ATOM     36  H   UNK A   0       4.584   0.591  18.742  0.00  0.00    +0.000 HD
ATOM     37  H   UNK A   0       3.149   1.200  20.511  0.00  0.00    +0.000 HD
ENDBRANCH  23  29
ENDBRANCH  22  23
ENDBRANCH   1  22
TORSDOF 11
ENDMDL
MODEL 8
REMARK VINA RESULT:      -8.0      3.190      3.748
REMARK  Name = 
REMARK  11 active torsions:
REMARK  status: ('A' for Active; 'I' for Inactive)
REMARK    1  A    between atoms: C_6  and  C_7
REMARK    2  A    between atoms: C_7  and  C_8
REMARK    3  A    between atoms: C_8  and  C_9
REMARK    4  A    between atoms: C_12  and  C_13
REMARK    5  A    between atoms: N_15  and  CA_16
REMARK    6  A    between atoms: CA_16  and  CB_17
REMARK    7  A    between atoms: CA_16  and  C_22
REMARK    8  A    between atoms: CB_17  and  CG_18
REMARK    9  A    between atoms: CG_18  and  CD_19
REMARK   10  A    between atoms: CD_19  and  OE2_21
REMARK   11  A    between atoms: C_22  and  OXT_24
REMARK                            x       y       z     vdW  Elec       q    Type
REMARK                         _______ _______ _______ _____ _____    ______ ____
ROOT
ATOM      1  C   UNK A   0       1.123   9.611  19.172  0.00  0.00    +0.000 A 
ATOM      2  C   UNK A   0       1.762   9.420  17.939  0.00  0.00    +0.000 A 
ATOM      3  C   UNK A   0       2.462   8.248  17.671  0.00  0.00    +0.000 A 
ATOM      4  C   UNK A   0       2.561   7.250  18.641  0.00  0.00    +0.000 A 
ATOM      5  C   UNK A   0       1.999   7.460  19.906  0.00  0.00    +0.000 A 
ATOM      6  C   UNK A   0       1.283   8.634  20.167  0.00  0.00    +0.000 A 
ENDROOT
BRANCH   4   7
ATOM      7  C   UNK A   0       3.274   6.003  18.265  0.00  0.00    +0.000 C 
ATOM      8  O   UNK A   0       2.719   4.914  18.361  0.00  0.00    +0.000 OA
ATOM      9  N   GLU A   1       4.575   6.138  17.849  0.00  0.00    +0.000 N 
ATOM     10  H   GLU A   1       5.042   7.036  17.901  0.00  0.00    +0.000 HD
BRANCH   9  11
ATOM     11  CA  GLU A   1       5.391   4.984  17.490  0.00  0.00    +0.000 C 
BRANCH  11  12
ATOM     12  C   GLU A   1       6.477   4.875  18.567  0.00  0.00    +0.000 C 
ATOM     13  O   GLU A   1       6.326   5.285  19.715  0.00  0.00    +0.000 OA
BRANCH  12  14
ATOM     14  OXT GLU A   1       7.606   4.255  18.169  0.00  0.00    +0.000 OA
ATOM     15  HXT GLU A   1       7.496   3.312  17.909  0.00  0.00    +0.000 HD
ENDBRANCH  12  14
ENDBRANCH  11  12
BRANCH  11  16
ATOM     16  CB  GLU A   1       6.011   5.166  16.093  0.00  0.00    +0.000 C 
BRANCH  16  17
ATOM     17  CG  GLU A   1       6.070   3.900  15.251  0.00  0.00    +0.000 C 
BRANCH  17  18
ATOM     18  CD  GLU A   1       6.464   4.225  13.836  0.00  0.00    +0.000 C 
ATOM     19  OE1 GLU A   1       5.984   3.639  12.874  0.00  0.00    +0.000 OA
BRANCH  18  20
ATOM     20  OE2 GLU A   1       7.309   5.269  13.725  0.00  0.00    +0.000 OA
ATOM     21  HE2 GLU A   1       6.913   6.137  13.933  0.00  0.00    +0.000 HD
ENDBRANCH  18  20
ENDBRANCH  17  18
ENDBRANCH  16  17
ENDBRANCH  11  16
ENDBRANCH   9  11
ENDBRANCH   4   7
BRANCH   1  22
ATOM     22  C   UNK A   0       0.309  10.855  19.460  0.00  0.00    +0.000 C 
BRANCH  22  23
ATOM     23  C   UNK A   0       0.375  11.301  20.928  0.00  0.00    +0.000 C 
BRANCH  23  29
ATOM     24  N   UNK A   0      -5.859  12.950  24.613  0.00  0.00    +0.000 N 
ATOM     25  C   UNK A   0      -4.876  12.869  23.679  0.00  0.00    +0.000 A 
ATOM     26  N   UNK A   0      -3.804  12.180  23.927  0.00  0.00    +0.000 NA
ATOM     27  C   UNK A   0      -2.896  12.155  22.916  0.00  0.00    +0.000 A 
ATOM     28  S   UNK A   0      -1.431  11.296  23.044  0.00  0.00    +0.000 S 
ATOM     29  C   UNK A   0      -0.951  11.746  21.459  0.00  0.00    +0.000 A 
ATOM     30  C   UNK A   0      -1.894  12.546  20.848  0.00  0.00    +0.000 A 
ATOM     31  C   UNK A   0      -3.011  12.781  21.694  0.00  0.00    +0.000 A 
ATOM     32  C   UNK A   0      -4.208  13.552  21.451  0.00  0.00    +0.000 A 
ATOM     33  O   UNK A   0      -4.432  14.156  20.407  0.00  0.00    +0.000 OA
ATOM     34  N   UNK A   0      -5.091  13.546  22.506  0.00  0.00    +0.000 N 
ATOM     35  H   UNK A   0      -5.550  12.620  25.523  0.00  0.00    +0.000 HD
ATOM     36  H   UNK A   0      -6.391  13.808  24.660  0.00  0.00    +0.000 HD
ATOM     37  H   UNK A   0      -5.956  14.038  22.355  0.00  0.00    +0.000 HD
ENDBRANCH  23  29
ENDBRANCH  22  23
ENDBRANCH   1  22
TORSDOF 11
ENDMDL
MODEL 9
REMARK VINA RESULT:      -7.9      1.783      3.026
REMARK  Name = 
REMARK  11 active torsions:
REMARK  status: ('A' for Active; 'I' for Inactive)
REMARK    1  A    between atoms: C_6  and  C_7
REMARK    2  A    between atoms: C_7  and  C_8
REMARK    3  A    between atoms: C_8  and  C_9
REMARK    4  A    between atoms: C_12  and  C_13
REMARK    5  A    between atoms: N_15  and  CA_16
REMARK    6  A    between atoms: CA_16  and  CB_17
REMARK    7  A    between atoms: CA_16  and  C_22
REMARK    8  A    between atoms: CB_17  and  CG_18
REMARK    9  A    between atoms: CG_18  and  CD_19
REMARK   10  A    between atoms: CD_19  and  OE2_21
REMARK   11  A    between atoms: C_22  and  OXT_24
REMARK                            x       y       z     vdW  Elec       q    Type
REMARK                         _______ _______ _______ _____ _____    ______ ____
ROOT
ATOM      1  C   UNK A   0       1.111   9.113  20.289  0.00  0.00    +0.000 A 
ATOM      2  C   UNK A   0       1.085   7.960  21.085  0.00  0.00    +0.000 A 
ATOM      3  C   UNK A   0       1.666   6.775  20.644  0.00  0.00    +0.000 A 
ATOM      4  C   UNK A   0       2.263   6.710  19.385  0.00  0.00    +0.000 A 
ATOM      5  C   UNK A   0       2.224   7.829  18.545  0.00  0.00    +0.000 A 
ATOM      6  C   UNK A   0       1.652   9.024  18.997  0.00  0.00    +0.000 A 
ENDROOT
BRANCH   4   7
ATOM      7  C   UNK A   0       2.913   5.430  19.004  0.00  0.00    +0.000 C 
ATOM      8  O   UNK A   0       3.768   4.926  19.724  0.00  0.00    +0.000 OA
ATOM      9  N   GLU A   1       2.532   4.878  17.806  0.00  0.00    +0.000 N 
ATOM     10  H   GLU A   1       1.917   5.383  17.179  0.00  0.00    +0.000 HD
BRANCH   9  11
ATOM     11  CA  GLU A   1       3.126   3.643  17.306  0.00  0.00    +0.000 C 
BRANCH  11  12
ATOM     12  C   GLU A   1       2.521   2.508  18.140  0.00  0.00    +0.000 C 
ATOM     13  O   GLU A   1       1.334   2.195  18.086  0.00  0.00    +0.000 OA
BRANCH  12  14
ATOM     14  OXT GLU A   1       3.403   1.846  18.917  0.00  0.00    +0.000 OA
ATOM     15  HXT GLU A   1       3.310   0.867  18.913  0.00  0.00    +0.000 HD
ENDBRANCH  12  14
ENDBRANCH  11  12
BRANCH  11  16
ATOM     16  CB  GLU A   1       4.658   3.678  17.445  0.00  0.00    +0.000 C 
BRANCH  16  17
ATOM     17  CG  GLU A   1       5.376   4.507  16.390  0.00  0.00    +0.000 C 
BRANCH  17  18
ATOM     18  CD  GLU A   1       6.858   4.515  16.643  0.00  0.00    +0.000 C 
ATOM     19  OE1 GLU A   1       7.666   4.834  15.780  0.00  0.00    +0.000 OA
BRANCH  18  20
ATOM     20  OE2 GLU A   1       7.202   4.234  17.916  0.00  0.00    +0.000 OA
ATOM     21  HE2 GLU A   1       8.146   4.375  18.123  0.00  0.00    +0.000 HD
ENDBRANCH  18  20
ENDBRANCH  17  18
ENDBRANCH  16  17
ENDBRANCH  11  16
ENDBRANCH   9  11
ENDBRANCH   4   7
BRANCH   1  22
ATOM     22  C   UNK A   0       0.535  10.427  20.777  0.00  0.00    +0.000 C 
BRANCH  22  23
ATOM     23  C   UNK A   0       0.392  11.479  19.667  0.00  0.00    +0.000 C 
BRANCH  23  29
ATOM     24  N   UNK A   0      -6.645  11.897  17.327  0.00  0.00    +0.000 N 
ATOM     25  C   UNK A   0      -5.308  11.670  17.415  0.00  0.00    +0.000 A 
ATOM     26  N   UNK A   0      -4.662  12.021  18.484  0.00  0.00    +0.000 NA
ATOM     27  C   UNK A   0      -3.335  11.731  18.469  0.00  0.00    +0.000 A 
ATOM     28  S   UNK A   0      -2.316  12.103  19.783  0.00  0.00    +0.000 S 
ATOM     29  C   UNK A   0      -0.945  11.435  18.997  0.00  0.00    +0.000 A 
ATOM     30  C   UNK A   0      -1.262  10.943  17.748  0.00  0.00    +0.000 A 
ATOM     31  C   UNK A   0      -2.640  11.120  17.448  0.00  0.00    +0.000 A 
ATOM     32  C   UNK A   0      -3.382  10.752  16.265  0.00  0.00    +0.000 A 
ATOM     33  O   UNK A   0      -2.884  10.203  15.287  0.00  0.00    +0.000 OA
ATOM     34  N   UNK A   0      -4.719  11.070  16.332  0.00  0.00    +0.000 N 
ATOM     35  H   UNK A   0      -6.973  12.529  18.051  0.00  0.00    +0.000 HD
ATOM     36  H   UNK A   0      -7.026  12.103  16.415  0.00  0.00    +0.000 HD
ATOM     37  H   UNK A   0      -5.275  10.789  15.542  0.00  0.00    +0.000 HD
ENDBRANCH  23  29
ENDBRANCH  22  23
ENDBRANCH   1  22
TORSDOF 11
ENDMDL
