MODEL 1
REMARK VINA RESULT:      -8.2      0.000      0.000
REMARK  Name = 
REMARK  5 active torsions:
REMARK  status: ('A' for Active; 'I' for Inactive)
REMARK    1  A    between atoms: C_2  and  C_3
REMARK    2  A    between atoms: C_3  and  C_4
REMARK    3  A    between atoms: N_14  and  C_15
REMARK    4  A    between atoms: C_15  and  C_16
REMARK    5  A    between atoms: C_16  and  C_17
REMARK                            x       y       z     vdW  Elec       q    Type
REMARK                         _______ _______ _______ _____ _____    ______ ____
ROOT
ATOM      1  O   UNL     1       8.768   7.917  19.058  0.00  0.00    +0.000 OA
ATOM      2  C   UNL     1       8.272   8.604  18.172  0.00  0.00    +0.000 C 
ATOM      3  N   UNL     1       7.468   8.091  17.179  0.00  0.00    +0.000 N 
ATOM      4  H   UNL     1       6.865   8.735  16.669  0.00  0.00    +0.000 HD
ENDROOT
BRANCH   2   5
ATOM      5  C   UNL     1       8.464  10.106  18.050  0.00  0.00    +0.000 C 
BRANCH   5   6
ATOM      6  C   UNL     1       9.765  10.644  18.680  0.00  0.00    +0.000 C 
ATOM      7  C   UNL     1      10.622  11.474  17.714  0.00  0.00    +0.000 C 
ATOM      8  C   UNL     1       9.981  12.830  17.475  0.00  0.00    +0.000 C 
ATOM      9  O   UNL     1       9.862  13.602  18.668  0.00  0.00    +0.000 OA
ATOM     10  C   UNL     1       9.464  12.916  19.783  0.00  0.00    +0.000 A 
ATOM     11  C   UNL     1       9.120  13.709  20.880  0.00  0.00    +0.000 A 
ATOM     12  C   UNL     1       8.731  13.119  22.079  0.00  0.00    +0.000 A 
ATOM     13  C   UNL     1       8.710  11.732  22.193  0.00  0.00    +0.000 A 
ATOM     14  C   UNL     1       9.061  10.934  21.099  0.00  0.00    +0.000 A 
ATOM     15  C   UNL     1       9.429  11.516  19.877  0.00  0.00    +0.000 A 
ENDBRANCH   5   6
ENDBRANCH   2   5
BRANCH   3  16
ATOM     16  C   UNL     1       7.078   6.693  17.111  0.00  0.00    +0.000 C 
BRANCH  16  17
ATOM     17  C   UNL     1       5.604   6.468  17.437  0.00  0.00    +0.000 C 
BRANCH  17  18
ATOM     18  C   UNL     1       5.420   5.420  18.528  0.00  0.00    +0.000 C 
ATOM     19  O   UNL     1       6.378   5.042  19.207  0.00  0.00    +0.000 OA
ATOM     20  N   UNL     1       4.138   4.912  18.720  0.00  0.00    +0.000 N 
ATOM     21  C   UNL     1       3.940   3.988  19.835  0.00  0.00    +0.000 C 
ATOM     22  C   UNL     1       4.120   2.539  19.393  0.00  0.00    +0.000 C 
ATOM     23  C   UNL     1       2.917   1.970  18.644  0.00  0.00    +0.000 C 
ATOM     24  C   UNL     1       2.490   2.761  17.407  0.00  0.00    +0.000 C 
ATOM     25  C   UNL     1       1.925   4.143  17.741  0.00  0.00    +0.000 C 
ATOM     26  C   UNL     1       2.996   5.230  17.863  0.00  0.00    +0.000 C 
ENDBRANCH  17  18
ENDBRANCH  16  17
ENDBRANCH   3  16
TORSDOF 5
ENDMDL
MODEL 2
REMARK VINA RESULT:      -8.0      5.414      7.868
REMARK  Name = 
REMARK  5 active torsions:
REMARK  status: ('A' for Active; 'I' for Inactive)
REMARK    1  A    between atoms: C_2  and  C_3
REMARK    2  A    between atoms: C_3  and  C_4
REMARK    3  A    between atoms: N_14  and  C_15
REMARK    4  A    between atoms: C_15  and  C_16
REMARK    5  A    between atoms: C_16  and  C_17
REMARK                            x       y       z     vdW  Elec       q    Type
REMARK                         _______ _______ _______ _____ _____    ______ ____
ROOT
ATOM      1  O   UNL     1       4.621   3.313  18.996  0.00  0.00    +0.000 OA
ATOM      2  C   UNL     1       4.349   3.076  17.825  0.00  0.00    +0.000 C 
ATOM      3  N   UNL     1       3.113   2.631  17.412  0.00  0.00    +0.000 N 
ATOM      4  H   UNL     1       2.868   2.737  16.430  0.00  0.00    +0.000 HD
ENDROOT
BRANCH   2   5
ATOM      5  C   UNL     1       5.323   3.245  16.671  0.00  0.00    +0.000 C 
BRANCH   5   6
ATOM      6  C   UNL     1       5.138   4.539  15.855  0.00  0.00    +0.000 C 
ATOM      7  C   UNL     1       5.699   5.791  16.544  0.00  0.00    +0.000 C 
ATOM      8  C   UNL     1       7.217   5.781  16.496  0.00  0.00    +0.000 C 
ATOM      9  O   UNL     1       7.728   5.796  15.165  0.00  0.00    +0.000 OA
ATOM     10  C   UNL     1       7.074   4.995  14.269  0.00  0.00    +0.000 A 
ATOM     11  C   UNL     1       7.715   4.829  13.039  0.00  0.00    +0.000 A 
ATOM     12  C   UNL     1       7.126   4.061  12.038  0.00  0.00    +0.000 A 
ATOM     13  C   UNL     1       5.882   3.478  12.255  0.00  0.00    +0.000 A 
ATOM     14  C   UNL     1       5.233   3.648  13.483  0.00  0.00    +0.000 A 
ATOM     15  C   UNL     1       5.827   4.397  14.509  0.00  0.00    +0.000 A 
ENDBRANCH   5   6
ENDBRANCH   2   5
BRANCH   3  16
ATOM     16  C   UNL     1       1.988   2.451  18.314  0.00  0.00    +0.000 C 
BRANCH  16  17
ATOM     17  C   UNL     1       1.052   3.656  18.349  0.00  0.00    +0.000 C 
BRANCH  17  18
ATOM     18  C   UNL     1       1.298   4.528  19.573  0.00  0.00    +0.000 C 
ATOM     19  O   UNL     1       0.822   4.222  20.671  0.00  0.00    +0.000 OA
ATOM     20  N   UNL     1       2.069   5.674  19.402  0.00  0.00    +0.000 N 
ATOM     21  C   UNL     1       2.394   6.453  20.595  0.00  0.00    +0.000 C 
ATOM     22  C   UNL     1       1.364   7.550  20.839  0.00  0.00    +0.000 C 
ATOM     23  C   UNL     1       1.539   8.769  19.935  0.00  0.00    +0.000 C 
ATOM     24  C   UNL     1       1.525   8.473  18.435  0.00  0.00    +0.000 C 
ATOM     25  C   UNL     1       2.736   7.662  17.970  0.00  0.00    +0.000 C 
ATOM     26  C   UNL     1       2.549   6.149  18.104  0.00  0.00    +0.000 C 
ENDBRANCH  17  18
ENDBRANCH  16  17
ENDBRANCH   3  16
TORSDOF 5
ENDMDL
MODEL 3
REMARK VINA RESULT:      -7.9      1.018      1.395
REMARK  Name = 
REMARK  5 active torsions:
REMARK  status: ('A' for Active; 'I' for Inactive)
REMARK    1  A    between atoms: C_2  and  C_3
REMARK    2  A    between atoms: C_3  and  C_4
REMARK    3  A    between atoms: N_14  and  C_15
REMARK    4  A    between atoms: C_15  and  C_16
REMARK    5  A    between atoms: C_16  and  C_17
REMARK                            x       y       z     vdW  Elec       q    Type
REMARK                         _______ _______ _______ _____ _____    ______ ____
ROOT
ATOM      1  O   UNL     1       8.741   7.952  18.988  0.00  0.00    +0.000 OA
ATOM      2  C   UNL     1       8.261   8.654  18.106  0.00  0.00    +0.000 C 
ATOM      3  N   UNL     1       7.467   8.159  17.096  0.00  0.00    +0.000 N 
ATOM      4  H   UNL     1       6.875   8.813  16.586  0.00  0.00    +0.000 HD
ENDROOT
BRANCH   2   5
ATOM      5  C   UNL     1       8.463  10.157  18.006  0.00  0.00    +0.000 C 
BRANCH   5   6
ATOM      6  C   UNL     1       9.766  10.676  18.645  0.00  0.00    +0.000 C 
ATOM      7  C   UNL     1      10.632  11.513  17.692  0.00  0.00    +0.000 C 
ATOM      8  C   UNL     1      10.001  12.877  17.470  0.00  0.00    +0.000 C 
ATOM      9  O   UNL     1       9.885  13.634  18.673  0.00  0.00    +0.000 OA
ATOM     10  C   UNL     1       9.481  12.936  19.778  0.00  0.00    +0.000 A 
ATOM     11  C   UNL     1       9.140  13.717  20.885  0.00  0.00    +0.000 A 
ATOM     12  C   UNL     1       8.745  13.113  22.076  0.00  0.00    +0.000 A 
ATOM     13  C   UNL     1       8.713  11.725  22.171  0.00  0.00    +0.000 A 
ATOM     14  C   UNL     1       9.061  10.939  21.066  0.00  0.00    +0.000 A 
ATOM     15  C   UNL     1       9.435  11.535  19.853  0.00  0.00    +0.000 A 
ENDBRANCH   5   6
ENDBRANCH   2   5
BRANCH   3  16
ATOM     16  C   UNL     1       7.070   6.764  17.004  0.00  0.00    +0.000 C 
BRANCH  16  17
ATOM     17  C   UNL     1       5.767   6.465  17.739  0.00  0.00    +0.000 C 
BRANCH  17  18
ATOM     18  C   UNL     1       5.145   5.153  17.278  0.00  0.00    +0.000 C 
ATOM     19  O   UNL     1       5.279   4.767  16.113  0.00  0.00    +0.000 OA
ATOM     20  N   UNL     1       4.424   4.419  18.215  0.00  0.00    +0.000 N 
ATOM     21  C   UNL     1       3.918   3.111  17.804  0.00  0.00    +0.000 C 
ATOM     22  C   UNL     1       2.503   3.214  17.244  0.00  0.00    +0.000 C 
ATOM     23  C   UNL     1       1.426   3.346  18.319  0.00  0.00    +0.000 C 
ATOM     24  C   UNL     1       1.609   4.521  19.281  0.00  0.00    +0.000 C 
ATOM     25  C   UNL     1       2.829   4.369  20.190  0.00  0.00    +0.000 C 
ATOM     26  C   UNL     1       4.127   4.889  19.569  0.00  0.00    +0.000 C 
ENDBRANCH  17  18
ENDBRANCH  16  17
ENDBRANCH   3  16
TORSDOF 5
ENDMDL
MODEL 4
REMARK VINA RESULT:      -7.7      2.011      9.374
REMARK  Name = 
REMARK  5 active torsions:
REMARK  status: ('A' for Active; 'I' for Inactive)
REMARK    1  A    between atoms: C_2  and  C_3
REMARK    2  A    between atoms: C_3  and  C_4
REMARK    3  A    between atoms: N_14  and  C_15
REMARK    4  A    between atoms: C_15  and  C_16
REMARK    5  A    between atoms: C_16  and  C_17
REMARK                            x       y       z     vdW  Elec       q    Type
REMARK                         _______ _______ _______ _____ _____    ______ ____
ROOT
ATOM      1  O   UNL     1       8.023   5.089  18.647  0.00  0.00    +0.000 OA
ATOM      2  C   UNL     1       6.967   5.711  18.671  0.00  0.00    +0.000 C 
ATOM      3  N   UNL     1       6.853   7.021  18.264  0.00  0.00    +0.000 N 
ATOM      4  H   UNL     1       5.926   7.374  18.034  0.00  0.00    +0.000 HD
ENDROOT
BRANCH   2   5
ATOM      5  C   UNL     1       5.645   5.129  19.142  0.00  0.00    +0.000 C 
BRANCH   5   6
ATOM      6  C   UNL     1       4.414   5.592  18.338  0.00  0.00    +0.000 C 
ATOM      7  C   UNL     1       4.467   5.211  16.852  0.00  0.00    +0.000 C 
ATOM      8  C   UNL     1       4.224   3.721  16.683  0.00  0.00    +0.000 C 
ATOM      9  O   UNL     1       2.942   3.313  17.154  0.00  0.00    +0.000 OA
ATOM     10  C   UNL     1       2.534   3.878  18.331  0.00  0.00    +0.000 A 
ATOM     11  C   UNL     1       1.398   3.303  18.906  0.00  0.00    +0.000 A 
ATOM     12  C   UNL     1       0.874   3.817  20.089  0.00  0.00    +0.000 A 
ATOM     13  C   UNL     1       1.469   4.923  20.687  0.00  0.00    +0.000 A 
ATOM     14  C   UNL     1       2.602   5.506  20.111  0.00  0.00    +0.000 A 
ATOM     15  C   UNL     1       3.156   4.982  18.933  0.00  0.00    +0.000 A 
ENDBRANCH   5   6
ENDBRANCH   2   5
BRANCH   3  16
ATOM     16  C   UNL     1       7.959   7.783  17.710  0.00  0.00    +0.000 C 
BRANCH  16  17
ATOM     17  C   UNL     1       8.575   8.757  18.712  0.00  0.00    +0.000 C 
BRANCH  17  18
ATOM     18  C   UNL     1       8.524  10.193  18.209  0.00  0.00    +0.000 C 
ATOM     19  O   UNL     1       7.860  10.490  17.212  0.00  0.00    +0.000 OA
ATOM     20  N   UNL     1       9.256  11.146  18.912  0.00  0.00    +0.000 N 
ATOM     21  C   UNL     1       9.124  12.541  18.496  0.00  0.00    +0.000 C 
ATOM     22  C   UNL     1      10.191  12.918  17.473  0.00  0.00    +0.000 C 
ATOM     23  C   UNL     1      11.565  13.181  18.087  0.00  0.00    +0.000 C 
ATOM     24  C   UNL     1      12.135  12.031  18.919  0.00  0.00    +0.000 C 
ATOM     25  C   UNL     1      11.350  11.773  20.205  0.00  0.00    +0.000 C 
ATOM     26  C   UNL     1      10.159  10.830  20.019  0.00  0.00    +0.000 C 
ENDBRANCH  17  18
ENDBRANCH  16  17
ENDBRANCH   3  16
TORSDOF 5
ENDMDL
MODEL 5
REMARK VINA RESULT:      -7.7      1.147      1.586
REMARK  Name = 
REMARK  5 active torsions:
REMARK  status: ('A' for Active; 'I' for Inactive)
REMARK    1  A    between atoms: C_2  and  C_3
REMARK    2  A    between atoms: C_3  and  C_4
REMARK    3  A    between atoms: N_14  and  C_15
REMARK    4  A    between atoms: C_15  and  C_16
REMARK    5  A    between atoms: C_16  and  C_17
REMARK                            x       y       z     vdW  Elec       q    Type
REMARK                         _______ _______ _______ _____ _____    ______ ____
ROOT
ATOM      1  O   UNL     1       8.815   8.031  18.975  0.00  0.00    +0.000 OA
ATOM      2  C   UNL     1       8.238   8.730  18.150  0.00  0.00    +0.000 C 
ATOM      3  N   UNL     1       7.259   8.252  17.309  0.00  0.00    +0.000 N 
ATOM      4  H   UNL     1       6.631   8.924  16.872  0.00  0.00    +0.000 HD
ENDROOT
BRANCH   2   5
ATOM      5  C   UNL     1       8.512  10.210  17.945  0.00  0.00    +0.000 C 
BRANCH   5   6
ATOM      6  C   UNL     1       9.799  10.727  18.618  0.00  0.00    +0.000 C 
ATOM      7  C   UNL     1      10.675  11.588  17.697  0.00  0.00    +0.000 C 
ATOM      8  C   UNL     1      10.038  12.951  17.489  0.00  0.00    +0.000 C 
ATOM      9  O   UNL     1       9.895  13.685  18.702  0.00  0.00    +0.000 OA
ATOM     10  C   UNL     1       9.475  12.963  19.787  0.00  0.00    +0.000 A 
ATOM     11  C   UNL     1       9.109  13.721  20.902  0.00  0.00    +0.000 A 
ATOM     12  C   UNL     1       8.696  13.093  22.073  0.00  0.00    +0.000 A 
ATOM     13  C   UNL     1       8.674  11.703  22.142  0.00  0.00    +0.000 A 
ATOM     14  C   UNL     1       9.047  10.940  21.031  0.00  0.00    +0.000 A 
ATOM     15  C   UNL     1       9.439  11.561  19.835  0.00  0.00    +0.000 A 
ENDBRANCH   5   6
ENDBRANCH   2   5
BRANCH   3  16
ATOM     16  C   UNL     1       6.768   6.885  17.351  0.00  0.00    +0.000 C 
BRANCH  16  17
ATOM     17  C   UNL     1       5.549   6.661  16.461  0.00  0.00    +0.000 C 
BRANCH  17  18
ATOM     18  C   UNL     1       4.255   6.653  17.265  0.00  0.00    +0.000 C 
ATOM     19  O   UNL     1       3.774   7.706  17.695  0.00  0.00    +0.000 OA
ATOM     20  N   UNL     1       3.648   5.422  17.494  0.00  0.00    +0.000 N 
ATOM     21  C   UNL     1       2.353   5.424  18.172  0.00  0.00    +0.000 C 
ATOM     22  C   UNL     1       2.517   5.283  19.682  0.00  0.00    +0.000 C 
ATOM     23  C   UNL     1       2.808   3.854  20.138  0.00  0.00    +0.000 C 
ATOM     24  C   UNL     1       4.035   3.205  19.495  0.00  0.00    +0.000 C 
ATOM     25  C   UNL     1       3.863   2.943  17.999  0.00  0.00    +0.000 C 
ATOM     26  C   UNL     1       4.238   4.137  17.119  0.00  0.00    +0.000 C 
ENDBRANCH  17  18
ENDBRANCH  16  17
ENDBRANCH   3  16
TORSDOF 5
ENDMDL
MODEL 6
REMARK VINA RESULT:      -7.6      5.874      7.607
REMARK  Name = 
REMARK  5 active torsions:
REMARK  status: ('A' for Active; 'I' for Inactive)
REMARK    1  A    between atoms: C_2  and  C_3
REMARK    2  A    between atoms: C_3  and  C_4
REMARK    3  A    between atoms: N_14  and  C_15
REMARK    4  A    between atoms: C_15  and  C_16
REMARK    5  A    between atoms: C_16  and  C_17
REMARK                            x       y       z     vdW  Elec       q    Type
REMARK                         _______ _______ _______ _____ _____    ______ ____
ROOT
ATOM      1  O   UNL     1       1.563   9.896  17.470  0.00  0.00    +0.000 OA
ATOM      2  C   UNL     1       1.623   9.418  18.597  0.00  0.00    +0.000 C 
ATOM      3  N   UNL     1       2.042   8.131  18.850  0.00  0.00    +0.000 N 
ATOM      4  H   UNL     1       2.346   7.901  19.794  0.00  0.00    +0.000 HD
ENDROOT
BRANCH   2   5
ATOM      5  C   UNL     1       1.257  10.172  19.864  0.00  0.00    +0.000 C 
BRANCH   5   6
ATOM      6  C   UNL     1      -0.107   9.787  20.472  0.00  0.00    +0.000 C 
ATOM      7  C   UNL     1      -0.013   8.733  21.584  0.00  0.00    +0.000 C 
ATOM      8  C   UNL     1       0.563   9.350  22.847  0.00  0.00    +0.000 C 
ATOM      9  O   UNL     1      -0.245  10.404  23.364  0.00  0.00    +0.000 OA
ATOM     10  C   UNL     1      -0.767  11.264  22.436  0.00  0.00    +0.000 A 
ATOM     11  C   UNL     1      -1.352  12.420  22.956  0.00  0.00    +0.000 A 
ATOM     12  C   UNL     1      -1.944  13.351  22.107  0.00  0.00    +0.000 A 
ATOM     13  C   UNL     1      -1.975  13.116  20.736  0.00  0.00    +0.000 A 
ATOM     14  C   UNL     1      -1.396  11.955  20.211  0.00  0.00    +0.000 A 
ATOM     15  C   UNL     1      -0.773  11.022  21.053  0.00  0.00    +0.000 A 
ENDBRANCH   5   6
ENDBRANCH   2   5
BRANCH   3  16
ATOM     16  C   UNL     1       2.509   7.226  17.813  0.00  0.00    +0.000 C 
BRANCH  16  17
ATOM     17  C   UNL     1       3.870   6.610  18.126  0.00  0.00    +0.000 C 
BRANCH  17  18
ATOM     18  C   UNL     1       3.891   5.112  17.851  0.00  0.00    +0.000 C 
ATOM     19  O   UNL     1       4.228   4.679  16.746  0.00  0.00    +0.000 OA
ATOM     20  N   UNL     1       3.513   4.264  18.888  0.00  0.00    +0.000 N 
ATOM     21  C   UNL     1       3.634   2.825  18.660  0.00  0.00    +0.000 C 
ATOM     22  C   UNL     1       2.337   2.239  18.112  0.00  0.00    +0.000 C 
ATOM     23  C   UNL     1       1.261   2.028  19.176  0.00  0.00    +0.000 C 
ATOM     24  C   UNL     1       0.882   3.278  19.971  0.00  0.00    +0.000 C 
ATOM     25  C   UNL     1       2.008   3.781  20.875  0.00  0.00    +0.000 C 
ATOM     26  C   UNL     1       2.985   4.726  20.171  0.00  0.00    +0.000 C 
ENDBRANCH  17  18
ENDBRANCH  16  17
ENDBRANCH   3  16
TORSDOF 5
ENDMDL
MODEL 7
REMARK VINA RESULT:      -7.6      5.688      7.234
REMARK  Name = 
REMARK  5 active torsions:
REMARK  status: ('A' for Active; 'I' for Inactive)
REMARK    1  A    between atoms: C_2  and  C_3
REMARK    2  A    between atoms: C_3  and  C_4
REMARK    3  A    between atoms: N_14  and  C_15
REMARK    4  A    between atoms: C_15  and  C_16
REMARK    5  A    between atoms: C_16  and  C_17
REMARK                            x       y       z     vdW  Elec       q    Type
REMARK                         _______ _______ _______ _____ _____    ______ ____
ROOT
ATOM      1  O   UNL     1       2.564   4.540  21.651  0.00  0.00    +0.000 OA
ATOM      2  C   UNL     1       1.853   4.719  20.669  0.00  0.00    +0.000 C 
ATOM      3  N   UNL     1       1.593   3.740  19.737  0.00  0.00    +0.000 N 
ATOM      4  H   UNL     1       0.784   3.858  19.130  0.00  0.00    +0.000 HD
ENDROOT
BRANCH   2   5
ATOM      5  C   UNL     1       1.157   6.031  20.348  0.00  0.00    +0.000 C 
BRANCH   5   6
ATOM      6  C   UNL     1       2.089   7.257  20.284  0.00  0.00    +0.000 C 
ATOM      7  C   UNL     1       2.712   7.490  18.901  0.00  0.00    +0.000 C 
ATOM      8  C   UNL     1       1.667   8.026  17.937  0.00  0.00    +0.000 C 
ATOM      9  O   UNL     1       1.129   9.280  18.348  0.00  0.00    +0.000 OA
ATOM     10  C   UNL     1       0.862   9.403  19.684  0.00  0.00    +0.000 A 
ATOM     11  C   UNL     1       0.120  10.532  20.042  0.00  0.00    +0.000 A 
ATOM     12  C   UNL     1      -0.184  10.777  21.378  0.00  0.00    +0.000 A 
ATOM     13  C   UNL     1       0.274   9.908  22.364  0.00  0.00    +0.000 A 
ATOM     14  C   UNL     1       1.023   8.780  22.010  0.00  0.00    +0.000 A 
ATOM     15  C   UNL     1       1.315   8.507  20.664  0.00  0.00    +0.000 A 
ENDBRANCH   5   6
ENDBRANCH   2   5
BRANCH   3  16
ATOM     16  C   UNL     1       2.088   2.379  19.850  0.00  0.00    +0.000 C 
BRANCH  16  17
ATOM     17  C   UNL     1       3.520   2.220  19.348  0.00  0.00    +0.000 C 
BRANCH  17  18
ATOM     18  C   UNL     1       3.708   2.840  17.969  0.00  0.00    +0.000 C 
ATOM     19  O   UNL     1       3.187   2.331  16.973  0.00  0.00    +0.000 OA
ATOM     20  N   UNL     1       4.487   3.990  17.883  0.00  0.00    +0.000 N 
ATOM     21  C   UNL     1       4.581   4.645  16.580  0.00  0.00    +0.000 C 
ATOM     22  C   UNL     1       5.781   4.137  15.788  0.00  0.00    +0.000 C 
ATOM     23  C   UNL     1       7.112   4.737  16.239  0.00  0.00    +0.000 C 
ATOM     24  C   UNL     1       7.443   4.543  17.720  0.00  0.00    +0.000 C 
ATOM     25  C   UNL     1       6.510   5.319  18.651  0.00  0.00    +0.000 C 
ATOM     26  C   UNL     1       5.229   4.561  19.007  0.00  0.00    +0.000 C 
ENDBRANCH  17  18
ENDBRANCH  16  17
ENDBRANCH   3  16
TORSDOF 5
ENDMDL
MODEL 8
REMARK VINA RESULT:      -7.6      6.072      9.520
REMARK  Name = 
REMARK  5 active torsions:
REMARK  status: ('A' for Active; 'I' for Inactive)
REMARK    1  A    between atoms: C_2  and  C_3
REMARK    2  A    between atoms: C_3  and  C_4
REMARK    3  A    between atoms: N_14  and  C_15
REMARK    4  A    between atoms: C_15  and  C_16
REMARK    5  A    between atoms: C_16  and  C_17
REMARK                            x       y       z     vdW  Elec       q    Type
REMARK                         _______ _______ _______ _____ _____    ______ ____
ROOT
ATOM      1  O   UNL     1       2.323   8.223  18.854  0.00  0.00    +0.000 OA
ATOM      2  C   UNL     1       2.122   7.242  19.561  0.00  0.00    +0.000 C 
ATOM      3  N   UNL     1       1.696   7.328  20.868  0.00  0.00    +0.000 N 
ATOM      4  H   UNL     1       1.274   6.503  21.291  0.00  0.00    +0.000 HD
ENDROOT
BRANCH   2   5
ATOM      5  C   UNL     1       2.304   5.806  19.100  0.00  0.00    +0.000 C 
BRANCH   5   6
ATOM      6  C   UNL     1       3.750   5.279  19.185  0.00  0.00    +0.000 C 
ATOM      7  C   UNL     1       3.854   3.841  19.711  0.00  0.00    +0.000 C 
ATOM      8  C   UNL     1       3.382   2.859  18.653  0.00  0.00    +0.000 C 
ATOM      9  O   UNL     1       4.169   2.907  17.465  0.00  0.00    +0.000 OA
ATOM     10  C   UNL     1       4.523   4.157  17.037  0.00  0.00    +0.000 A 
ATOM     11  C   UNL     1       5.083   4.214  15.759  0.00  0.00    +0.000 A 
ATOM     12  C   UNL     1       5.511   5.430  15.232  0.00  0.00    +0.000 A 
ATOM     13  C   UNL     1       5.403   6.590  15.994  0.00  0.00    +0.000 A 
ATOM     14  C   UNL     1       4.850   6.536  17.278  0.00  0.00    +0.000 A 
ATOM     15  C   UNL     1       4.391   5.322  17.810  0.00  0.00    +0.000 A 
ENDBRANCH   5   6
ENDBRANCH   2   5
BRANCH   3  16
ATOM     16  C   UNL     1       1.387   8.586  21.526  0.00  0.00    +0.000 C 
BRANCH  16  17
ATOM     17  C   UNL     1      -0.111   8.866  21.606  0.00  0.00    +0.000 C 
BRANCH  17  18
ATOM     18  C   UNL     1      -0.410  10.122  22.413  0.00  0.00    +0.000 C 
ATOM     19  O   UNL     1      -0.443  10.086  23.646  0.00  0.00    +0.000 OA
ATOM     20  N   UNL     1      -0.647  11.299  21.707  0.00  0.00    +0.000 N 
ATOM     21  C   UNL     1      -0.828  12.525  22.481  0.00  0.00    +0.000 C 
ATOM     22  C   UNL     1      -2.300  12.773  22.791  0.00  0.00    +0.000 C 
ATOM     23  C   UNL     1      -3.089  13.342  21.613  0.00  0.00    +0.000 C 
ATOM     24  C   UNL     1      -3.040  12.505  20.334  0.00  0.00    +0.000 C 
ATOM     25  C   UNL     1      -1.653  12.470  19.691  0.00  0.00    +0.000 C 
ATOM     26  C   UNL     1      -0.746  11.371  20.249  0.00  0.00    +0.000 C 
ENDBRANCH  17  18
ENDBRANCH  16  17
ENDBRANCH   3  16
TORSDOF 5
ENDMDL
MODEL 9
REMARK VINA RESULT:      -7.6      4.951      7.142
REMARK  Name = 
REMARK  5 active torsions:
REMARK  status: ('A' for Active; 'I' for Inactive)
REMARK    1  A    between atoms: C_2  and  C_3
REMARK    2  A    between atoms: C_3  and  C_4
REMARK    3  A    between atoms: N_14  and  C_15
REMARK    4  A    between atoms: C_15  and  C_16
REMARK    5  A    between atoms: C_16  and  C_17
REMARK                            x       y       z     vdW  Elec       q    Type
REMARK                         _______ _______ _______ _____ _____    ______ ____
ROOT
ATOM      1  O   UNL     1       1.099   4.073  18.111  0.00  0.00    +0.000 OA
ATOM      2  C   UNL     1       1.520   4.256  19.247  0.00  0.00    +0.000 C 
ATOM      3  N   UNL     1       2.379   3.388  19.883  0.00  0.00    +0.000 N 
ATOM      4  H   UNL     1       2.909   3.734  20.680  0.00  0.00    +0.000 HD
ENDROOT
BRANCH   2   5
ATOM      5  C   UNL     1       1.165   5.459  20.105  0.00  0.00    +0.000 C 
BRANCH   5   6
ATOM      6  C   UNL     1       2.260   6.541  20.183  0.00  0.00    +0.000 C 
ATOM      7  C   UNL     1       3.106   6.657  18.908  0.00  0.00    +0.000 C 
ATOM      8  C   UNL     1       2.301   7.316  17.801  0.00  0.00    +0.000 C 
ATOM      9  O   UNL     1       1.891   8.641  18.130  0.00  0.00    +0.000 OA
ATOM     10  C   UNL     1       1.450   8.826  19.412  0.00  0.00    +0.000 A 
ATOM     11  C   UNL     1       0.831  10.053  19.659  0.00  0.00    +0.000 A 
ATOM     12  C   UNL     1       0.372  10.364  20.936  0.00  0.00    +0.000 A 
ATOM     13  C   UNL     1       0.553   9.458  21.976  0.00  0.00    +0.000 A 
ATOM     14  C   UNL     1       1.179   8.231  21.735  0.00  0.00    +0.000 A 
ATOM     15  C   UNL     1       1.623   7.894  20.447  0.00  0.00    +0.000 A 
ENDBRANCH   5   6
ENDBRANCH   2   5
BRANCH   3  16
ATOM     16  C   UNL     1       2.919   2.195  19.253  0.00  0.00    +0.000 C 
BRANCH  16  17
ATOM     17  C   UNL     1       3.815   2.505  18.057  0.00  0.00    +0.000 C 
BRANCH  17  18
ATOM     18  C   UNL     1       5.021   3.345  18.457  0.00  0.00    +0.000 C 
ATOM     19  O   UNL     1       5.363   3.434  19.640  0.00  0.00    +0.000 OA
ATOM     20  N   UNL     1       5.710   4.004  17.443  0.00  0.00    +0.000 N 
ATOM     21  C   UNL     1       6.928   4.722  17.811  0.00  0.00    +0.000 C 
ATOM     22  C   UNL     1       6.633   6.181  18.144  0.00  0.00    +0.000 C 
ATOM     23  C   UNL     1       6.428   7.062  16.913  0.00  0.00    +0.000 C 
ATOM     24  C   UNL     1       5.331   6.594  15.955  0.00  0.00    +0.000 C 
ATOM     25  C   UNL     1       5.669   5.281  15.249  0.00  0.00    +0.000 C 
ATOM     26  C   UNL     1       5.275   4.036  16.046  0.00  0.00    +0.000 C 
ENDBRANCH  17  18
ENDBRANCH  16  17
ENDBRANCH   3  16
TORSDOF 5
ENDMDL
