MODEL 1
REMARK VINA RESULT:      -7.4      0.000      0.000
REMARK  Name = 
REMARK  9 active torsions:
REMARK  status: ('A' for Active; 'I' for Inactive)
REMARK    1  A    between atoms: C_1  and  N_2
REMARK    2  A    between atoms: N_2  and  C_3
REMARK    3  A    between atoms: C_3  and  C_4
REMARK    4  A    between atoms: C_9  and  C_11
REMARK    5  A    between atoms: N_15  and  C_16
REMARK    6  A    between atoms: C_16  and  C_17
REMARK    7  A    between atoms: C_17  and  C_18
REMARK    8  A    between atoms: C_17  and  C_19
REMARK    9  A    between atoms: C_17  and  C_20
REMARK                            x       y       z     vdW  Elec       q    Type
REMARK                         _______ _______ _______ _____ _____    ______ ____
ROOT
ATOM      1  C   UNL     1       3.498   4.410  17.683  0.00  0.00    +0.000 C 
ATOM      2  C   UNL     1       2.266   5.142  18.241  0.00  0.00    +0.000 C 
ATOM      3  C   UNL     1       2.430   6.505  18.836  0.00  0.00    +0.000 C 
ATOM      4  O   UNL     1       2.870   7.469  18.220  0.00  0.00    +0.000 OA
ATOM      5  N   UNL     1       1.931   6.498  20.129  0.00  0.00    +0.000 N 
ATOM      6  C   UNL     1       1.558   5.170  20.606  0.00  0.00    +0.000 C 
ATOM      7  C   UNL     1       1.881   4.253  19.449  0.00  0.00    +0.000 C 
ATOM      8  C   UNL     1       1.057   3.135  18.902  0.00  0.00    +0.000 C 
ATOM      9  C   UNL     1       1.923   2.418  18.157  0.00  0.00    +0.000 C 
ATOM     10  C   UNL     1       3.296   3.035  18.364  0.00  0.00    +0.000 C 
ATOM     11  O   UNL     1       3.078   3.478  19.722  0.00  0.00    +0.000 OA
ENDROOT
BRANCH   1  14
ATOM     12  C   UNL     1       6.590   6.691  17.980  0.00  0.00    +0.000 C 
ATOM     13  N   UNL     1       5.566   5.869  17.345  0.00  0.00    +0.000 N 
ATOM     14  C   UNL     1       4.797   5.080  18.193  0.00  0.00    +0.000 C 
ATOM     15  O   UNL     1       5.144   4.955  19.368  0.00  0.00    +0.000 OA
BRANCH  13  16
ATOM     16  C   UNL     1       5.180   6.251  15.995  0.00  0.00    +0.000 C 
BRANCH  16  17
ATOM     17  C   UNL     1       5.899   5.402  15.001  0.00  0.00    +0.000 A 
ATOM     18  N   UNL     1       7.158   5.534  14.619  0.00  0.00    +0.000 NA
ATOM     19  C   UNL     1       7.379   4.539  13.706  0.00  0.00    +0.000 A 
ATOM     20  C   UNL     1       6.240   3.795  13.514  0.00  0.00    +0.000 A 
ATOM     21  N   UNL     1       5.304   4.353  14.344  0.00  0.00    +0.000 N 
ATOM     22  H   UNL     1       4.341   4.066  14.448  0.00  0.00    +0.000 HD
ENDBRANCH  16  17
ENDBRANCH  13  16
ENDBRANCH   1  14
BRANCH   5  23
ATOM     23  C   UNL     1       2.099   7.622  21.029  0.00  0.00    +0.000 C 
BRANCH  23  24
ATOM     24  C   UNL     1       0.897   8.593  21.115  0.00  0.00    +0.000 C 
ATOM     25  C   UNL     1      -0.433   7.826  21.173  0.00  0.00    +0.000 C 
ATOM     26  C   UNL     1       1.063   9.411  22.411  0.00  0.00    +0.000 C 
ATOM     27  C   UNL     1       0.858   9.568  19.927  0.00  0.00    +0.000 C 
ENDBRANCH  23  24
ENDBRANCH   5  23
TORSDOF 5
ENDMDL
MODEL 2
REMARK VINA RESULT:      -7.2      0.084      1.121
REMARK  Name = 
REMARK  9 active torsions:
REMARK  status: ('A' for Active; 'I' for Inactive)
REMARK    1  A    between atoms: C_1  and  N_2
REMARK    2  A    between atoms: N_2  and  C_3
REMARK    3  A    between atoms: C_3  and  C_4
REMARK    4  A    between atoms: C_9  and  C_11
REMARK    5  A    between atoms: N_15  and  C_16
REMARK    6  A    between atoms: C_16  and  C_17
REMARK    7  A    between atoms: C_17  and  C_18
REMARK    8  A    between atoms: C_17  and  C_19
REMARK    9  A    between atoms: C_17  and  C_20
REMARK                            x       y       z     vdW  Elec       q    Type
REMARK                         _______ _______ _______ _____ _____    ______ ____
ROOT
ATOM      1  C   UNL     1       3.464   4.386  17.707  0.00  0.00    +0.000 C 
ATOM      2  C   UNL     1       2.240   5.132  18.265  0.00  0.00    +0.000 C 
ATOM      3  C   UNL     1       2.417   6.500  18.844  0.00  0.00    +0.000 C 
ATOM      4  O   UNL     1       2.860   7.455  18.216  0.00  0.00    +0.000 OA
ATOM      5  N   UNL     1       1.925   6.510  20.140  0.00  0.00    +0.000 N 
ATOM      6  C   UNL     1       1.546   5.189  20.633  0.00  0.00    +0.000 C 
ATOM      7  C   UNL     1       1.856   4.258  19.484  0.00  0.00    +0.000 C 
ATOM      8  C   UNL     1       1.021   3.141  18.953  0.00  0.00    +0.000 C 
ATOM      9  C   UNL     1       1.878   2.410  18.211  0.00  0.00    +0.000 C 
ATOM     10  C   UNL     1       3.256   3.019  18.403  0.00  0.00    +0.000 C 
ATOM     11  O   UNL     1       3.049   3.478  19.758  0.00  0.00    +0.000 OA
ENDROOT
BRANCH   1  14
ATOM     12  C   UNL     1       6.559   6.665  17.976  0.00  0.00    +0.000 C 
ATOM     13  N   UNL     1       5.526   5.848  17.350  0.00  0.00    +0.000 N 
ATOM     14  C   UNL     1       4.770   5.051  18.203  0.00  0.00    +0.000 C 
ATOM     15  O   UNL     1       5.136   4.917  19.372  0.00  0.00    +0.000 OA
BRANCH  13  16
ATOM     16  C   UNL     1       5.119   6.241  16.009  0.00  0.00    +0.000 C 
BRANCH  16  17
ATOM     17  C   UNL     1       5.755   5.343  15.001  0.00  0.00    +0.000 A 
ATOM     18  N   UNL     1       5.218   4.261  14.464  0.00  0.00    +0.000 NA
ATOM     19  C   UNL     1       6.157   3.769  13.598  0.00  0.00    +0.000 A 
ATOM     20  C   UNL     1       7.287   4.548  13.613  0.00  0.00    +0.000 A 
ATOM     21  N   UNL     1       7.021   5.548  14.510  0.00  0.00    +0.000 N 
ATOM     22  H   UNL     1       7.642   6.296  14.783  0.00  0.00    +0.000 HD
ENDBRANCH  16  17
ENDBRANCH  13  16
ENDBRANCH   1  14
BRANCH   5  23
ATOM     23  C   UNL     1       2.107   7.641  21.028  0.00  0.00    +0.000 C 
BRANCH  23  24
ATOM     24  C   UNL     1       0.903   8.609  21.130  0.00  0.00    +0.000 C 
ATOM     25  C   UNL     1       0.865   9.574  19.934  0.00  0.00    +0.000 C 
ATOM     26  C   UNL     1      -0.376   7.748  21.123  0.00  0.00    +0.000 C 
ATOM     27  C   UNL     1       0.930   9.427  22.430  0.00  0.00    +0.000 C 
ENDBRANCH  23  24
ENDBRANCH   5  23
TORSDOF 5
ENDMDL
MODEL 3
REMARK VINA RESULT:      -6.2      1.778      6.420
REMARK  Name = 
REMARK  9 active torsions:
REMARK  status: ('A' for Active; 'I' for Inactive)
REMARK    1  A    between atoms: C_1  and  N_2
REMARK    2  A    between atoms: N_2  and  C_3
REMARK    3  A    between atoms: C_3  and  C_4
REMARK    4  A    between atoms: C_9  and  C_11
REMARK    5  A    between atoms: N_15  and  C_16
REMARK    6  A    between atoms: C_16  and  C_17
REMARK    7  A    between atoms: C_17  and  C_18
REMARK    8  A    between atoms: C_17  and  C_19
REMARK    9  A    between atoms: C_17  and  C_20
REMARK                            x       y       z     vdW  Elec       q    Type
REMARK                         _______ _______ _______ _____ _____    ______ ____
ROOT
ATOM      1  C   UNL     1       2.084   5.053  19.814  0.00  0.00    +0.000 C 
ATOM      2  C   UNL     1       3.388   4.240  19.849  0.00  0.00    +0.000 C 
ATOM      3  C   UNL     1       4.641   4.839  19.290  0.00  0.00    +0.000 C 
ATOM      4  O   UNL     1       5.140   5.881  19.698  0.00  0.00    +0.000 OA
ATOM      5  N   UNL     1       5.157   3.988  18.325  0.00  0.00    +0.000 N 
ATOM      6  C   UNL     1       4.280   2.868  18.001  0.00  0.00    +0.000 C 
ATOM      7  C   UNL     1       3.069   3.074  18.883  0.00  0.00    +0.000 C 
ATOM      8  C   UNL     1       2.330   2.055  19.684  0.00  0.00    +0.000 C 
ATOM      9  C   UNL     1       1.154   2.648  19.972  0.00  0.00    +0.000 C 
ATOM     10  C   UNL     1       1.138   3.975  19.232  0.00  0.00    +0.000 C 
ATOM     11  O   UNL     1       1.938   3.548  18.106  0.00  0.00    +0.000 OA
ENDROOT
BRANCH   1  14
ATOM     12  C   UNL     1       2.464   8.602  18.363  0.00  0.00    +0.000 C 
ATOM     13  N   UNL     1       2.028   7.547  19.270  0.00  0.00    +0.000 N 
ATOM     14  C   UNL     1       2.218   6.241  18.831  0.00  0.00    +0.000 C 
ATOM     15  O   UNL     1       2.535   6.048  17.656  0.00  0.00    +0.000 OA
BRANCH  13  16
ATOM     16  C   UNL     1       1.834   7.932  20.660  0.00  0.00    +0.000 C 
BRANCH  16  17
ATOM     17  C   UNL     1       1.020   9.181  20.732  0.00  0.00    +0.000 A 
ATOM     18  N   UNL     1       1.275  10.242  21.477  0.00  0.00    +0.000 NA
ATOM     19  C   UNL     1       0.269  11.133  21.216  0.00  0.00    +0.000 A 
ATOM     20  C   UNL     1      -0.620  10.608  20.311  0.00  0.00    +0.000 A 
ATOM     21  N   UNL     1      -0.133   9.365  20.010  0.00  0.00    +0.000 N 
ATOM     22  H   UNL     1      -0.547   8.688  19.384  0.00  0.00    +0.000 HD
ENDBRANCH  16  17
ENDBRANCH  13  16
ENDBRANCH   1  14
BRANCH   5  23
ATOM     23  C   UNL     1       6.271   4.365  17.477  0.00  0.00    +0.000 C 
BRANCH  23  24
ATOM     24  C   UNL     1       5.890   5.028  16.131  0.00  0.00    +0.000 C 
ATOM     25  C   UNL     1       5.605   6.527  16.313  0.00  0.00    +0.000 C 
ATOM     26  C   UNL     1       7.092   4.856  15.182  0.00  0.00    +0.000 C 
ATOM     27  C   UNL     1       4.663   4.362  15.488  0.00  0.00    +0.000 C 
ENDBRANCH  23  24
ENDBRANCH   5  23
TORSDOF 5
ENDMDL
MODEL 4
REMARK VINA RESULT:      -6.1      2.752      5.354
REMARK  Name = 
REMARK  9 active torsions:
REMARK  status: ('A' for Active; 'I' for Inactive)
REMARK    1  A    between atoms: C_1  and  N_2
REMARK    2  A    between atoms: N_2  and  C_3
REMARK    3  A    between atoms: C_3  and  C_4
REMARK    4  A    between atoms: C_9  and  C_11
REMARK    5  A    between atoms: N_15  and  C_16
REMARK    6  A    between atoms: C_16  and  C_17
REMARK    7  A    between atoms: C_17  and  C_18
REMARK    8  A    between atoms: C_17  and  C_19
REMARK    9  A    between atoms: C_17  and  C_20
REMARK                            x       y       z     vdW  Elec       q    Type
REMARK                         _______ _______ _______ _____ _____    ______ ____
ROOT
ATOM      1  C   UNL     1       6.772   5.940  15.846  0.00  0.00    +0.000 C 
ATOM      2  C   UNL     1       5.290   5.566  16.014  0.00  0.00    +0.000 C 
ATOM      3  C   UNL     1       4.690   5.545  17.384  0.00  0.00    +0.000 C 
ATOM      4  O   UNL     1       4.648   6.521  18.125  0.00  0.00    +0.000 OA
ATOM      5  N   UNL     1       4.133   4.297  17.616  0.00  0.00    +0.000 N 
ATOM      6  C   UNL     1       4.428   3.321  16.572  0.00  0.00    +0.000 C 
ATOM      7  C   UNL     1       5.282   4.079  15.581  0.00  0.00    +0.000 C 
ATOM      8  C   UNL     1       5.187   4.076  14.092  0.00  0.00    +0.000 C 
ATOM      9  C   UNL     1       6.366   4.588  13.684  0.00  0.00    +0.000 C 
ATOM     10  C   UNL     1       7.217   4.778  14.927  0.00  0.00    +0.000 C 
ATOM     11  O   UNL     1       6.671   3.669  15.675  0.00  0.00    +0.000 OA
ENDROOT
BRANCH   1  14
ATOM     12  C   UNL     1       8.211   6.838  19.307  0.00  0.00    +0.000 C 
ATOM     13  N   UNL     1       7.801   7.020  17.919  0.00  0.00    +0.000 N 
ATOM     14  C   UNL     1       7.503   5.863  17.208  0.00  0.00    +0.000 C 
ATOM     15  O   UNL     1       7.794   4.771  17.700  0.00  0.00    +0.000 OA
BRANCH  13  16
ATOM     16  C   UNL     1       7.354   8.355  17.549  0.00  0.00    +0.000 C 
BRANCH  16  17
ATOM     17  C   UNL     1       8.277   9.377  18.124  0.00  0.00    +0.000 A 
ATOM     18  N   UNL     1       8.545  10.567  17.616  0.00  0.00    +0.000 NA
ATOM     19  C   UNL     1       9.432  11.151  18.478  0.00  0.00    +0.000 A 
ATOM     20  C   UNL     1       9.723  10.306  19.521  0.00  0.00    +0.000 A 
ATOM     21  N   UNL     1       8.982   9.179  19.285  0.00  0.00    +0.000 N 
ATOM     22  H   UNL     1       8.963   8.340  19.847  0.00  0.00    +0.000 HD
ENDBRANCH  16  17
ENDBRANCH  13  16
ENDBRANCH   1  14
BRANCH   5  23
ATOM     23  C   UNL     1       3.625   3.906  18.916  0.00  0.00    +0.000 C 
BRANCH  23  24
ATOM     24  C   UNL     1       2.098   3.666  18.990  0.00  0.00    +0.000 C 
ATOM     25  C   UNL     1       1.774   2.166  19.062  0.00  0.00    +0.000 C 
ATOM     26  C   UNL     1       1.591   4.353  20.274  0.00  0.00    +0.000 C 
ATOM     27  C   UNL     1       1.360   4.278  17.789  0.00  0.00    +0.000 C 
ENDBRANCH  23  24
ENDBRANCH   5  23
TORSDOF 5
ENDMDL
MODEL 5
REMARK VINA RESULT:      -6.1      2.461      5.290
REMARK  Name = 
REMARK  9 active torsions:
REMARK  status: ('A' for Active; 'I' for Inactive)
REMARK    1  A    between atoms: C_1  and  N_2
REMARK    2  A    between atoms: N_2  and  C_3
REMARK    3  A    between atoms: C_3  and  C_4
REMARK    4  A    between atoms: C_9  and  C_11
REMARK    5  A    between atoms: N_15  and  C_16
REMARK    6  A    between atoms: C_16  and  C_17
REMARK    7  A    between atoms: C_17  and  C_18
REMARK    8  A    between atoms: C_17  and  C_19
REMARK    9  A    between atoms: C_17  and  C_20
REMARK                            x       y       z     vdW  Elec       q    Type
REMARK                         _______ _______ _______ _____ _____    ______ ____
ROOT
ATOM      1  C   UNL     1       5.451   4.312  18.185  0.00  0.00    +0.000 C 
ATOM      2  C   UNL     1       5.019   5.719  18.632  0.00  0.00    +0.000 C 
ATOM      3  C   UNL     1       3.565   6.072  18.639  0.00  0.00    +0.000 C 
ATOM      4  O   UNL     1       2.721   5.475  19.298  0.00  0.00    +0.000 OA
ATOM      5  N   UNL     1       3.371   7.205  17.865  0.00  0.00    +0.000 N 
ATOM      6  C   UNL     1       4.563   7.628  17.136  0.00  0.00    +0.000 C 
ATOM      7  C   UNL     1       5.614   6.610  17.515  0.00  0.00    +0.000 C 
ATOM      8  C   UNL     1       7.039   6.853  17.886  0.00  0.00    +0.000 C 
ATOM      9  C   UNL     1       7.624   5.643  17.765  0.00  0.00    +0.000 C 
ATOM     10  C   UNL     1       6.575   4.703  17.197  0.00  0.00    +0.000 C 
ATOM     11  O   UNL     1       5.866   5.693  16.419  0.00  0.00    +0.000 OA
ENDROOT
BRANCH   1  14
ATOM     12  C   UNL     1       2.446   2.048  17.353  0.00  0.00    +0.000 C 
ATOM     13  N   UNL     1       3.705   2.462  17.960  0.00  0.00    +0.000 N 
ATOM     14  C   UNL     1       4.294   3.608  17.436  0.00  0.00    +0.000 C 
ATOM     15  O   UNL     1       3.851   4.077  16.387  0.00  0.00    +0.000 OA
BRANCH  13  16
ATOM     16  C   UNL     1       4.000   1.908  19.273  0.00  0.00    +0.000 C 
BRANCH  16  17
ATOM     17  C   UNL     1       2.987   2.379  20.263  0.00  0.00    +0.000 A 
ATOM     18  N   UNL     1       3.192   2.609  21.548  0.00  0.00    +0.000 NA
ATOM     19  C   UNL     1       1.989   3.026  22.050  0.00  0.00    +0.000 A 
ATOM     20  C   UNL     1       1.031   3.040  21.067  0.00  0.00    +0.000 A 
ATOM     21  N   UNL     1       1.677   2.626  19.932  0.00  0.00    +0.000 N 
ATOM     22  H   UNL     1       1.270   2.502  19.016  0.00  0.00    +0.000 HD
ENDBRANCH  16  17
ENDBRANCH  13  16
ENDBRANCH   1  14
BRANCH   5  23
ATOM     23  C   UNL     1       2.049   7.699  17.533  0.00  0.00    +0.000 C 
BRANCH  23  24
ATOM     24  C   UNL     1       1.599   8.965  18.302  0.00  0.00    +0.000 C 
ATOM     25  C   UNL     1       2.515  10.159  17.990  0.00  0.00    +0.000 C 
ATOM     26  C   UNL     1       0.166   9.295  17.838  0.00  0.00    +0.000 C 
ATOM     27  C   UNL     1       1.577   8.738  19.822  0.00  0.00    +0.000 C 
ENDBRANCH  23  24
ENDBRANCH   5  23
TORSDOF 5
ENDMDL
MODEL 6
REMARK VINA RESULT:      -5.9      1.923      6.991
REMARK  Name = 
REMARK  9 active torsions:
REMARK  status: ('A' for Active; 'I' for Inactive)
REMARK    1  A    between atoms: C_1  and  N_2
REMARK    2  A    between atoms: N_2  and  C_3
REMARK    3  A    between atoms: C_3  and  C_4
REMARK    4  A    between atoms: C_9  and  C_11
REMARK    5  A    between atoms: N_15  and  C_16
REMARK    6  A    between atoms: C_16  and  C_17
REMARK    7  A    between atoms: C_17  and  C_18
REMARK    8  A    between atoms: C_17  and  C_19
REMARK    9  A    between atoms: C_17  and  C_20
REMARK                            x       y       z     vdW  Elec       q    Type
REMARK                         _______ _______ _______ _____ _____    ______ ____
ROOT
ATOM      1  C   UNL     1       2.152   5.561  20.476  0.00  0.00    +0.000 C 
ATOM      2  C   UNL     1       3.390   4.856  19.897  0.00  0.00    +0.000 C 
ATOM      3  C   UNL     1       4.251   5.579  18.909  0.00  0.00    +0.000 C 
ATOM      4  O   UNL     1       4.819   6.638  19.146  0.00  0.00    +0.000 OA
ATOM      5  N   UNL     1       4.353   4.817  17.756  0.00  0.00    +0.000 N 
ATOM      6  C   UNL     1       3.483   3.645  17.748  0.00  0.00    +0.000 C 
ATOM      7  C   UNL     1       2.754   3.712  19.071  0.00  0.00    +0.000 C 
ATOM      8  C   UNL     1       2.483   2.602  20.030  0.00  0.00    +0.000 C 
ATOM      9  C   UNL     1       1.511   3.085  20.830  0.00  0.00    +0.000 C 
ATOM     10  C   UNL     1       1.109   4.438  20.267  0.00  0.00    +0.000 C 
ATOM     11  O   UNL     1       1.376   4.128  18.881  0.00  0.00    +0.000 OA
ENDROOT
BRANCH   1  14
ATOM     12  C   UNL     1       1.480   9.184  19.346  0.00  0.00    +0.000 C 
ATOM     13  N   UNL     1       1.513   8.020  20.225  0.00  0.00    +0.000 N 
ATOM     14  C   UNL     1       1.791   6.800  19.621  0.00  0.00    +0.000 C 
ATOM     15  O   UNL     1       1.785   6.730  18.391  0.00  0.00    +0.000 OA
BRANCH  13  16
ATOM     16  C   UNL     1       1.662   8.292  21.647  0.00  0.00    +0.000 C 
BRANCH  16  17
ATOM     17  C   UNL     1       0.703   9.356  22.065  0.00  0.00    +0.000 A 
ATOM     18  N   UNL     1       0.765  10.637  21.750  0.00  0.00    +0.000 NA
ATOM     19  C   UNL     1      -0.318  11.223  22.347  0.00  0.00    +0.000 A 
ATOM     20  C   UNL     1      -1.046  10.294  23.049  0.00  0.00    +0.000 A 
ATOM     21  N   UNL     1      -0.387   9.108  22.862  0.00  0.00    +0.000 N 
ATOM     22  H   UNL     1      -0.637   8.209  23.251  0.00  0.00    +0.000 HD
ENDBRANCH  16  17
ENDBRANCH  13  16
ENDBRANCH   1  14
BRANCH   5  23
ATOM     23  C   UNL     1       4.978   5.321  16.549  0.00  0.00    +0.000 C 
BRANCH  23  24
ATOM     24  C   UNL     1       6.523   5.230  16.510  0.00  0.00    +0.000 C 
ATOM     25  C   UNL     1       7.014   4.702  15.154  0.00  0.00    +0.000 C 
ATOM     26  C   UNL     1       7.068   6.657  16.723  0.00  0.00    +0.000 C 
ATOM     27  C   UNL     1       7.075   4.328  17.626  0.00  0.00    +0.000 C 
ENDBRANCH  23  24
ENDBRANCH   5  23
TORSDOF 5
ENDMDL
MODEL 7
REMARK VINA RESULT:      -5.9      1.466      1.923
REMARK  Name = 
REMARK  9 active torsions:
REMARK  status: ('A' for Active; 'I' for Inactive)
REMARK    1  A    between atoms: C_1  and  N_2
REMARK    2  A    between atoms: N_2  and  C_3
REMARK    3  A    between atoms: C_3  and  C_4
REMARK    4  A    between atoms: C_9  and  C_11
REMARK    5  A    between atoms: N_15  and  C_16
REMARK    6  A    between atoms: C_16  and  C_17
REMARK    7  A    between atoms: C_17  and  C_18
REMARK    8  A    between atoms: C_17  and  C_19
REMARK    9  A    between atoms: C_17  and  C_20
REMARK                            x       y       z     vdW  Elec       q    Type
REMARK                         _______ _______ _______ _____ _____    ______ ____
ROOT
ATOM      1  C   UNL     1       4.681   4.034  18.070  0.00  0.00    +0.000 C 
ATOM      2  C   UNL     1       3.394   4.840  17.833  0.00  0.00    +0.000 C 
ATOM      3  C   UNL     1       3.408   6.322  18.041  0.00  0.00    +0.000 C 
ATOM      4  O   UNL     1       4.141   7.090  17.428  0.00  0.00    +0.000 OA
ATOM      5  N   UNL     1       2.419   6.661  18.951  0.00  0.00    +0.000 N 
ATOM      6  C   UNL     1       1.774   5.509  19.572  0.00  0.00    +0.000 C 
ATOM      7  C   UNL     1       2.471   4.315  18.960  0.00  0.00    +0.000 C 
ATOM      8  C   UNL     1       1.859   3.054  18.449  0.00  0.00    +0.000 C 
ATOM      9  C   UNL     1       2.894   2.193  18.367  0.00  0.00    +0.000 C 
ATOM     10  C   UNL     1       4.103   2.902  18.952  0.00  0.00    +0.000 C 
ATOM     11  O   UNL     1       3.379   3.703  19.913  0.00  0.00    +0.000 OA
ENDROOT
BRANCH   1  14
ATOM     12  C   UNL     1       7.862   5.939  19.120  0.00  0.00    +0.000 C 
ATOM     13  N   UNL     1       7.043   4.901  18.505  0.00  0.00    +0.000 N 
ATOM     14  C   UNL     1       5.703   4.876  18.872  0.00  0.00    +0.000 C 
ATOM     15  O   UNL     1       5.333   5.569  19.822  0.00  0.00    +0.000 OA
BRANCH  13  16
ATOM     16  C   UNL     1       7.582   4.284  17.302  0.00  0.00    +0.000 C 
BRANCH  16  17
ATOM     17  C   UNL     1       6.719   4.614  16.131  0.00  0.00    +0.000 A 
ATOM     18  N   UNL     1       6.185   3.753  15.282  0.00  0.00    +0.000 NA
ATOM     19  C   UNL     1       5.476   4.505  14.384  0.00  0.00    +0.000 A 
ATOM     20  C   UNL     1       5.586   5.842  14.676  0.00  0.00    +0.000 A 
ATOM     21  N   UNL     1       6.380   5.900  15.790  0.00  0.00    +0.000 N 
ATOM     22  H   UNL     1       6.685   6.734  16.273  0.00  0.00    +0.000 HD
ENDBRANCH  16  17
ENDBRANCH  13  16
ENDBRANCH   1  14
BRANCH   5  23
ATOM     23  C   UNL     1       2.291   8.001  19.491  0.00  0.00    +0.000 C 
BRANCH  23  24
ATOM     24  C   UNL     1       1.457   8.986  18.637  0.00  0.00    +0.000 C 
ATOM     25  C   UNL     1       0.662   8.245  17.551  0.00  0.00    +0.000 C 
ATOM     26  C   UNL     1       0.472   9.694  19.589  0.00  0.00    +0.000 C 
ATOM     27  C   UNL     1       2.337  10.055  17.968  0.00  0.00    +0.000 C 
ENDBRANCH  23  24
ENDBRANCH   5  23
TORSDOF 5
ENDMDL
MODEL 8
REMARK VINA RESULT:      -5.8      2.418      5.669
REMARK  Name = 
REMARK  9 active torsions:
REMARK  status: ('A' for Active; 'I' for Inactive)
REMARK    1  A    between atoms: C_1  and  N_2
REMARK    2  A    between atoms: N_2  and  C_3
REMARK    3  A    between atoms: C_3  and  C_4
REMARK    4  A    between atoms: C_9  and  C_11
REMARK    5  A    between atoms: N_15  and  C_16
REMARK    6  A    between atoms: C_16  and  C_17
REMARK    7  A    between atoms: C_17  and  C_18
REMARK    8  A    between atoms: C_17  and  C_19
REMARK    9  A    between atoms: C_17  and  C_20
REMARK                            x       y       z     vdW  Elec       q    Type
REMARK                         _______ _______ _______ _____ _____    ______ ____
ROOT
ATOM      1  C   UNL     1       4.022   6.150  17.232  0.00  0.00    +0.000 C 
ATOM      2  C   UNL     1       3.435   4.766  16.911  0.00  0.00    +0.000 C 
ATOM      3  C   UNL     1       2.278   4.256  17.712  0.00  0.00    +0.000 C 
ATOM      4  O   UNL     1       1.197   4.828  17.788  0.00  0.00    +0.000 OA
ATOM      5  N   UNL     1       2.612   3.027  18.257  0.00  0.00    +0.000 N 
ATOM      6  C   UNL     1       4.010   2.657  18.058  0.00  0.00    +0.000 C 
ATOM      7  C   UNL     1       4.600   3.822  17.297  0.00  0.00    +0.000 C 
ATOM      8  C   UNL     1       5.517   3.784  16.120  0.00  0.00    +0.000 C 
ATOM      9  C   UNL     1       6.033   5.028  16.062  0.00  0.00    +0.000 C 
ATOM     10  C   UNL     1       5.522   5.774  17.282  0.00  0.00    +0.000 C 
ATOM     11  O   UNL     1       5.445   4.628  18.159  0.00  0.00    +0.000 OA
ENDROOT
BRANCH   1  14
ATOM     12  C   UNL     1       2.014   7.864  20.039  0.00  0.00    +0.000 C 
ATOM     13  N   UNL     1       2.636   7.681  18.733  0.00  0.00    +0.000 N 
ATOM     14  C   UNL     1       3.538   6.630  18.621  0.00  0.00    +0.000 C 
ATOM     15  O   UNL     1       3.915   6.058  19.646  0.00  0.00    +0.000 OA
BRANCH  13  16
ATOM     16  C   UNL     1       1.970   8.322  17.608  0.00  0.00    +0.000 C 
BRANCH  16  17
ATOM     17  C   UNL     1       1.424   9.646  18.027  0.00  0.00    +0.000 A 
ATOM     18  N   UNL     1       0.188   9.897  18.419  0.00  0.00    +0.000 NA
ATOM     19  C   UNL     1       0.150  11.235  18.706  0.00  0.00    +0.000 A 
ATOM     20  C   UNL     1       1.373  11.815  18.475  0.00  0.00    +0.000 A 
ATOM     21  N   UNL     1       2.177  10.794  18.043  0.00  0.00    +0.000 N 
ATOM     22  H   UNL     1       3.146  10.864  17.765  0.00  0.00    +0.000 HD
ENDBRANCH  16  17
ENDBRANCH  13  16
ENDBRANCH   1  14
BRANCH   5  23
ATOM     23  C   UNL     1       1.767   2.354  19.224  0.00  0.00    +0.000 C 
BRANCH  23  24
ATOM     24  C   UNL     1       1.874   2.873  20.678  0.00  0.00    +0.000 C 
ATOM     25  C   UNL     1       3.341   2.988  21.120  0.00  0.00    +0.000 C 
ATOM     26  C   UNL     1       1.226   4.271  20.712  0.00  0.00    +0.000 C 
ATOM     27  C   UNL     1       1.125   1.967  21.669  0.00  0.00    +0.000 C 
ENDBRANCH  23  24
ENDBRANCH   5  23
TORSDOF 5
ENDMDL
MODEL 9
REMARK VINA RESULT:      -5.7      1.123      1.308
REMARK  Name = 
REMARK  9 active torsions:
REMARK  status: ('A' for Active; 'I' for Inactive)
REMARK    1  A    between atoms: C_1  and  N_2
REMARK    2  A    between atoms: N_2  and  C_3
REMARK    3  A    between atoms: C_3  and  C_4
REMARK    4  A    between atoms: C_9  and  C_11
REMARK    5  A    between atoms: N_15  and  C_16
REMARK    6  A    between atoms: C_16  and  C_17
REMARK    7  A    between atoms: C_17  and  C_18
REMARK    8  A    between atoms: C_17  and  C_19
REMARK    9  A    between atoms: C_17  and  C_20
REMARK                            x       y       z     vdW  Elec       q    Type
REMARK                         _______ _______ _______ _____ _____    ______ ____
ROOT
ATOM      1  C   UNL     1       3.721   5.355  17.527  0.00  0.00    +0.000 C 
ATOM      2  C   UNL     1       2.402   5.895  18.103  0.00  0.00    +0.000 C 
ATOM      3  C   UNL     1       2.278   7.355  18.406  0.00  0.00    +0.000 C 
ATOM      4  O   UNL     1       2.411   8.239  17.567  0.00  0.00    +0.000 OA
ATOM      5  N   UNL     1       1.914   7.513  19.733  0.00  0.00    +0.000 N 
ATOM      6  C   UNL     1       1.924   6.269  20.496  0.00  0.00    +0.000 C 
ATOM      7  C   UNL     1       2.358   5.221  19.496  0.00  0.00    +0.000 C 
ATOM      8  C   UNL     1       1.788   3.858  19.285  0.00  0.00    +0.000 C 
ATOM      9  C   UNL     1       2.734   3.211  18.575  0.00  0.00    +0.000 C 
ATOM     10  C   UNL     1       3.926   4.147  18.472  0.00  0.00    +0.000 C 
ATOM     11  O   UNL     1       3.728   4.809  19.741  0.00  0.00    +0.000 OA
ENDROOT
BRANCH   1  14
ATOM     12  C   UNL     1       7.170   7.074  17.540  0.00  0.00    +0.000 C 
ATOM     13  N   UNL     1       6.189   6.000  17.647  0.00  0.00    +0.000 N 
ATOM     14  C   UNL     1       4.856   6.390  17.719  0.00  0.00    +0.000 C 
ATOM     15  O   UNL     1       4.593   7.580  17.898  0.00  0.00    +0.000 OA
BRANCH  13  16
ATOM     16  C   UNL     1       6.642   4.673  17.261  0.00  0.00    +0.000 C 
BRANCH  16  17
ATOM     17  C   UNL     1       6.698   4.567  15.773  0.00  0.00    +0.000 A 
ATOM     18  N   UNL     1       7.512   5.228  14.969  0.00  0.00    +0.000 NA
ATOM     19  C   UNL     1       7.208   4.809  13.702  0.00  0.00    +0.000 A 
ATOM     20  C   UNL     1       6.187   3.892  13.727  0.00  0.00    +0.000 A 
ATOM     21  N   UNL     1       5.870   3.745  15.050  0.00  0.00    +0.000 N 
ATOM     22  H   UNL     1       5.146   3.155  15.437  0.00  0.00    +0.000 HD
ENDBRANCH  16  17
ENDBRANCH  13  16
ENDBRANCH   1  14
BRANCH   5  23
ATOM     23  C   UNL     1       1.881   8.812  20.378  0.00  0.00    +0.000 C 
BRANCH  23  24
ATOM     24  C   UNL     1       0.469   9.402  20.615  0.00  0.00    +0.000 C 
ATOM     25  C   UNL     1      -0.386   8.462  21.478  0.00  0.00    +0.000 C 
ATOM     26  C   UNL     1       0.654  10.740  21.359  0.00  0.00    +0.000 C 
ATOM     27  C   UNL     1      -0.270   9.677  19.296  0.00  0.00    +0.000 C 
ENDBRANCH  23  24
ENDBRANCH   5  23
TORSDOF 5
ENDMDL
