MODEL 1
REMARK VINA RESULT:      -7.8      0.000      0.000
REMARK  Name = 
REMARK  6 active torsions:
REMARK  status: ('A' for Active; 'I' for Inactive)
REMARK    1  A    between atoms: C_1  and  C_2
REMARK    2  A    between atoms: C_2  and  C_3
REMARK    3  A    between atoms: C_3  and  C_4
REMARK    4  A    between atoms: C_3  and  N_14
REMARK    5  A    between atoms: N_6  and  C_7
REMARK    6  A    between atoms: C_24  and  C_25
REMARK                            x       y       z     vdW  Elec       q    Type
REMARK                         _______ _______ _______ _____ _____    ______ ____
ROOT
ATOM      1  N   UNL     1       2.197   7.860  20.090  0.00  0.00    +0.000 NA
ATOM      2  C   UNL     1       2.436   8.765  18.943  0.00  0.00    +0.000 C 
ATOM      3  C   UNL     1       1.187   9.412  18.333  0.00  0.00    +0.000 C 
ATOM      4  C   UNL     1       0.213  10.018  19.360  0.00  0.00    +0.000 C 
ATOM      5  C   UNL     1       0.082   9.133  20.615  0.00  0.00    +0.000 C 
ATOM      6  C   UNL     1       1.432   8.603  21.106  0.00  0.00    +0.000 C 
ATOM      7  C   UNL     1       0.562  11.478  19.744  0.00  0.00    +0.000 C 
ATOM      8  O   UNL     1      -0.672  12.185  20.041  0.00  0.00    +0.000 OA
ATOM      9  C   UNL     1      -1.598  11.531  19.269  0.00  0.00    +0.000 A 
ATOM     10  C   UNL     1      -2.863  12.013  18.992  0.00  0.00    +0.000 A 
ATOM     11  C   UNL     1      -3.708  11.243  18.176  0.00  0.00    +0.000 A 
ATOM     12  C   UNL     1      -3.247  10.003  17.680  0.00  0.00    +0.000 A 
ATOM     13  C   UNL     1      -1.971   9.524  17.997  0.00  0.00    +0.000 A 
ATOM     14  C   UNL     1      -1.153  10.302  18.799  0.00  0.00    +0.000 A 
ENDROOT
BRANCH  11  15
ATOM     15  C   UNL     1      -5.100  11.707  17.824  0.00  0.00    +0.000 C 
ATOM     16  F   UNL     1      -5.585  12.673  18.654  0.00  0.00    +0.000 F 
ATOM     17  F   UNL     1      -5.173  12.227  16.567  0.00  0.00    +0.000 F 
ATOM     18  F   UNL     1      -6.010  10.694  17.859  0.00  0.00    +0.000 F 
ENDBRANCH  11  15
BRANCH   1  19
ATOM     19  C   UNL     1       1.560   6.567  19.681  0.00  0.00    +0.000 C 
BRANCH  19  20
ATOM     20  C   UNL     1       2.164   6.007  18.369  0.00  0.00    +0.000 C 
ATOM     21  O   UNL     1       1.409   5.523  17.524  0.00  0.00    +0.000 OA
ATOM     22  N   UNL     1       3.552   6.011  18.297  0.00  0.00    +0.000 N 
ATOM     23  H   UNL     1       4.023   6.356  19.132  0.00  0.00    +0.000 HD
BRANCH  22  24
ATOM     24  C   UNL     1       4.334   5.524  17.229  0.00  0.00    +0.000 A 
ATOM     25  C   UNL     1       4.903   6.363  16.261  0.00  0.00    +0.000 A 
ATOM     26  C   UNL     1       5.614   5.840  15.176  0.00  0.00    +0.000 A 
ATOM     27  C   UNL     1       5.771   4.467  15.050  0.00  0.00    +0.000 A 
ATOM     28 CL   UNL     1       6.604   3.823  13.689  0.00  0.00    +0.000 Cl
ATOM     29  C   UNL     1       5.251   3.616  16.024  0.00  0.00    +0.000 A 
ATOM     30  C   UNL     1       4.544   4.144  17.116  0.00  0.00    +0.000 A 
ENDBRANCH  22  24
ENDBRANCH  19  20
BRANCH  19  32
ATOM     31  C   UNL     1       0.941   4.105  20.294  0.00  0.00    +0.000 C 
ATOM     32  C   UNL     1       1.571   5.423  20.726  0.00  0.00    +0.000 C 
ENDBRANCH  19  32
ENDBRANCH   1  19
TORSDOF 5
ENDMDL
MODEL 2
REMARK VINA RESULT:      -7.6      0.104      1.100
REMARK  Name = 
REMARK  6 active torsions:
REMARK  status: ('A' for Active; 'I' for Inactive)
REMARK    1  A    between atoms: C_1  and  C_2
REMARK    2  A    between atoms: C_2  and  C_3
REMARK    3  A    between atoms: C_3  and  C_4
REMARK    4  A    between atoms: C_3  and  N_14
REMARK    5  A    between atoms: N_6  and  C_7
REMARK    6  A    between atoms: C_24  and  C_25
REMARK                            x       y       z     vdW  Elec       q    Type
REMARK                         _______ _______ _______ _____ _____    ______ ____
ROOT
ATOM      1  N   UNL     1       2.191   7.837  20.100  0.00  0.00    +0.000 NA
ATOM      2  C   UNL     1       2.443   8.731  18.947  0.00  0.00    +0.000 C 
ATOM      3  C   UNL     1       1.203   9.386  18.327  0.00  0.00    +0.000 C 
ATOM      4  C   UNL     1       0.230  10.009  19.346  0.00  0.00    +0.000 C 
ATOM      5  C   UNL     1       0.086   9.135  20.607  0.00  0.00    +0.000 C 
ATOM      6  C   UNL     1       1.429   8.597  21.107  0.00  0.00    +0.000 C 
ATOM      7  C   UNL     1       0.593  11.468  19.719  0.00  0.00    +0.000 C 
ATOM      8  O   UNL     1      -0.635  12.190  20.006  0.00  0.00    +0.000 OA
ATOM      9  C   UNL     1      -1.565  11.539  19.236  0.00  0.00    +0.000 A 
ATOM     10  C   UNL     1      -2.824  12.031  18.950  0.00  0.00    +0.000 A 
ATOM     11  C   UNL     1      -3.673  11.263  18.136  0.00  0.00    +0.000 A 
ATOM     12  C   UNL     1      -3.222  10.015  17.652  0.00  0.00    +0.000 A 
ATOM     13  C   UNL     1      -1.953   9.525  17.979  0.00  0.00    +0.000 A 
ATOM     14  C   UNL     1      -1.130  10.302  18.777  0.00  0.00    +0.000 A 
ENDROOT
BRANCH  11  15
ATOM     15  C   UNL     1      -5.060  11.738  17.776  0.00  0.00    +0.000 C 
ATOM     16  F   UNL     1      -6.006  10.758  17.819  0.00  0.00    +0.000 F 
ATOM     17  F   UNL     1      -5.505  12.721  18.607  0.00  0.00    +0.000 F 
ATOM     18  F   UNL     1      -5.120  12.260  16.519  0.00  0.00    +0.000 F 
ENDBRANCH  11  15
BRANCH   1  19
ATOM     19  C   UNL     1       1.543   6.548  19.698  0.00  0.00    +0.000 C 
BRANCH  19  20
ATOM     20  C   UNL     1       2.118   5.992  18.372  0.00  0.00    +0.000 C 
ATOM     21  O   UNL     1       1.341   5.541  17.528  0.00  0.00    +0.000 OA
ATOM     22  N   UNL     1       3.505   5.961  18.285  0.00  0.00    +0.000 N 
ATOM     23  H   UNL     1       3.994   6.281  19.119  0.00  0.00    +0.000 HD
BRANCH  22  24
ATOM     24  C   UNL     1       4.263   5.470  17.201  0.00  0.00    +0.000 A 
ATOM     25  C   UNL     1       4.553   4.110  17.032  0.00  0.00    +0.000 A 
ATOM     26  C   UNL     1       5.365   3.666  15.984  0.00  0.00    +0.000 A 
ATOM     27  C   UNL     1       5.894   4.582  15.086  0.00  0.00    +0.000 A 
ATOM     28 CL   UNL     1       6.933   4.039  13.825  0.00  0.00    +0.000 Cl
ATOM     29  C   UNL     1       5.584   5.934  15.208  0.00  0.00    +0.000 A 
ATOM     30  C   UNL     1       4.761   6.376  16.257  0.00  0.00    +0.000 A 
ENDBRANCH  22  24
ENDBRANCH  19  20
BRANCH  19  32
ATOM     31  C   UNL     1       1.000   4.061  20.287  0.00  0.00    +0.000 C 
ATOM     32  C   UNL     1       1.573   5.399  20.738  0.00  0.00    +0.000 C 
ENDBRANCH  19  32
ENDBRANCH   1  19
TORSDOF 5
ENDMDL
MODEL 3
REMARK VINA RESULT:      -7.4      5.923      9.759
REMARK  Name = 
REMARK  6 active torsions:
REMARK  status: ('A' for Active; 'I' for Inactive)
REMARK    1  A    between atoms: C_1  and  C_2
REMARK    2  A    between atoms: C_2  and  C_3
REMARK    3  A    between atoms: C_3  and  C_4
REMARK    4  A    between atoms: C_3  and  N_14
REMARK    5  A    between atoms: N_6  and  C_7
REMARK    6  A    between atoms: C_24  and  C_25
REMARK                            x       y       z     vdW  Elec       q    Type
REMARK                         _______ _______ _______ _____ _____    ______ ____
ROOT
ATOM      1  N   UNL     1       4.334   6.084  19.615  0.00  0.00    +0.000 NA
ATOM      2  C   UNL     1       5.352   5.011  19.682  0.00  0.00    +0.000 C 
ATOM      3  C   UNL     1       5.662   4.301  18.359  0.00  0.00    +0.000 C 
ATOM      4  C   UNL     1       5.889   5.245  17.164  0.00  0.00    +0.000 C 
ATOM      5  C   UNL     1       4.914   6.438  17.183  0.00  0.00    +0.000 C 
ATOM      6  C   UNL     1       4.754   7.045  18.579  0.00  0.00    +0.000 C 
ATOM      7  C   UNL     1       7.356   5.729  17.041  0.00  0.00    +0.000 C 
ATOM      8  O   UNL     1       7.661   5.924  15.634  0.00  0.00    +0.000 OA
ATOM      9  C   UNL     1       6.830   5.030  15.008  0.00  0.00    +0.000 A 
ATOM     10  C   UNL     1       6.953   4.641  13.688  0.00  0.00    +0.000 A 
ATOM     11  C   UNL     1       6.037   3.706  13.178  0.00  0.00    +0.000 A 
ATOM     12  C   UNL     1       5.019   3.207  14.020  0.00  0.00    +0.000 A 
ATOM     13  C   UNL     1       4.899   3.637  15.347  0.00  0.00    +0.000 A 
ATOM     14  C   UNL     1       5.816   4.555  15.830  0.00  0.00    +0.000 A 
ENDROOT
BRANCH  11  15
ATOM     15  C   UNL     1       6.113   3.230  11.748  0.00  0.00    +0.000 C 
ATOM     16  F   UNL     1       5.097   3.684  10.962  0.00  0.00    +0.000 F 
ATOM     17  F   UNL     1       7.263   3.619  11.130  0.00  0.00    +0.000 F 
ATOM     18  F   UNL     1       6.081   1.872  11.651  0.00  0.00    +0.000 F 
ENDBRANCH  11  15
BRANCH   1  19
ATOM     19  C   UNL     1       2.948   5.551  19.417  0.00  0.00    +0.000 C 
BRANCH  19  20
ATOM     20  C   UNL     1       1.902   6.317  20.265  0.00  0.00    +0.000 C 
ATOM     21  O   UNL     1       0.970   5.689  20.770  0.00  0.00    +0.000 OA
ATOM     22  N   UNL     1       2.054   7.698  20.303  0.00  0.00    +0.000 N 
ATOM     23  H   UNL     1       2.824   8.060  19.742  0.00  0.00    +0.000 HD
BRANCH  22  24
ATOM     24  C   UNL     1       1.214   8.612  20.973  0.00  0.00    +0.000 A 
ATOM     25  C   UNL     1       1.138   8.691  22.370  0.00  0.00    +0.000 A 
ATOM     26  C   UNL     1       0.242   9.561  23.000  0.00  0.00    +0.000 A 
ATOM     27  C   UNL     1      -0.587  10.370  22.236  0.00  0.00    +0.000 A 
ATOM     28 CL   UNL     1      -1.723  11.404  23.013  0.00  0.00    +0.000 Cl
ATOM     29  C   UNL     1      -0.499  10.340  20.846  0.00  0.00    +0.000 A 
ATOM     30  C   UNL     1       0.407   9.471  20.215  0.00  0.00    +0.000 A 
ENDBRANCH  22  24
ENDBRANCH  19  20
BRANCH  19  32
ATOM     31  C   UNL     1       1.844   4.169  17.495  0.00  0.00    +0.000 C 
ATOM     32  C   UNL     1       2.422   5.500  17.960  0.00  0.00    +0.000 C 
ENDBRANCH  19  32
ENDBRANCH   1  19
TORSDOF 5
ENDMDL
MODEL 4
REMARK VINA RESULT:      -7.3      5.957      9.805
REMARK  Name = 
REMARK  6 active torsions:
REMARK  status: ('A' for Active; 'I' for Inactive)
REMARK    1  A    between atoms: C_1  and  C_2
REMARK    2  A    between atoms: C_2  and  C_3
REMARK    3  A    between atoms: C_3  and  C_4
REMARK    4  A    between atoms: C_3  and  N_14
REMARK    5  A    between atoms: N_6  and  C_7
REMARK    6  A    between atoms: C_24  and  C_25
REMARK                            x       y       z     vdW  Elec       q    Type
REMARK                         _______ _______ _______ _____ _____    ______ ____
ROOT
ATOM      1  N   UNL     1       3.952   5.463  19.902  0.00  0.00    +0.000 NA
ATOM      2  C   UNL     1       4.486   4.085  19.819  0.00  0.00    +0.000 C 
ATOM      3  C   UNL     1       4.859   3.598  18.414  0.00  0.00    +0.000 C 
ATOM      4  C   UNL     1       5.693   4.596  17.590  0.00  0.00    +0.000 C 
ATOM      5  C   UNL     1       5.216   6.047  17.797  0.00  0.00    +0.000 C 
ATOM      6  C   UNL     1       4.925   6.368  19.265  0.00  0.00    +0.000 C 
ATOM      7  C   UNL     1       7.217   4.471  17.844  0.00  0.00    +0.000 C 
ATOM      8  O   UNL     1       7.918   4.813  16.618  0.00  0.00    +0.000 OA
ATOM      9  C   UNL     1       7.019   4.471  15.640  0.00  0.00    +0.000 A 
ATOM     10  C   UNL     1       7.333   4.345  14.300  0.00  0.00    +0.000 A 
ATOM     11  C   UNL     1       6.313   3.977  13.406  0.00  0.00    +0.000 A 
ATOM     12  C   UNL     1       5.007   3.763  13.899  0.00  0.00    +0.000 A 
ATOM     13  C   UNL     1       4.708   3.924  15.257  0.00  0.00    +0.000 A 
ATOM     14  C   UNL     1       5.729   4.282  16.120  0.00  0.00    +0.000 A 
ENDROOT
BRANCH  11  15
ATOM     15  C   UNL     1       6.582   3.814  11.930  0.00  0.00    +0.000 C 
ATOM     16  F   UNL     1       7.419   4.757  11.415  0.00  0.00    +0.000 F 
ATOM     17  F   UNL     1       7.150   2.611  11.635  0.00  0.00    +0.000 F 
ATOM     18  F   UNL     1       5.444   3.878  11.185  0.00  0.00    +0.000 F 
ENDBRANCH  11  15
BRANCH   1  19
ATOM     19  C   UNL     1       2.566   5.578  19.345  0.00  0.00    +0.000 C 
BRANCH  19  20
ATOM     20  C   UNL     1       1.982   7.003  19.521  0.00  0.00    +0.000 C 
ATOM     21  O   UNL     1       2.020   7.784  18.568  0.00  0.00    +0.000 OA
ATOM     22  N   UNL     1       1.541   7.317  20.801  0.00  0.00    +0.000 N 
ATOM     23  H   UNL     1       1.679   6.583  21.493  0.00  0.00    +0.000 HD
BRANCH  22  24
ATOM     24  C   UNL     1       1.006   8.554  21.219  0.00  0.00    +0.000 A 
ATOM     25  C   UNL     1       0.389   8.732  22.464  0.00  0.00    +0.000 A 
ATOM     26  C   UNL     1      -0.192   9.954  22.818  0.00  0.00    +0.000 A 
ATOM     27  C   UNL     1      -0.158  11.017  21.927  0.00  0.00    +0.000 A 
ATOM     28 CL   UNL     1      -0.918  12.505  22.345  0.00  0.00    +0.000 Cl
ATOM     29  C   UNL     1       0.487  10.876  20.701  0.00  0.00    +0.000 A 
ATOM     30  C   UNL     1       1.077   9.651  20.351  0.00  0.00    +0.000 A 
ENDBRANCH  22  24
ENDBRANCH  19  20
BRANCH  19  32
ATOM     31  C   UNL     1       1.383   4.053  17.585  0.00  0.00    +0.000 C 
ATOM     32  C   UNL     1       2.375   5.176  17.860  0.00  0.00    +0.000 C 
ENDBRANCH  19  32
ENDBRANCH   1  19
TORSDOF 5
ENDMDL
MODEL 5
REMARK VINA RESULT:      -7.3      5.899      9.768
REMARK  Name = 
REMARK  6 active torsions:
REMARK  status: ('A' for Active; 'I' for Inactive)
REMARK    1  A    between atoms: C_1  and  C_2
REMARK    2  A    between atoms: C_2  and  C_3
REMARK    3  A    between atoms: C_3  and  C_4
REMARK    4  A    between atoms: C_3  and  N_14
REMARK    5  A    between atoms: N_6  and  C_7
REMARK    6  A    between atoms: C_24  and  C_25
REMARK                            x       y       z     vdW  Elec       q    Type
REMARK                         _______ _______ _______ _____ _____    ______ ____
ROOT
ATOM      1  N   UNL     1       4.019   5.267  20.000  0.00  0.00    +0.000 NA
ATOM      2  C   UNL     1       4.762   3.989  19.936  0.00  0.00    +0.000 C 
ATOM      3  C   UNL     1       5.137   3.505  18.530  0.00  0.00    +0.000 C 
ATOM      4  C   UNL     1       5.758   4.586  17.625  0.00  0.00    +0.000 C 
ATOM      5  C   UNL     1       5.065   5.951  17.806  0.00  0.00    +0.000 C 
ATOM      6  C   UNL     1       4.800   6.286  19.276  0.00  0.00    +0.000 C 
ATOM      7  C   UNL     1       7.292   4.715  17.795  0.00  0.00    +0.000 C 
ATOM      8  O   UNL     1       7.867   5.109  16.520  0.00  0.00    +0.000 OA
ATOM      9  C   UNL     1       6.986   4.586  15.608  0.00  0.00    +0.000 A 
ATOM     10  C   UNL     1       7.248   4.452  14.258  0.00  0.00    +0.000 A 
ATOM     11  C   UNL     1       6.257   3.888  13.437  0.00  0.00    +0.000 A 
ATOM     12  C   UNL     1       5.028   3.492  14.011  0.00  0.00    +0.000 A 
ATOM     13  C   UNL     1       4.776   3.663  15.377  0.00  0.00    +0.000 A 
ATOM     14  C   UNL     1       5.769   4.216  16.168  0.00  0.00    +0.000 A 
ENDROOT
BRANCH  11  15
ATOM     15  C   UNL     1       6.473   3.704  11.955  0.00  0.00    +0.000 C 
ATOM     16  F   UNL     1       7.033   2.507  11.625  0.00  0.00    +0.000 F 
ATOM     17  F   UNL     1       5.312   3.779  11.246  0.00  0.00    +0.000 F 
ATOM     18  F   UNL     1       7.291   4.657  11.427  0.00  0.00    +0.000 F 
ENDBRANCH  11  15
BRANCH   1  19
ATOM     19  C   UNL     1       2.606   5.137  19.519  0.00  0.00    +0.000 C 
BRANCH  19  20
ATOM     20  C   UNL     1       1.640   6.080  20.280  0.00  0.00    +0.000 C 
ATOM     21  O   UNL     1       0.612   5.609  20.770  0.00  0.00    +0.000 OA
ATOM     22  N   UNL     1       1.977   7.428  20.260  0.00  0.00    +0.000 N 
ATOM     23  H   UNL     1       2.810   7.653  19.720  0.00  0.00    +0.000 HD
BRANCH  22  24
ATOM     24  C   UNL     1       1.242   8.480  20.846  0.00  0.00    +0.000 A 
ATOM     25  C   UNL     1       1.119   8.640  22.233  0.00  0.00    +0.000 A 
ATOM     26  C   UNL     1       0.326   9.654  22.779  0.00  0.00    +0.000 A 
ATOM     27  C   UNL     1      -0.353  10.526  21.940  0.00  0.00    +0.000 A 
ATOM     28 CL   UNL     1      -1.368  11.743  22.613  0.00  0.00    +0.000 Cl
ATOM     29  C   UNL     1      -0.212  10.413  20.558  0.00  0.00    +0.000 A 
ATOM     30  C   UNL     1       0.593   9.399  20.013  0.00  0.00    +0.000 A 
ENDBRANCH  22  24
ENDBRANCH  19  20
BRANCH  19  32
ATOM     31  C   UNL     1       1.605   4.240  17.278  0.00  0.00    +0.000 C 
ATOM     32  C   UNL     1       2.364   5.346  18.002  0.00  0.00    +0.000 C 
ENDBRANCH  19  32
ENDBRANCH   1  19
TORSDOF 5
ENDMDL
MODEL 6
REMARK VINA RESULT:      -7.2      3.908      5.159
REMARK  Name = 
REMARK  6 active torsions:
REMARK  status: ('A' for Active; 'I' for Inactive)
REMARK    1  A    between atoms: C_1  and  C_2
REMARK    2  A    between atoms: C_2  and  C_3
REMARK    3  A    between atoms: C_3  and  C_4
REMARK    4  A    between atoms: C_3  and  N_14
REMARK    5  A    between atoms: N_6  and  C_7
REMARK    6  A    between atoms: C_24  and  C_25
REMARK                            x       y       z     vdW  Elec       q    Type
REMARK                         _______ _______ _______ _____ _____    ______ ____
ROOT
ATOM      1  N   UNL     1       0.077   9.566  20.458  0.00  0.00    +0.000 NA
ATOM      2  C   UNL     1       0.354  10.447  21.615  0.00  0.00    +0.000 C 
ATOM      3  C   UNL     1       0.739  11.892  21.275  0.00  0.00    +0.000 C 
ATOM      4  C   UNL     1      -0.169  12.569  20.232  0.00  0.00    +0.000 C 
ATOM      5  C   UNL     1      -0.568  11.597  19.104  0.00  0.00    +0.000 C 
ATOM      6  C   UNL     1      -0.957  10.213  19.630  0.00  0.00    +0.000 C 
ATOM      7  C   UNL     1      -1.420  13.238  20.857  0.00  0.00    +0.000 C 
ATOM      8  O   UNL     1      -1.768  14.401  20.059  0.00  0.00    +0.000 OA
ATOM      9  C   UNL     1      -0.561  14.791  19.535  0.00  0.00    +0.000 A 
ATOM     10  C   UNL     1      -0.328  16.015  18.938  0.00  0.00    +0.000 A 
ATOM     11  C   UNL     1       0.962  16.287  18.453  0.00  0.00    +0.000 A 
ATOM     12  C   UNL     1       1.968  15.304  18.577  0.00  0.00    +0.000 A 
ATOM     13  C   UNL     1       1.700  14.061  19.161  0.00  0.00    +0.000 A 
ATOM     14  C   UNL     1       0.423  13.816  19.637  0.00  0.00    +0.000 A 
ENDROOT
BRANCH  11  15
ATOM     15  C   UNL     1       1.293  17.604  17.795  0.00  0.00    +0.000 C 
ATOM     16  F   UNL     1       1.484  18.627  18.674  0.00  0.00    +0.000 F 
ATOM     17  F   UNL     1       2.431  17.541  17.048  0.00  0.00    +0.000 F 
ATOM     18  F   UNL     1       0.315  18.021  16.944  0.00  0.00    +0.000 F 
ENDBRANCH  11  15
BRANCH   1  19
ATOM     19  C   UNL     1       1.316   9.202  19.700  0.00  0.00    +0.000 C 
BRANCH  19  20
ATOM     20  C   UNL     1       1.641   7.691  19.800  0.00  0.00    +0.000 C 
ATOM     21  O   UNL     1       1.498   7.121  20.883  0.00  0.00    +0.000 OA
ATOM     22  N   UNL     1       2.173   7.114  18.653  0.00  0.00    +0.000 N 
ATOM     23  H   UNL     1       2.319   7.757  17.877  0.00  0.00    +0.000 HD
BRANCH  22  24
ATOM     24  C   UNL     1       2.580   5.771  18.506  0.00  0.00    +0.000 A 
ATOM     25  C   UNL     1       1.799   4.808  17.853  0.00  0.00    +0.000 A 
ATOM     26  C   UNL     1       2.202   3.470  17.787  0.00  0.00    +0.000 A 
ATOM     27  C   UNL     1       3.399   3.080  18.372  0.00  0.00    +0.000 A 
ATOM     28 CL   UNL     1       3.870   1.425  18.332  0.00  0.00    +0.000 Cl
ATOM     29  C   UNL     1       4.212   4.028  18.989  0.00  0.00    +0.000 A 
ATOM     30  C   UNL     1       3.809   5.372  19.047  0.00  0.00    +0.000 A 
ENDBRANCH  22  24
ENDBRANCH  19  20
BRANCH  19  32
ATOM     31  C   UNL     1       2.385  10.638  17.797  0.00  0.00    +0.000 C 
ATOM     32  C   UNL     1       1.355   9.590  18.199  0.00  0.00    +0.000 C 
ENDBRANCH  19  32
ENDBRANCH   1  19
TORSDOF 5
ENDMDL
MODEL 7
REMARK VINA RESULT:      -7.2      5.920      9.727
REMARK  Name = 
REMARK  6 active torsions:
REMARK  status: ('A' for Active; 'I' for Inactive)
REMARK    1  A    between atoms: C_1  and  C_2
REMARK    2  A    between atoms: C_2  and  C_3
REMARK    3  A    between atoms: C_3  and  C_4
REMARK    4  A    between atoms: C_3  and  N_14
REMARK    5  A    between atoms: N_6  and  C_7
REMARK    6  A    between atoms: C_24  and  C_25
REMARK                            x       y       z     vdW  Elec       q    Type
REMARK                         _______ _______ _______ _____ _____    ______ ____
ROOT
ATOM      1  N   UNL     1       4.057   5.231  19.970  0.00  0.00    +0.000 NA
ATOM      2  C   UNL     1       4.810   3.959  19.895  0.00  0.00    +0.000 C 
ATOM      3  C   UNL     1       5.187   3.490  18.485  0.00  0.00    +0.000 C 
ATOM      4  C   UNL     1       5.798   4.582  17.587  0.00  0.00    +0.000 C 
ATOM      5  C   UNL     1       5.095   5.940  17.781  0.00  0.00    +0.000 C 
ATOM      6  C   UNL     1       4.830   6.262  19.254  0.00  0.00    +0.000 C 
ATOM      7  C   UNL     1       7.332   4.722  17.757  0.00  0.00    +0.000 C 
ATOM      8  O   UNL     1       7.901   5.130  16.484  0.00  0.00    +0.000 OA
ATOM      9  C   UNL     1       7.023   4.608  15.568  0.00  0.00    +0.000 A 
ATOM     10  C   UNL     1       7.284   4.487  14.217  0.00  0.00    +0.000 A 
ATOM     11  C   UNL     1       6.296   3.923  13.393  0.00  0.00    +0.000 A 
ATOM     12  C   UNL     1       5.071   3.512  13.965  0.00  0.00    +0.000 A 
ATOM     13  C   UNL     1       4.820   3.671  15.333  0.00  0.00    +0.000 A 
ATOM     14  C   UNL     1       5.810   4.225  16.127  0.00  0.00    +0.000 A 
ENDROOT
BRANCH  11  15
ATOM     15  C   UNL     1       6.511   3.752  11.909  0.00  0.00    +0.000 C 
ATOM     16  F   UNL     1       7.258   4.742  11.344  0.00  0.00    +0.000 F 
ATOM     17  F   UNL     1       7.150   2.587  11.606  0.00  0.00    +0.000 F 
ATOM     18  F   UNL     1       5.341   3.724  11.214  0.00  0.00    +0.000 F 
ENDBRANCH  11  15
BRANCH   1  19
ATOM     19  C   UNL     1       2.645   5.094  19.490  0.00  0.00    +0.000 C 
BRANCH  19  20
ATOM     20  C   UNL     1       1.680   6.055  20.229  0.00  0.00    +0.000 C 
ATOM     21  O   UNL     1       0.668   5.592  20.758  0.00  0.00    +0.000 OA
ATOM     22  N   UNL     1       1.997   7.406  20.146  0.00  0.00    +0.000 N 
ATOM     23  H   UNL     1       2.817   7.619  19.580  0.00  0.00    +0.000 HD
BRANCH  22  24
ATOM     24  C   UNL     1       1.259   8.472  20.701  0.00  0.00    +0.000 A 
ATOM     25  C   UNL     1       0.707   9.499  19.923  0.00  0.00    +0.000 A 
ATOM     26  C   UNL     1       0.041  10.578  20.513  0.00  0.00    +0.000 A 
ATOM     27  C   UNL     1      -0.087  10.638  21.893  0.00  0.00    +0.000 A 
ATOM     28 CL   UNL     1      -0.865  11.991  22.620  0.00  0.00    +0.000 Cl
ATOM     29  C   UNL     1       0.416   9.607  22.683  0.00  0.00    +0.000 A 
ATOM     30  C   UNL     1       1.077   8.521  22.088  0.00  0.00    +0.000 A 
ENDBRANCH  22  24
ENDBRANCH  19  20
BRANCH  19  32
ATOM     31  C   UNL     1       1.482   4.255  17.306  0.00  0.00    +0.000 C 
ATOM     32  C   UNL     1       2.405   5.270  17.969  0.00  0.00    +0.000 C 
ENDBRANCH  19  32
ENDBRANCH   1  19
TORSDOF 5
ENDMDL
MODEL 8
REMARK VINA RESULT:      -7.2      6.312     10.068
REMARK  Name = 
REMARK  6 active torsions:
REMARK  status: ('A' for Active; 'I' for Inactive)
REMARK    1  A    between atoms: C_1  and  C_2
REMARK    2  A    between atoms: C_2  and  C_3
REMARK    3  A    between atoms: C_3  and  C_4
REMARK    4  A    between atoms: C_3  and  N_14
REMARK    5  A    between atoms: N_6  and  C_7
REMARK    6  A    between atoms: C_24  and  C_25
REMARK                            x       y       z     vdW  Elec       q    Type
REMARK                         _______ _______ _______ _____ _____    ______ ____
ROOT
ATOM      1  N   UNL     1      -1.049  12.974  19.727  0.00  0.00    +0.000 NA
ATOM      2  C   UNL     1       0.377  13.087  20.109  0.00  0.00    +0.000 C 
ATOM      3  C   UNL     1       1.108  11.762  20.356  0.00  0.00    +0.000 C 
ATOM      4  C   UNL     1       0.878  10.691  19.273  0.00  0.00    +0.000 C 
ATOM      5  C   UNL     1      -0.583  10.681  18.780  0.00  0.00    +0.000 C 
ATOM      6  C   UNL     1      -1.137  12.089  18.552  0.00  0.00    +0.000 C 
ATOM      7  C   UNL     1       1.864  10.807  18.084  0.00  0.00    +0.000 C 
ATOM      8  O   UNL     1       2.113   9.475  17.560  0.00  0.00    +0.000 OA
ATOM      9  C   UNL     1       1.933   8.670  18.657  0.00  0.00    +0.000 A 
ATOM     10  C   UNL     1       2.334   7.351  18.731  0.00  0.00    +0.000 A 
ATOM     11  C   UNL     1       2.096   6.645  19.923  0.00  0.00    +0.000 A 
ATOM     12  C   UNL     1       1.446   7.299  20.994  0.00  0.00    +0.000 A 
ATOM     13  C   UNL     1       1.025   8.629  20.883  0.00  0.00    +0.000 A 
ATOM     14  C   UNL     1       1.275   9.306  19.702  0.00  0.00    +0.000 A 
ENDROOT
BRANCH  11  15
ATOM     15  C   UNL     1       2.511   5.203  20.081  0.00  0.00    +0.000 C 
ATOM     16  F   UNL     1       3.790   4.952  19.683  0.00  0.00    +0.000 F 
ATOM     17  F   UNL     1       2.434   4.778  21.373  0.00  0.00    +0.000 F 
ATOM     18  F   UNL     1       1.724   4.354  19.363  0.00  0.00    +0.000 F 
ENDBRANCH  11  15
BRANCH   1  19
ATOM     19  C   UNL     1      -1.920  12.549  20.869  0.00  0.00    +0.000 C 
BRANCH  19  20
ATOM     20  C   UNL     1      -1.422  13.111  22.224  0.00  0.00    +0.000 C 
ATOM     21  O   UNL     1      -0.956  12.331  23.057  0.00  0.00    +0.000 OA
ATOM     22  N   UNL     1      -1.638  14.469  22.427  0.00  0.00    +0.000 N 
ATOM     23  H   UNL     1      -2.130  14.942  21.671  0.00  0.00    +0.000 HD
BRANCH  22  24
ATOM     24  C   UNL     1      -1.310  15.202  23.587  0.00  0.00    +0.000 A 
ATOM     25  C   UNL     1      -0.283  16.155  23.617  0.00  0.00    +0.000 A 
ATOM     26  C   UNL     1       0.062  16.813  24.802  0.00  0.00    +0.000 A 
ATOM     27  C   UNL     1      -0.624  16.528  25.974  0.00  0.00    +0.000 A 
ATOM     28 CL   UNL     1      -0.165  17.302  27.442  0.00  0.00    +0.000 Cl
ATOM     29  C   UNL     1      -1.676  15.615  25.959  0.00  0.00    +0.000 A 
ATOM     30  C   UNL     1      -2.026  14.962  24.767  0.00  0.00    +0.000 A 
ENDBRANCH  22  24
ENDBRANCH  19  20
BRANCH  19  32
ATOM     31  C   UNL     1      -4.284  12.576  21.978  0.00  0.00    +0.000 C 
ATOM     32  C   UNL     1      -3.430  12.878  20.754  0.00  0.00    +0.000 C 
ENDBRANCH  19  32
ENDBRANCH   1  19
TORSDOF 5
ENDMDL
MODEL 9
REMARK VINA RESULT:      -7.2      5.918      9.707
REMARK  Name = 
REMARK  6 active torsions:
REMARK  status: ('A' for Active; 'I' for Inactive)
REMARK    1  A    between atoms: C_1  and  C_2
REMARK    2  A    between atoms: C_2  and  C_3
REMARK    3  A    between atoms: C_3  and  C_4
REMARK    4  A    between atoms: C_3  and  N_14
REMARK    5  A    between atoms: N_6  and  C_7
REMARK    6  A    between atoms: C_24  and  C_25
REMARK                            x       y       z     vdW  Elec       q    Type
REMARK                         _______ _______ _______ _____ _____    ______ ____
ROOT
ATOM      1  N   UNL     1       3.951   5.222  19.915  0.00  0.00    +0.000 NA
ATOM      2  C   UNL     1       4.538   3.869  19.785  0.00  0.00    +0.000 C 
ATOM      3  C   UNL     1       4.937   3.449  18.365  0.00  0.00    +0.000 C 
ATOM      4  C   UNL     1       5.736   4.509  17.584  0.00  0.00    +0.000 C 
ATOM      5  C   UNL     1       5.202   5.932  17.841  0.00  0.00    +0.000 C 
ATOM      6  C   UNL     1       4.892   6.187  19.318  0.00  0.00    +0.000 C 
ATOM      7  C   UNL     1       7.262   4.433  17.842  0.00  0.00    +0.000 C 
ATOM      8  O   UNL     1       7.955   4.847  16.634  0.00  0.00    +0.000 OA
ATOM      9  C   UNL     1       7.075   4.508  15.638  0.00  0.00    +0.000 A 
ATOM     10  C   UNL     1       7.400   4.444  14.297  0.00  0.00    +0.000 A 
ATOM     11  C   UNL     1       6.399   4.071  13.384  0.00  0.00    +0.000 A 
ATOM     12  C   UNL     1       5.100   3.788  13.860  0.00  0.00    +0.000 A 
ATOM     13  C   UNL     1       4.788   3.887  15.221  0.00  0.00    +0.000 A 
ATOM     14  C   UNL     1       5.791   4.251  16.104  0.00  0.00    +0.000 A 
ENDROOT
BRANCH  11  15
ATOM     15  C   UNL     1       6.681   3.973  11.904  0.00  0.00    +0.000 C 
ATOM     16  F   UNL     1       5.562   4.000  11.127  0.00  0.00    +0.000 F 
ATOM     17  F   UNL     1       7.470   4.990  11.456  0.00  0.00    +0.000 F 
ATOM     18  F   UNL     1       7.336   2.825  11.575  0.00  0.00    +0.000 F 
ENDBRANCH  11  15
BRANCH   1  19
ATOM     19  C   UNL     1       2.565   5.305  19.354  0.00  0.00    +0.000 C 
BRANCH  19  20
ATOM     20  C   UNL     1       2.026   6.757  19.339  0.00  0.00    +0.000 C 
ATOM     21  O   UNL     1       2.057   7.394  18.284  0.00  0.00    +0.000 OA
ATOM     22  N   UNL     1       1.632   7.264  20.572  0.00  0.00    +0.000 N 
ATOM     23  H   UNL     1       1.769   6.632  21.359  0.00  0.00    +0.000 HD
BRANCH  22  24
ATOM     24  C   UNL     1       1.144   8.564  20.822  0.00  0.00    +0.000 A 
ATOM     25  C   UNL     1       1.163   9.581  19.858  0.00  0.00    +0.000 A 
ATOM     26  C   UNL     1       0.735  10.877  20.162  0.00  0.00    +0.000 A 
ATOM     27  C   UNL     1       0.275  11.170  21.438  0.00  0.00    +0.000 A 
ATOM     28 CL   UNL     1      -0.205  12.778  21.825  0.00  0.00    +0.000 Cl
ATOM     29  C   UNL     1       0.207  10.165  22.400  0.00  0.00    +0.000 A 
ATOM     30  C   UNL     1       0.630   8.862  22.090  0.00  0.00    +0.000 A 
ENDBRANCH  22  24
ENDBRANCH  19  20
BRANCH  19  32
ATOM     31  C   UNL     1       1.394   3.529  17.837  0.00  0.00    +0.000 C 
ATOM     32  C   UNL     1       2.349   4.712  17.938  0.00  0.00    +0.000 C 
ENDBRANCH  19  32
ENDBRANCH   1  19
TORSDOF 5
ENDMDL
