MODEL 1
REMARK VINA RESULT:      -7.6      0.000      0.000
REMARK  Name = 
REMARK  2 active torsions:
REMARK  status: ('A' for Active; 'I' for Inactive)
REMARK    1  A    between atoms: C_1  and  C_2
REMARK    2  A    between atoms: C_2  and  N_3
REMARK                            x       y       z     vdW  Elec       q    Type
REMARK                         _______ _______ _______ _____ _____    ______ ____
ROOT
ATOM      1  N   UNL     1       6.917   4.819  14.324  0.00  0.00    +0.000 N 
ATOM      2  C   UNL     1       5.966   3.874  14.074  0.00  0.00    +0.000 A 
ATOM      3  N   UNL     1       5.252   3.600  15.153  0.00  0.00    +0.000 NA
ATOM      4  C   UNL     1       5.772   4.412  16.157  0.00  0.00    +0.000 A 
ATOM      5  C   UNL     1       5.454   4.589  17.537  0.00  0.00    +0.000 A 
ATOM      6  N   UNL     1       4.444   3.966  18.225  0.00  0.00    +0.000 N 
ATOM      7  C   UNL     1       3.523   2.999  17.671  0.00  0.00    +0.000 C 
ATOM      8  C   UNL     1       3.815   1.790  18.574  0.00  0.00    +0.000 C 
ATOM      9  C   UNL     1       4.122   2.389  19.953  0.00  0.00    +0.000 C 
ATOM     10  C   UNL     1       4.307   3.903  19.682  0.00  0.00    +0.000 C 
ATOM     11  C   UNL     1       3.008   4.619  20.069  0.00  0.00    +0.000 C 
ATOM     12  C   UNL     1       1.857   4.039  19.258  0.00  0.00    +0.000 C 
ATOM     13  O   UNL     1       0.715   3.995  19.720  0.00  0.00    +0.000 OA
ATOM     14  C   UNL     1       2.135   3.636  17.821  0.00  0.00    +0.000 C 
ATOM     15  N   UNL     1       6.210   5.497  18.220  0.00  0.00    +0.000 NA
ATOM     16  C   UNL     1       7.184   6.177  17.577  0.00  0.00    +0.000 A 
ATOM     17  N   UNL     1       7.557   6.082  16.289  0.00  0.00    +0.000 NA
ATOM     18  C   UNL     1       6.807   5.172  15.643  0.00  0.00    +0.000 A 
ENDROOT
BRANCH   1  20
ATOM     19  C   UNL     1       7.526   5.004  11.932  0.00  0.00    +0.000 C 
ATOM     20  C   UNL     1       7.843   5.390  13.367  0.00  0.00    +0.000 C 
ENDBRANCH   1  20
TORSDOF 1
ENDMDL
MODEL 2
REMARK VINA RESULT:      -7.0      2.905      6.282
REMARK  Name = 
REMARK  2 active torsions:
REMARK  status: ('A' for Active; 'I' for Inactive)
REMARK    1  A    between atoms: C_1  and  C_2
REMARK    2  A    between atoms: C_2  and  N_3
REMARK                            x       y       z     vdW  Elec       q    Type
REMARK                         _______ _______ _______ _____ _____    ______ ____
ROOT
ATOM      1  N   UNL     1       2.826   2.613  20.088  0.00  0.00    +0.000 N 
ATOM      2  C   UNL     1       4.123   2.256  20.316  0.00  0.00    +0.000 A 
ATOM      3  N   UNL     1       4.968   3.046  19.676  0.00  0.00    +0.000 NA
ATOM      4  C   UNL     1       4.173   3.964  18.995  0.00  0.00    +0.000 A 
ATOM      5  C   UNL     1       4.467   5.061  18.129  0.00  0.00    +0.000 A 
ATOM      6  N   UNL     1       5.714   5.513  17.783  0.00  0.00    +0.000 N 
ATOM      7  C   UNL     1       6.966   4.944  18.227  0.00  0.00    +0.000 C 
ATOM      8  C   UNL     1       7.593   4.567  16.876  0.00  0.00    +0.000 C 
ATOM      9  C   UNL     1       7.139   5.666  15.906  0.00  0.00    +0.000 C 
ATOM     10  C   UNL     1       6.023   6.420  16.674  0.00  0.00    +0.000 C 
ATOM     11  C   UNL     1       6.630   7.699  17.261  0.00  0.00    +0.000 C 
ATOM     12  C   UNL     1       7.790   7.330  18.174  0.00  0.00    +0.000 C 
ATOM     13  O   UNL     1       8.755   8.085  18.309  0.00  0.00    +0.000 OA
ATOM     14  C   UNL     1       7.664   6.067  19.006  0.00  0.00    +0.000 C 
ATOM     15  N   UNL     1       3.393   5.743  17.634  0.00  0.00    +0.000 NA
ATOM     16  C   UNL     1       2.142   5.371  17.985  0.00  0.00    +0.000 A 
ATOM     17  N   UNL     1       1.767   4.361  18.788  0.00  0.00    +0.000 NA
ATOM     18  C   UNL     1       2.841   3.697  19.251  0.00  0.00    +0.000 A 
ENDROOT
BRANCH   1  20
ATOM     19  C   UNL     1       1.255   2.602  22.001  0.00  0.00    +0.000 C 
ATOM     20  C   UNL     1       1.645   1.999  20.661  0.00  0.00    +0.000 C 
ENDBRANCH   1  20
TORSDOF 1
ENDMDL
MODEL 3
REMARK VINA RESULT:      -6.7      2.709      6.210
REMARK  Name = 
REMARK  2 active torsions:
REMARK  status: ('A' for Active; 'I' for Inactive)
REMARK    1  A    between atoms: C_1  and  C_2
REMARK    2  A    between atoms: C_2  and  N_3
REMARK                            x       y       z     vdW  Elec       q    Type
REMARK                         _______ _______ _______ _____ _____    ______ ____
ROOT
ATOM      1  N   UNL     1       1.597   3.836  19.544  0.00  0.00    +0.000 N 
ATOM      2  C   UNL     1       1.406   4.862  18.666  0.00  0.00    +0.000 A 
ATOM      3  N   UNL     1       2.538   5.228  18.087  0.00  0.00    +0.000 NA
ATOM      4  C   UNL     1       3.514   4.392  18.623  0.00  0.00    +0.000 A 
ATOM      5  C   UNL     1       4.923   4.279  18.422  0.00  0.00    +0.000 A 
ATOM      6  N   UNL     1       5.682   5.011  17.546  0.00  0.00    +0.000 N 
ATOM      7  C   UNL     1       5.185   6.049  16.670  0.00  0.00    +0.000 C 
ATOM      8  C   UNL     1       6.018   7.244  17.158  0.00  0.00    +0.000 C 
ATOM      9  C   UNL     1       7.381   6.651  17.538  0.00  0.00    +0.000 C 
ATOM     10  C   UNL     1       7.143   5.119  17.554  0.00  0.00    +0.000 C 
ATOM     11  C   UNL     1       7.671   4.541  16.237  0.00  0.00    +0.000 C 
ATOM     12  C   UNL     1       6.952   5.209  15.073  0.00  0.00    +0.000 C 
ATOM     13  O   UNL     1       7.517   5.373  13.990  0.00  0.00    +0.000 OA
ATOM     14  C   UNL     1       5.484   5.552  15.249  0.00  0.00    +0.000 C 
ATOM     15  N   UNL     1       5.562   3.318  19.152  0.00  0.00    +0.000 NA
ATOM     16  C   UNL     1       4.852   2.534  19.993  0.00  0.00    +0.000 A 
ATOM     17  N   UNL     1       3.533   2.563  20.248  0.00  0.00    +0.000 NA
ATOM     18  C   UNL     1       2.931   3.526  19.528  0.00  0.00    +0.000 A 
ENDROOT
BRANCH   1  20
ATOM     19  C   UNL     1       1.069   2.709  21.684  0.00  0.00    +0.000 C 
ATOM     20  C   UNL     1       0.577   3.157  20.318  0.00  0.00    +0.000 C 
ENDBRANCH   1  20
TORSDOF 1
ENDMDL
MODEL 4
REMARK VINA RESULT:      -6.7      3.673      6.495
REMARK  Name = 
REMARK  2 active torsions:
REMARK  status: ('A' for Active; 'I' for Inactive)
REMARK    1  A    between atoms: C_1  and  C_2
REMARK    2  A    between atoms: C_2  and  N_3
REMARK                            x       y       z     vdW  Elec       q    Type
REMARK                         _______ _______ _______ _____ _____    ______ ____
ROOT
ATOM      1  N   UNL     1       1.211   7.495  20.661  0.00  0.00    +0.000 N 
ATOM      2  C   UNL     1       1.609   6.252  21.059  0.00  0.00    +0.000 A 
ATOM      3  N   UNL     1       2.496   5.732  20.228  0.00  0.00    +0.000 NA
ATOM      4  C   UNL     1       2.681   6.691  19.236  0.00  0.00    +0.000 A 
ATOM      5  C   UNL     1       3.491   6.742  18.062  0.00  0.00    +0.000 A 
ATOM      6  N   UNL     1       4.376   5.782  17.642  0.00  0.00    +0.000 N 
ATOM      7  C   UNL     1       4.636   4.529  18.314  0.00  0.00    +0.000 C 
ATOM      8  C   UNL     1       4.253   3.536  17.206  0.00  0.00    +0.000 C 
ATOM      9  C   UNL     1       4.673   4.219  15.898  0.00  0.00    +0.000 C 
ATOM     10  C   UNL     1       4.969   5.684  16.306  0.00  0.00    +0.000 C 
ATOM     11  C   UNL     1       6.487   5.842  16.446  0.00  0.00    +0.000 C 
ATOM     12  C   UNL     1       6.999   4.855  17.485  0.00  0.00    +0.000 C 
ATOM     13  O   UNL     1       8.131   4.375  17.399  0.00  0.00    +0.000 OA
ATOM     14  C   UNL     1       6.122   4.579  18.693  0.00  0.00    +0.000 C 
ATOM     15  N   UNL     1       3.397   7.879  17.312  0.00  0.00    +0.000 NA
ATOM     16  C   UNL     1       2.578   8.878  17.709  0.00  0.00    +0.000 A 
ATOM     17  N   UNL     1       1.782   8.924  18.791  0.00  0.00    +0.000 NA
ATOM     18  C   UNL     1       1.884   7.788  19.504  0.00  0.00    +0.000 A 
ENDROOT
BRANCH   1  20
ATOM     19  C   UNL     1       0.971   9.260  22.380  0.00  0.00    +0.000 C 
ATOM     20  C   UNL     1       0.288   8.372  21.352  0.00  0.00    +0.000 C 
ENDBRANCH   1  20
TORSDOF 1
ENDMDL
MODEL 5
REMARK VINA RESULT:      -6.6      4.229      6.907
REMARK  Name = 
REMARK  2 active torsions:
REMARK  status: ('A' for Active; 'I' for Inactive)
REMARK    1  A    between atoms: C_1  and  C_2
REMARK    2  A    between atoms: C_2  and  N_3
REMARK                            x       y       z     vdW  Elec       q    Type
REMARK                         _______ _______ _______ _____ _____    ______ ____
ROOT
ATOM      1  N   UNL     1       0.720   8.702  20.799  0.00  0.00    +0.000 N 
ATOM      2  C   UNL     1       1.040   7.539  21.435  0.00  0.00    +0.000 A 
ATOM      3  N   UNL     1       1.888   6.811  20.728  0.00  0.00    +0.000 NA
ATOM      4  C   UNL     1       2.129   7.544  19.570  0.00  0.00    +0.000 A 
ATOM      5  C   UNL     1       2.935   7.313  18.414  0.00  0.00    +0.000 A 
ATOM      6  N   UNL     1       3.755   6.236  18.196  0.00  0.00    +0.000 N 
ATOM      7  C   UNL     1       3.938   5.124  19.102  0.00  0.00    +0.000 C 
ATOM      8  C   UNL     1       3.487   3.960  18.206  0.00  0.00    +0.000 C 
ATOM      9  C   UNL     1       3.943   4.346  16.793  0.00  0.00    +0.000 C 
ATOM     10  C   UNL     1       4.334   5.841  16.910  0.00  0.00    +0.000 C 
ATOM     11  C   UNL     1       5.859   5.927  17.028  0.00  0.00    +0.000 C 
ATOM     12  C   UNL     1       6.313   5.131  18.244  0.00  0.00    +0.000 C 
ATOM     13  O   UNL     1       7.411   4.573  18.261  0.00  0.00    +0.000 OA
ATOM     14  C   UNL     1       5.426   5.152  19.476  0.00  0.00    +0.000 C 
ATOM     15  N   UNL     1       2.910   8.285  17.456  0.00  0.00    +0.000 NA
ATOM     16  C   UNL     1       2.159   9.392  17.644  0.00  0.00    +0.000 A 
ATOM     17  N   UNL     1       1.372   9.699  18.690  0.00  0.00    +0.000 NA
ATOM     18  C   UNL     1       1.405   8.721  19.612  0.00  0.00    +0.000 A 
ENDROOT
BRANCH   1  20
ATOM     19  C   UNL     1      -0.515   9.570  22.760  0.00  0.00    +0.000 C 
ATOM     20  C   UNL     1      -0.141   9.754  21.299  0.00  0.00    +0.000 C 
ENDBRANCH   1  20
TORSDOF 1
ENDMDL
MODEL 6
REMARK VINA RESULT:      -6.6      4.655      7.211
REMARK  Name = 
REMARK  2 active torsions:
REMARK  status: ('A' for Active; 'I' for Inactive)
REMARK    1  A    between atoms: C_1  and  C_2
REMARK    2  A    between atoms: C_2  and  N_3
REMARK                            x       y       z     vdW  Elec       q    Type
REMARK                         _______ _______ _______ _____ _____    ______ ____
ROOT
ATOM      1  N   UNL     1       0.660   9.949  21.077  0.00  0.00    +0.000 N 
ATOM      2  C   UNL     1       0.629   8.868  21.909  0.00  0.00    +0.000 A 
ATOM      3  N   UNL     1       1.116   7.786  21.324  0.00  0.00    +0.000 NA
ATOM      4  C   UNL     1       1.480   8.190  20.042  0.00  0.00    +0.000 A 
ATOM      5  C   UNL     1       2.052   7.508  18.926  0.00  0.00    +0.000 A 
ATOM      6  N   UNL     1       2.440   6.193  18.888  0.00  0.00    +0.000 N 
ATOM      7  C   UNL     1       2.323   5.252  19.979  0.00  0.00    +0.000 C 
ATOM      8  C   UNL     1       1.428   4.186  19.329  0.00  0.00    +0.000 C 
ATOM      9  C   UNL     1       1.853   4.152  17.856  0.00  0.00    +0.000 C 
ATOM     10  C   UNL     1       2.731   5.417  17.680  0.00  0.00    +0.000 C 
ATOM     11  C   UNL     1       4.201   4.988  17.734  0.00  0.00    +0.000 C 
ATOM     12  C   UNL     1       4.473   4.296  19.062  0.00  0.00    +0.000 C 
ATOM     13  O   UNL     1       5.318   3.403  19.150  0.00  0.00    +0.000 OA
ATOM     14  C   UNL     1       3.763   4.824  20.295  0.00  0.00    +0.000 C 
ATOM     15  N   UNL     1       2.264   8.257  17.805  0.00  0.00    +0.000 NA
ATOM     16  C   UNL     1       1.948   9.570  17.807  0.00  0.00    +0.000 A 
ATOM     17  N   UNL     1       1.410  10.298  18.800  0.00  0.00    +0.000 NA
ATOM     18  C   UNL     1       1.198   9.534  19.887  0.00  0.00    +0.000 A 
ENDROOT
BRANCH   1  20
ATOM     19  C   UNL     1      -0.835  11.355  22.460  0.00  0.00    +0.000 C 
ATOM     20  C   UNL     1       0.251  11.301  21.398  0.00  0.00    +0.000 C 
ENDBRANCH   1  20
TORSDOF 1
ENDMDL
MODEL 7
REMARK VINA RESULT:      -6.5      4.605      6.372
REMARK  Name = 
REMARK  2 active torsions:
REMARK  status: ('A' for Active; 'I' for Inactive)
REMARK    1  A    between atoms: C_1  and  C_2
REMARK    2  A    between atoms: C_2  and  N_3
REMARK                            x       y       z     vdW  Elec       q    Type
REMARK                         _______ _______ _______ _____ _____    ______ ____
ROOT
ATOM      1  N   UNL     1       1.393  10.513  18.759  0.00  0.00    +0.000 N 
ATOM      2  C   UNL     1       1.878   9.916  17.632  0.00  0.00    +0.000 A 
ATOM      3  N   UNL     1       2.105   8.627  17.820  0.00  0.00    +0.000 NA
ATOM      4  C   UNL     1       1.748   8.377  19.143  0.00  0.00    +0.000 A 
ATOM      5  C   UNL     1       1.762   7.203  19.956  0.00  0.00    +0.000 A 
ATOM      6  N   UNL     1       2.125   5.942  19.558  0.00  0.00    +0.000 N 
ATOM      7  C   UNL     1       2.577   5.577  18.234  0.00  0.00    +0.000 C 
ATOM      8  C   UNL     1       3.971   5.019  18.563  0.00  0.00    +0.000 C 
ATOM      9  C   UNL     1       3.814   4.334  19.926  0.00  0.00    +0.000 C 
ATOM     10  C   UNL     1       2.436   4.817  20.444  0.00  0.00    +0.000 C 
ATOM     11  C   UNL     1       1.412   3.708  20.180  0.00  0.00    +0.000 C 
ATOM     12  C   UNL     1       1.377   3.403  18.689  0.00  0.00    +0.000 C 
ATOM     13  O   UNL     1       1.118   2.269  18.280  0.00  0.00    +0.000 OA
ATOM     14  C   UNL     1       1.546   4.563  17.724  0.00  0.00    +0.000 C 
ATOM     15  N   UNL     1       1.333   7.356  21.243  0.00  0.00    +0.000 NA
ATOM     16  C   UNL     1       0.914   8.567  21.671  0.00  0.00    +0.000 A 
ATOM     17  N   UNL     1       0.864   9.722  20.986  0.00  0.00    +0.000 NA
ATOM     18  C   UNL     1       1.304   9.548  19.727  0.00  0.00    +0.000 A 
ENDROOT
BRANCH   1  20
ATOM     19  C   UNL     1       2.174  12.843  19.058  0.00  0.00    +0.000 C 
ATOM     20  C   UNL     1       0.993  11.898  18.901  0.00  0.00    +0.000 C 
ENDBRANCH   1  20
TORSDOF 1
ENDMDL
MODEL 8
REMARK VINA RESULT:      -6.4      3.357      6.335
REMARK  Name = 
REMARK  2 active torsions:
REMARK  status: ('A' for Active; 'I' for Inactive)
REMARK    1  A    between atoms: C_1  and  C_2
REMARK    2  A    between atoms: C_2  and  N_3
REMARK                            x       y       z     vdW  Elec       q    Type
REMARK                         _______ _______ _______ _____ _____    ______ ____
ROOT
ATOM      1  N   UNL     1       1.654   8.190  19.557  0.00  0.00    +0.000 N 
ATOM      2  C   UNL     1       2.274   8.890  18.564  0.00  0.00    +0.000 A 
ATOM      3  N   UNL     1       3.233   8.182  17.991  0.00  0.00    +0.000 NA
ATOM      4  C   UNL     1       3.233   6.956  18.652  0.00  0.00    +0.000 A 
ATOM      5  C   UNL     1       4.018   5.771  18.518  0.00  0.00    +0.000 A 
ATOM      6  N   UNL     1       5.008   5.551  17.595  0.00  0.00    +0.000 N 
ATOM      7  C   UNL     1       5.445   6.496  16.592  0.00  0.00    +0.000 C 
ATOM      8  C   UNL     1       6.925   6.640  16.975  0.00  0.00    +0.000 C 
ATOM      9  C   UNL     1       7.346   5.250  17.469  0.00  0.00    +0.000 C 
ATOM     10  C   UNL     1       6.010   4.484  17.646  0.00  0.00    +0.000 C 
ATOM     11  C   UNL     1       5.811   3.585  16.421  0.00  0.00    +0.000 C 
ATOM     12  C   UNL     1       5.805   4.444  15.165  0.00  0.00    +0.000 C 
ATOM     13  O   UNL     1       6.219   4.001  14.092  0.00  0.00    +0.000 OA
ATOM     14  C   UNL     1       5.158   5.815  15.247  0.00  0.00    +0.000 C 
ATOM     15  N   UNL     1       3.720   4.750  19.373  0.00  0.00    +0.000 NA
ATOM     16  C   UNL     1       2.718   4.896  20.268  0.00  0.00    +0.000 A 
ATOM     17  N   UNL     1       1.928   5.964  20.469  0.00  0.00    +0.000 NA
ATOM     18  C   UNL     1       2.251   6.959  19.625  0.00  0.00    +0.000 A 
ENDROOT
BRANCH   1  20
ATOM     19  C   UNL     1       0.957   9.160  21.726  0.00  0.00    +0.000 C 
ATOM     20  C   UNL     1       0.535   8.637  20.362  0.00  0.00    +0.000 C 
ENDBRANCH   1  20
TORSDOF 1
ENDMDL
MODEL 9
REMARK VINA RESULT:      -6.4      3.742      6.269
REMARK  Name = 
REMARK  2 active torsions:
REMARK  status: ('A' for Active; 'I' for Inactive)
REMARK    1  A    between atoms: C_1  and  C_2
REMARK    2  A    between atoms: C_2  and  N_3
REMARK                            x       y       z     vdW  Elec       q    Type
REMARK                         _______ _______ _______ _____ _____    ______ ____
ROOT
ATOM      1  N   UNL     1       1.511   8.871  18.981  0.00  0.00    +0.000 N 
ATOM      2  C   UNL     1       2.210   9.387  17.930  0.00  0.00    +0.000 A 
ATOM      3  N   UNL     1       3.179   8.576  17.542  0.00  0.00    +0.000 NA
ATOM      4  C   UNL     1       3.104   7.475  18.391  0.00  0.00    +0.000 A 
ATOM      5  C   UNL     1       3.860   6.270  18.501  0.00  0.00    +0.000 A 
ATOM      6  N   UNL     1       4.896   5.882  17.690  0.00  0.00    +0.000 N 
ATOM      7  C   UNL     1       5.420   6.642  16.577  0.00  0.00    +0.000 C 
ATOM      8  C   UNL     1       6.879   6.818  17.026  0.00  0.00    +0.000 C 
ATOM      9  C   UNL     1       7.228   5.519  17.765  0.00  0.00    +0.000 C 
ATOM     10  C   UNL     1       5.862   4.819  17.978  0.00  0.00    +0.000 C 
ATOM     11  C   UNL     1       5.710   3.735  16.905  0.00  0.00    +0.000 C 
ATOM     12  C   UNL     1       5.804   4.377  15.528  0.00  0.00    +0.000 C 
ATOM     13  O   UNL     1       6.268   3.756  14.570  0.00  0.00    +0.000 OA
ATOM     14  C   UNL     1       5.194   5.755  15.345  0.00  0.00    +0.000 C 
ATOM     15  N   UNL     1       3.482   5.408  19.490  0.00  0.00    +0.000 NA
ATOM     16  C   UNL     1       2.433   5.718  20.284  0.00  0.00    +0.000 A 
ATOM     17  N   UNL     1       1.664   6.819  20.258  0.00  0.00    +0.000 NA
ATOM     18  C   UNL     1       2.066   7.657  19.286  0.00  0.00    +0.000 A 
ENDROOT
BRANCH   1  20
ATOM     19  C   UNL     1      -0.455  10.349  18.700  0.00  0.00    +0.000 C 
ATOM     20  C   UNL     1       0.359   9.466  19.631  0.00  0.00    +0.000 C 
ENDBRANCH   1  20
TORSDOF 1
ENDMDL
