MODEL 1
REMARK VINA RESULT:      -7.3      0.000      0.000
REMARK  Name = 
REMARK  1 active torsions:
REMARK  status: ('A' for Active; 'I' for Inactive)
REMARK    1  A    between atoms: C_2  and  C_3
REMARK                            x       y       z     vdW  Elec       q    Type
REMARK                         _______ _______ _______ _____ _____    ______ ____
ROOT
ATOM      1  O   UNL     1       5.835   3.797  15.989  0.00  0.00    +0.000 OA
ATOM      2  C   UNL     1       5.630   4.366  17.061  0.00  0.00    +0.000 C 
ATOM      3  N   UNL     1       4.596   3.969  17.941  0.00  0.00    +0.000 N 
ATOM      4  C   UNL     1       3.818   2.804  17.470  0.00  0.00    +0.000 C 
ATOM      5  C   UNL     1       2.825   2.174  18.458  0.00  0.00    +0.000 C 
ATOM      6  C   UNL     1       2.229   3.200  19.323  0.00  0.00    +0.000 A 
ATOM      7  N   UNL     1       1.150   3.000  20.085  0.00  0.00    +0.000 NA
ATOM      8  O   UNL     1       0.966   4.198  20.767  0.00  0.00    +0.000 OA
ATOM      9  C   UNL     1       1.931   5.081  20.398  0.00  0.00    +0.000 A 
ATOM     10  C   UNL     1       2.761   4.491  19.472  0.00  0.00    +0.000 A 
ATOM     11  C   UNL     1       3.942   5.007  18.762  0.00  0.00    +0.000 C 
ENDROOT
BRANCH   2  12
ATOM     12  C   UNL     1       6.516   5.521  17.412  0.00  0.00    +0.000 A 
ATOM     13  C   UNL     1       7.393   5.400  18.488  0.00  0.00    +0.000 A 
ATOM     14  C   UNL     1       8.129   6.519  18.880  0.00  0.00    +0.000 A 
ATOM     15  C   UNL     1       7.950   7.718  18.199  0.00  0.00    +0.000 A 
ATOM     16 CL   UNL     1       8.796   9.131  18.679  0.00  0.00    +0.000 Cl
ATOM     17  C   UNL     1       7.063   7.747  17.132  0.00  0.00    +0.000 A 
ATOM     18  N   UNL     1       6.348   6.673  16.713  0.00  0.00    +0.000 NA
ENDBRANCH   2  12
TORSDOF 1
ENDMDL
MODEL 2
REMARK VINA RESULT:      -6.9      0.834      1.247
REMARK  Name = 
REMARK  1 active torsions:
REMARK  status: ('A' for Active; 'I' for Inactive)
REMARK    1  A    between atoms: C_2  and  C_3
REMARK                            x       y       z     vdW  Elec       q    Type
REMARK                         _______ _______ _______ _____ _____    ______ ____
ROOT
ATOM      1  O   UNL     1       5.676   3.835  16.205  0.00  0.00    +0.000 OA
ATOM      2  C   UNL     1       5.479   4.331  17.314  0.00  0.00    +0.000 C 
ATOM      3  N   UNL     1       4.566   3.771  18.240  0.00  0.00    +0.000 N 
ATOM      4  C   UNL     1       3.905   2.538  17.765  0.00  0.00    +0.000 C 
ATOM      5  C   UNL     1       3.070   1.749  18.784  0.00  0.00    +0.000 C 
ATOM      6  C   UNL     1       2.415   2.658  19.735  0.00  0.00    +0.000 A 
ATOM      7  N   UNL     1       1.426   2.293  20.554  0.00  0.00    +0.000 NA
ATOM      8  O   UNL     1       1.146   3.430  21.305  0.00  0.00    +0.000 OA
ATOM      9  C   UNL     1       1.966   4.441  20.916  0.00  0.00    +0.000 A 
ATOM     10  C   UNL     1       2.795   3.997  19.910  0.00  0.00    +0.000 A 
ATOM     11  C   UNL     1       3.850   4.686  19.151  0.00  0.00    +0.000 C 
ENDROOT
BRANCH   2  12
ATOM     12  C   UNL     1       6.239   5.573  17.662  0.00  0.00    +0.000 A 
ATOM     13  C   UNL     1       5.941   6.759  16.992  0.00  0.00    +0.000 A 
ATOM     14  C   UNL     1       6.732   7.882  17.239  0.00  0.00    +0.000 A 
ATOM     15  C   UNL     1       7.797   7.776  18.126  0.00  0.00    +0.000 A 
ATOM     16 CL   UNL     1       8.827   9.117  18.420  0.00  0.00    +0.000 Cl
ATOM     17  C   UNL     1       8.017   6.560  18.756  0.00  0.00    +0.000 A 
ATOM     18  N   UNL     1       7.254   5.456  18.555  0.00  0.00    +0.000 NA
ENDBRANCH   2  12
TORSDOF 1
ENDMDL
MODEL 3
REMARK VINA RESULT:      -6.5      3.062      3.790
REMARK  Name = 
REMARK  1 active torsions:
REMARK  status: ('A' for Active; 'I' for Inactive)
REMARK    1  A    between atoms: C_2  and  C_3
REMARK                            x       y       z     vdW  Elec       q    Type
REMARK                         _______ _______ _______ _____ _____    ______ ____
ROOT
ATOM      1  O   UNL     1       4.116   2.826  18.234  0.00  0.00    +0.000 OA
ATOM      2  C   UNL     1       4.345   3.985  17.889  0.00  0.00    +0.000 C 
ATOM      3  N   UNL     1       3.754   5.096  18.537  0.00  0.00    +0.000 N 
ATOM      4  C   UNL     1       2.872   4.736  19.666  0.00  0.00    +0.000 C 
ATOM      5  C   UNL     1       2.366   5.881  20.556  0.00  0.00    +0.000 C 
ATOM      6  C   UNL     1       2.147   7.099  19.764  0.00  0.00    +0.000 A 
ATOM      7  N   UNL     1       1.465   8.160  20.202  0.00  0.00    +0.000 NA
ATOM      8  O   UNL     1       1.549   9.089  19.169  0.00  0.00    +0.000 OA
ATOM      9  C   UNL     1       2.272   8.563  18.146  0.00  0.00    +0.000 A 
ATOM     10  C   UNL     1       2.674   7.289  18.477  0.00  0.00    +0.000 A 
ATOM     11  C   UNL     1       3.466   6.299  17.731  0.00  0.00    +0.000 C 
ENDROOT
BRANCH   2  12
ATOM     12  C   UNL     1       5.279   4.193  16.738  0.00  0.00    +0.000 A 
ATOM     13  C   UNL     1       6.579   4.627  16.989  0.00  0.00    +0.000 A 
ATOM     14  C   UNL     1       7.404   4.930  15.905  0.00  0.00    +0.000 A 
ATOM     15  C   UNL     1       6.898   4.806  14.616  0.00  0.00    +0.000 A 
ATOM     16 CL   UNL     1       7.860   5.216  13.255  0.00  0.00    +0.000 Cl
ATOM     17  C   UNL     1       5.595   4.357  14.456  0.00  0.00    +0.000 A 
ATOM     18  N   UNL     1       4.774   4.034  15.487  0.00  0.00    +0.000 NA
ENDBRANCH   2  12
TORSDOF 1
ENDMDL
MODEL 4
REMARK VINA RESULT:      -6.5      2.857      3.666
REMARK  Name = 
REMARK  1 active torsions:
REMARK  status: ('A' for Active; 'I' for Inactive)
REMARK    1  A    between atoms: C_2  and  C_3
REMARK                            x       y       z     vdW  Elec       q    Type
REMARK                         _______ _______ _______ _____ _____    ______ ____
ROOT
ATOM      1  O   UNL     1       4.047   2.576  17.730  0.00  0.00    +0.000 OA
ATOM      2  C   UNL     1       4.254   3.784  17.623  0.00  0.00    +0.000 C 
ATOM      3  N   UNL     1       3.676   4.730  18.503  0.00  0.00    +0.000 N 
ATOM      4  C   UNL     1       2.836   4.133  19.562  0.00  0.00    +0.000 C 
ATOM      5  C   UNL     1       2.350   5.063  20.684  0.00  0.00    +0.000 C 
ATOM      6  C   UNL     1       2.093   6.413  20.165  0.00  0.00    +0.000 A 
ATOM      7  N   UNL     1       1.416   7.352  20.832  0.00  0.00    +0.000 NA
ATOM      8  O   UNL     1       1.456   8.473  20.010  0.00  0.00    +0.000 OA
ATOM      9  C   UNL     1       2.148   8.179  18.878  0.00  0.00    +0.000 A 
ATOM     10  C   UNL     1       2.573   6.871  18.928  0.00  0.00    +0.000 A 
ATOM     11  C   UNL     1       3.348   6.067  17.970  0.00  0.00    +0.000 C 
ENDROOT
BRANCH   2  12
ATOM     12  C   UNL     1       5.145   4.238  16.509  0.00  0.00    +0.000 A 
ATOM     13  C   UNL     1       4.719   4.077  15.191  0.00  0.00    +0.000 A 
ATOM     14  C   UNL     1       5.603   4.395  14.160  0.00  0.00    +0.000 A 
ATOM     15  C   UNL     1       6.880   4.842  14.478  0.00  0.00    +0.000 A 
ATOM     16 CL   UNL     1       8.017   5.195  13.241  0.00  0.00    +0.000 Cl
ATOM     17  C   UNL     1       7.219   4.982  15.816  0.00  0.00    +0.000 A 
ATOM     18  N   UNL     1       6.377   4.703  16.842  0.00  0.00    +0.000 NA
ENDBRANCH   2  12
TORSDOF 1
ENDMDL
MODEL 5
REMARK VINA RESULT:      -6.5      3.643      4.818
REMARK  Name = 
REMARK  1 active torsions:
REMARK  status: ('A' for Active; 'I' for Inactive)
REMARK    1  A    between atoms: C_2  and  C_3
REMARK                            x       y       z     vdW  Elec       q    Type
REMARK                         _______ _______ _______ _____ _____    ______ ____
ROOT
ATOM      1  O   UNL     1       2.807   4.334  20.306  0.00  0.00    +0.000 OA
ATOM      2  C   UNL     1       3.183   5.261  19.589  0.00  0.00    +0.000 C 
ATOM      3  N   UNL     1       2.657   6.570  19.709  0.00  0.00    +0.000 N 
ATOM      4  C   UNL     1       1.649   6.718  20.779  0.00  0.00    +0.000 C 
ATOM      5  C   UNL     1       1.190   8.143  21.121  0.00  0.00    +0.000 C 
ATOM      6  C   UNL     1       1.166   8.985  19.917  0.00  0.00    +0.000 A 
ATOM      7  N   UNL     1       0.562  10.175  19.851  0.00  0.00    +0.000 NA
ATOM      8  O   UNL     1       0.829  10.640  18.567  0.00  0.00    +0.000 OA
ATOM      9  C   UNL     1       1.579   9.723  17.902  0.00  0.00    +0.000 A 
ATOM     10  C   UNL     1       1.817   8.644  18.722  0.00  0.00    +0.000 A 
ATOM     11  C   UNL     1       2.564   7.397  18.490  0.00  0.00    +0.000 C 
ENDROOT
BRANCH   2  12
ATOM     12  C   UNL     1       4.228   4.961  18.560  0.00  0.00    +0.000 A 
ATOM     13  C   UNL     1       5.532   5.407  18.767  0.00  0.00    +0.000 A 
ATOM     14  C   UNL     1       6.470   5.224  17.750  0.00  0.00    +0.000 A 
ATOM     15  C   UNL     1       6.071   4.622  16.563  0.00  0.00    +0.000 A 
ATOM     16 CL   UNL     1       7.179   4.425  15.267  0.00  0.00    +0.000 Cl
ATOM     17  C   UNL     1       4.755   4.199  16.444  0.00  0.00    +0.000 A 
ATOM     18  N   UNL     1       3.824   4.342  17.420  0.00  0.00    +0.000 NA
ENDBRANCH   2  12
TORSDOF 1
ENDMDL
MODEL 6
REMARK VINA RESULT:      -6.5      3.249      5.484
REMARK  Name = 
REMARK  1 active torsions:
REMARK  status: ('A' for Active; 'I' for Inactive)
REMARK    1  A    between atoms: C_2  and  C_3
REMARK                            x       y       z     vdW  Elec       q    Type
REMARK                         _______ _______ _______ _____ _____    ______ ____
ROOT
ATOM      1  O   UNL     1       1.724   4.877  17.674  0.00  0.00    +0.000 OA
ATOM      2  C   UNL     1       2.613   5.616  18.099  0.00  0.00    +0.000 C 
ATOM      3  N   UNL     1       3.980   5.395  17.809  0.00  0.00    +0.000 N 
ATOM      4  C   UNL     1       4.231   4.228  16.938  0.00  0.00    +0.000 C 
ATOM      5  C   UNL     1       5.658   4.046  16.399  0.00  0.00    +0.000 C 
ATOM      6  C   UNL     1       6.649   4.501  17.383  0.00  0.00    +0.000 A 
ATOM      7  N   UNL     1       7.953   4.223  17.312  0.00  0.00    +0.000 NA
ATOM      8  O   UNL     1       8.520   4.884  18.397  0.00  0.00    +0.000 OA
ATOM      9  C   UNL     1       7.546   5.534  19.088  0.00  0.00    +0.000 A 
ATOM     10  C   UNL     1       6.331   5.316  18.481  0.00  0.00    +0.000 A 
ATOM     11  C   UNL     1       4.979   5.785  18.824  0.00  0.00    +0.000 C 
ENDROOT
BRANCH   2  12
ATOM     12  C   UNL     1       2.201   6.773  18.955  0.00  0.00    +0.000 A 
ATOM     13  C   UNL     1       1.849   6.541  20.284  0.00  0.00    +0.000 A 
ATOM     14  C   UNL     1       1.356   7.606  21.039  0.00  0.00    +0.000 A 
ATOM     15  C   UNL     1       1.214   8.852  20.440  0.00  0.00    +0.000 A 
ATOM     16 CL   UNL     1       0.563  10.176  21.316  0.00  0.00    +0.000 Cl
ATOM     17  C   UNL     1       1.598   8.997  19.114  0.00  0.00    +0.000 A 
ATOM     18  N   UNL     1       2.101   7.989  18.358  0.00  0.00    +0.000 NA
ENDBRANCH   2  12
TORSDOF 1
ENDMDL
MODEL 7
REMARK VINA RESULT:      -6.4      3.210      5.476
REMARK  Name = 
REMARK  1 active torsions:
REMARK  status: ('A' for Active; 'I' for Inactive)
REMARK    1  A    between atoms: C_2  and  C_3
REMARK                            x       y       z     vdW  Elec       q    Type
REMARK                         _______ _______ _______ _____ _____    ______ ____
ROOT
ATOM      1  O   UNL     1       1.872   4.681  17.479  0.00  0.00    +0.000 OA
ATOM      2  C   UNL     1       2.683   5.455  17.988  0.00  0.00    +0.000 C 
ATOM      3  N   UNL     1       4.081   5.286  17.844  0.00  0.00    +0.000 N 
ATOM      4  C   UNL     1       4.465   4.126  17.013  0.00  0.00    +0.000 C 
ATOM      5  C   UNL     1       5.946   3.997  16.627  0.00  0.00    +0.000 C 
ATOM      6  C   UNL     1       6.811   4.493  17.706  0.00  0.00    +0.000 A 
ATOM      7  N   UNL     1       8.125   4.265  17.773  0.00  0.00    +0.000 NA
ATOM      8  O   UNL     1       8.550   4.952  18.906  0.00  0.00    +0.000 OA
ATOM      9  C   UNL     1       7.486   5.567  19.486  0.00  0.00    +0.000 A 
ATOM     10  C   UNL     1       6.349   5.300  18.757  0.00  0.00    +0.000 A 
ATOM     11  C   UNL     1       4.952   5.718  18.955  0.00  0.00    +0.000 C 
ENDROOT
BRANCH   2  12
ATOM     12  C   UNL     1       2.140   6.599  18.787  0.00  0.00    +0.000 A 
ATOM     13  C   UNL     1       2.029   7.852  18.188  0.00  0.00    +0.000 A 
ATOM     14  C   UNL     1       1.633   8.935  18.973  0.00  0.00    +0.000 A 
ATOM     15  C   UNL     1       1.382   8.734  20.326  0.00  0.00    +0.000 A 
ATOM     16 CL   UNL     1       0.944  10.047  21.339  0.00  0.00    +0.000 Cl
ATOM     17  C   UNL     1       1.509   7.451  20.839  0.00  0.00    +0.000 A 
ATOM     18  N   UNL     1       1.870   6.373  20.099  0.00  0.00    +0.000 NA
ENDBRANCH   2  12
TORSDOF 1
ENDMDL
MODEL 8
REMARK VINA RESULT:      -6.4      3.352      5.828
REMARK  Name = 
REMARK  1 active torsions:
REMARK  status: ('A' for Active; 'I' for Inactive)
REMARK    1  A    between atoms: C_2  and  C_3
REMARK                            x       y       z     vdW  Elec       q    Type
REMARK                         _______ _______ _______ _____ _____    ______ ____
ROOT
ATOM      1  O   UNL     1       1.902   4.788  18.909  0.00  0.00    +0.000 OA
ATOM      2  C   UNL     1       2.537   5.807  18.638  0.00  0.00    +0.000 C 
ATOM      3  N   UNL     1       3.662   5.789  17.779  0.00  0.00    +0.000 N 
ATOM      4  C   UNL     1       3.976   4.455  17.225  0.00  0.00    +0.000 C 
ATOM      5  C   UNL     1       5.040   4.385  16.119  0.00  0.00    +0.000 C 
ATOM      6  C   UNL     1       6.084   5.396  16.336  0.00  0.00    +0.000 A 
ATOM      7  N   UNL     1       7.261   5.400  15.705  0.00  0.00    +0.000 NA
ATOM      8  O   UNL     1       7.908   6.544  16.163  0.00  0.00    +0.000 OA
ATOM      9  C   UNL     1       7.109   7.189  17.052  0.00  0.00    +0.000 A 
ATOM     10  C   UNL     1       5.932   6.491  17.201  0.00  0.00    +0.000 A 
ATOM     11  C   UNL     1       4.748   6.755  18.034  0.00  0.00    +0.000 C 
ENDROOT
BRANCH   2  12
ATOM     12  C   UNL     1       2.085   7.091  19.261  0.00  0.00    +0.000 A 
ATOM     13  C   UNL     1       1.758   7.108  20.617  0.00  0.00    +0.000 A 
ATOM     14  C   UNL     1       1.228   8.278  21.161  0.00  0.00    +0.000 A 
ATOM     15  C   UNL     1       1.026   9.377  20.334  0.00  0.00    +0.000 A 
ATOM     16 CL   UNL     1       0.328  10.819  20.950  0.00  0.00    +0.000 Cl
ATOM     17  C   UNL     1       1.389   9.276  18.998  0.00  0.00    +0.000 A 
ATOM     18  N   UNL     1       1.927   8.162  18.443  0.00  0.00    +0.000 NA
ENDBRANCH   2  12
TORSDOF 1
ENDMDL
MODEL 9
REMARK VINA RESULT:      -6.4      3.955      5.072
REMARK  Name = 
REMARK  1 active torsions:
REMARK  status: ('A' for Active; 'I' for Inactive)
REMARK    1  A    between atoms: C_2  and  C_3
REMARK                            x       y       z     vdW  Elec       q    Type
REMARK                         _______ _______ _______ _____ _____    ______ ____
ROOT
ATOM      1  O   UNL     1       4.077   7.655  17.280  0.00  0.00    +0.000 OA
ATOM      2  C   UNL     1       3.230   7.145  18.014  0.00  0.00    +0.000 C 
ATOM      3  N   UNL     1       3.218   5.759  18.303  0.00  0.00    +0.000 N 
ATOM      4  C   UNL     1       4.319   5.002  17.671  0.00  0.00    +0.000 C 
ATOM      5  C   UNL     1       4.508   3.541  18.106  0.00  0.00    +0.000 C 
ATOM      6  C   UNL     1       3.213   2.914  18.403  0.00  0.00    +0.000 A 
ATOM      7  N   UNL     1       3.036   1.598  18.541  0.00  0.00    +0.000 NA
ATOM      8  O   UNL     1       1.691   1.451  18.866  0.00  0.00    +0.000 OA
ATOM      9  C   UNL     1       1.101   2.674  18.912  0.00  0.00    +0.000 A 
ATOM     10  C   UNL     1       2.033   3.643  18.618  0.00  0.00    +0.000 A 
ATOM     11  C   UNL     1       1.913   5.107  18.533  0.00  0.00    +0.000 C 
ENDROOT
BRANCH   2  12
ATOM     12  C   UNL     1       2.186   8.045  18.597  0.00  0.00    +0.000 A 
ATOM     13  C   UNL     1       1.566   8.986  17.776  0.00  0.00    +0.000 A 
ATOM     14  C   UNL     1       0.682   9.897  18.354  0.00  0.00    +0.000 A 
ATOM     15  C   UNL     1       0.462   9.850  19.726  0.00  0.00    +0.000 A 
ATOM     16 CL   UNL     1      -0.577  10.984  20.485  0.00  0.00    +0.000 Cl
ATOM     17  C   UNL     1       1.114   8.874  20.467  0.00  0.00    +0.000 A 
ATOM     18  N   UNL     1       1.963   7.960  19.934  0.00  0.00    +0.000 NA
ENDBRANCH   2  12
TORSDOF 1
ENDMDL
