MODEL 1
REMARK VINA RESULT:      -7.0      0.000      0.000
REMARK  Name = 
REMARK  15 active torsions:
REMARK  status: ('A' for Active; 'I' for Inactive)
REMARK    1  A    between atoms: C_1  and  C_2
REMARK    2  A    between atoms: C_2  and  C_3
REMARK    3  A    between atoms: C_3  and  O_4
REMARK    4  A    between atoms: O_4  and  P_5
REMARK    5  A    between atoms: P_5  and  C_7
REMARK    6  A    between atoms: P_5  and  C_16
REMARK    7  A    between atoms: C_10  and  N_11
REMARK    8  A    between atoms: N_11  and  C_12
REMARK    9  A    between atoms: N_11  and  C_13
REMARK   10  A    between atoms: C_16  and  O_17
REMARK   11  A    between atoms: C_16  and  C_18
REMARK   12  A    between atoms: C_20  and  O_21
REMARK   13  A    between atoms: O_21  and  C_22
REMARK   14  A    between atoms: C_25  and  O_26
REMARK   15  A    between atoms: O_26  and  C_27
REMARK                            x       y       z     vdW  Elec       q    Type
REMARK                         _______ _______ _______ _____ _____    ______ ____
ROOT
ATOM      1  P   UNL     1       3.272   6.010  18.756  0.00  0.00    +0.000 P 
ATOM      2  O   UNL     1       2.554   5.191  17.646  0.00  0.00    +0.000 OA
ENDROOT
BRANCH   1   3
ATOM      3  C   UNL     1       2.142   7.684  19.033  0.00  0.00    +0.000 A 
ATOM      4  C   UNL     1       1.714   8.047  20.317  0.00  0.00    +0.000 A 
ATOM      5  C   UNL     1       0.957   9.217  20.530  0.00  0.00    +0.000 A 
ATOM      6  C   UNL     1       0.518  10.060  19.490  0.00  0.00    +0.000 A 
ATOM      7  C   UNL     1       0.929   9.650  18.202  0.00  0.00    +0.000 A 
ATOM      8  C   UNL     1       1.726   8.492  17.964  0.00  0.00    +0.000 A 
BRANCH   6   9
ATOM      9  N   UNL     1      -0.229  11.212  19.719  0.00  0.00    +0.000 N 
ATOM     10  C   UNL     1      -1.499  11.485  19.049  0.00  0.00    +0.000 C 
ATOM     11  C   UNL     1       0.346  12.391  20.369  0.00  0.00    +0.000 C 
ENDBRANCH   6   9
ENDBRANCH   1   3
BRANCH   1  12
ATOM     12  O   UNL     1       2.322   5.315  20.024  0.00  0.00    +0.000 OA
BRANCH  12  13
ATOM     13  C   UNL     1       2.530   3.926  20.286  0.00  0.00    +0.000 C 
BRANCH  13  15
ATOM     14  C   UNL     1       0.773   2.569  19.076  0.00  0.00    +0.000 C 
ATOM     15  C   UNL     1       1.200   3.189  20.397  0.00  0.00    +0.000 C 
ENDBRANCH  13  15
ENDBRANCH  12  13
ENDBRANCH   1  12
BRANCH   1  16
ATOM     16  C   UNL     1       4.276   6.746  17.415  0.00  0.00    +0.000 C 
BRANCH  16  17
ATOM     17  C   UNL     1       5.093   5.549  16.855  0.00  0.00    +0.000 A 
ATOM     18  C   UNL     1       4.839   5.071  15.566  0.00  0.00    +0.000 A 
ATOM     19  C   UNL     1       5.785   4.307  14.874  0.00  0.00    +0.000 A 
ATOM     20  C   UNL     1       7.009   4.020  15.470  0.00  0.00    +0.000 A 
ATOM     21  C   UNL     1       7.252   4.405  16.790  0.00  0.00    +0.000 A 
ATOM     22  C   UNL     1       6.289   5.129  17.504  0.00  0.00    +0.000 A 
BRANCH  19  23
ATOM     23  O   UNL     1       5.443   3.971  13.594  0.00  0.00    +0.000 OA
ATOM     24  C   UNL     1       6.527   3.717  12.709  0.00  0.00    +0.000 C 
ENDBRANCH  19  23
BRANCH  22  25
ATOM     25  O   UNL     1       6.495   5.570  18.792  0.00  0.00    +0.000 OA
ATOM     26  C   UNL     1       7.850   5.850  19.172  0.00  0.00    +0.000 C 
ENDBRANCH  22  25
ENDBRANCH  16  17
BRANCH  16  27
ATOM     27  O   UNL     1       5.070   7.844  17.866  0.00  0.00    +0.000 OA
ATOM     28  H   UNL     1       4.873   8.550  17.215  0.00  0.00    +0.000 HD
ENDBRANCH  16  27
ENDBRANCH   1  16
TORSDOF 10
ENDMDL
MODEL 2
REMARK VINA RESULT:      -6.8      0.432      1.119
REMARK  Name = 
REMARK  15 active torsions:
REMARK  status: ('A' for Active; 'I' for Inactive)
REMARK    1  A    between atoms: C_1  and  C_2
REMARK    2  A    between atoms: C_2  and  C_3
REMARK    3  A    between atoms: C_3  and  O_4
REMARK    4  A    between atoms: O_4  and  P_5
REMARK    5  A    between atoms: P_5  and  C_7
REMARK    6  A    between atoms: P_5  and  C_16
REMARK    7  A    between atoms: C_10  and  N_11
REMARK    8  A    between atoms: N_11  and  C_12
REMARK    9  A    between atoms: N_11  and  C_13
REMARK   10  A    between atoms: C_16  and  O_17
REMARK   11  A    between atoms: C_16  and  C_18
REMARK   12  A    between atoms: C_20  and  O_21
REMARK   13  A    between atoms: O_21  and  C_22
REMARK   14  A    between atoms: C_25  and  O_26
REMARK   15  A    between atoms: O_26  and  C_27
REMARK                            x       y       z     vdW  Elec       q    Type
REMARK                         _______ _______ _______ _____ _____    ______ ____
ROOT
ATOM      1  P   UNL     1       3.230   5.875  18.687  0.00  0.00    +0.000 P 
ATOM      2  O   UNL     1       2.489   5.156  17.524  0.00  0.00    +0.000 OA
ENDROOT
BRANCH   1   3
ATOM      3  C   UNL     1       2.151   7.559  19.079  0.00  0.00    +0.000 A 
ATOM      4  C   UNL     1       1.823   8.448  18.047  0.00  0.00    +0.000 A 
ATOM      5  C   UNL     1       1.053   9.603  18.296  0.00  0.00    +0.000 A 
ATOM      6  C   UNL     1       0.619   9.987  19.580  0.00  0.00    +0.000 A 
ATOM      7  C   UNL     1       0.997   9.094  20.608  0.00  0.00    +0.000 A 
ATOM      8  C   UNL     1       1.743   7.902  20.377  0.00  0.00    +0.000 A 
BRANCH   6   9
ATOM      9  N   UNL     1      -0.141  11.130  19.807  0.00  0.00    +0.000 N 
ATOM     10  C   UNL     1      -1.498  11.301  19.291  0.00  0.00    +0.000 C 
ATOM     11  C   UNL     1       0.461  12.381  20.271  0.00  0.00    +0.000 C 
ENDBRANCH   6   9
ENDBRANCH   1   3
BRANCH   1  12
ATOM     12  O   UNL     1       2.258   5.123  19.905  0.00  0.00    +0.000 OA
BRANCH  12  13
ATOM     13  C   UNL     1       1.375   4.089  19.467  0.00  0.00    +0.000 C 
BRANCH  13  15
ATOM     14  C   UNL     1       1.847   3.001  21.700  0.00  0.00    +0.000 C 
ATOM     15  C   UNL     1       1.656   2.786  20.206  0.00  0.00    +0.000 C 
ENDBRANCH  13  15
ENDBRANCH  12  13
ENDBRANCH   1  12
BRANCH   1  16
ATOM     16  C   UNL     1       4.257   6.670  17.399  0.00  0.00    +0.000 C 
BRANCH  16  17
ATOM     17  C   UNL     1       5.089   5.499  16.804  0.00  0.00    +0.000 A 
ATOM     18  C   UNL     1       4.822   5.039  15.510  0.00  0.00    +0.000 A 
ATOM     19  C   UNL     1       5.771   4.306  14.790  0.00  0.00    +0.000 A 
ATOM     20  C   UNL     1       7.010   4.034  15.359  0.00  0.00    +0.000 A 
ATOM     21  C   UNL     1       7.268   4.401  16.682  0.00  0.00    +0.000 A 
ATOM     22  C   UNL     1       6.304   5.092  17.425  0.00  0.00    +0.000 A 
BRANCH  19  23
ATOM     23  O   UNL     1       5.413   3.985  13.509  0.00  0.00    +0.000 OA
ATOM     24  C   UNL     1       6.479   3.622  12.640  0.00  0.00    +0.000 C 
ENDBRANCH  19  23
BRANCH  22  25
ATOM     25  O   UNL     1       6.524   5.515  18.716  0.00  0.00    +0.000 OA
ATOM     26  C   UNL     1       7.857   5.933  19.044  0.00  0.00    +0.000 C 
ENDBRANCH  22  25
ENDBRANCH  16  17
BRANCH  16  27
ATOM     27  O   UNL     1       5.040   7.749  17.911  0.00  0.00    +0.000 OA
ATOM     28  H   UNL     1       5.777   7.297  18.373  0.00  0.00    +0.000 HD
ENDBRANCH  16  27
ENDBRANCH   1  16
TORSDOF 10
ENDMDL
MODEL 3
REMARK VINA RESULT:      -6.6      3.338      6.537
REMARK  Name = 
REMARK  15 active torsions:
REMARK  status: ('A' for Active; 'I' for Inactive)
REMARK    1  A    between atoms: C_1  and  C_2
REMARK    2  A    between atoms: C_2  and  C_3
REMARK    3  A    between atoms: C_3  and  O_4
REMARK    4  A    between atoms: O_4  and  P_5
REMARK    5  A    between atoms: P_5  and  C_7
REMARK    6  A    between atoms: P_5  and  C_16
REMARK    7  A    between atoms: C_10  and  N_11
REMARK    8  A    between atoms: N_11  and  C_12
REMARK    9  A    between atoms: N_11  and  C_13
REMARK   10  A    between atoms: C_16  and  O_17
REMARK   11  A    between atoms: C_16  and  C_18
REMARK   12  A    between atoms: C_20  and  O_21
REMARK   13  A    between atoms: O_21  and  C_22
REMARK   14  A    between atoms: C_25  and  O_26
REMARK   15  A    between atoms: O_26  and  C_27
REMARK                            x       y       z     vdW  Elec       q    Type
REMARK                         _______ _______ _______ _____ _____    ______ ____
ROOT
ATOM      1  P   UNL     1       6.823   5.188  17.120  0.00  0.00    +0.000 P 
ATOM      2  O   UNL     1       7.976   4.166  17.332  0.00  0.00    +0.000 OA
ENDROOT
BRANCH   1   3
ATOM      3  C   UNL     1       7.559   6.991  17.722  0.00  0.00    +0.000 A 
ATOM      4  C   UNL     1       7.178   8.168  17.063  0.00  0.00    +0.000 A 
ATOM      5  C   UNL     1       7.654   9.427  17.485  0.00  0.00    +0.000 A 
ATOM      6  C   UNL     1       8.583   9.597  18.531  0.00  0.00    +0.000 A 
ATOM      7  C   UNL     1       8.980   8.391  19.152  0.00  0.00    +0.000 A 
ATOM      8  C   UNL     1       8.485   7.111  18.769  0.00  0.00    +0.000 A 
BRANCH   6   9
ATOM      9  N   UNL     1       9.042  10.848  18.934  0.00  0.00    +0.000 N 
ATOM     10  C   UNL     1       9.356  11.172  20.324  0.00  0.00    +0.000 C 
ATOM     11  C   UNL     1       8.918  12.029  18.080  0.00  0.00    +0.000 C 
ENDBRANCH   6   9
ENDBRANCH   1   3
BRANCH   1  12
ATOM     12  O   UNL     1       7.373   5.634  15.542  0.00  0.00    +0.000 OA
BRANCH  12  13
ATOM     13  C   UNL     1       7.124   4.698  14.492  0.00  0.00    +0.000 C 
BRANCH  13  15
ATOM     14  C   UNL     1       5.269   3.723  13.077  0.00  0.00    +0.000 C 
ATOM     15  C   UNL     1       5.640   4.359  14.408  0.00  0.00    +0.000 C 
ENDBRANCH  13  15
ENDBRANCH  12  13
ENDBRANCH   1  12
BRANCH   1  16
ATOM     16  C   UNL     1       6.241   4.717  18.790  0.00  0.00    +0.000 C 
BRANCH  16  17
ATOM     17  C   UNL     1       4.714   5.005  18.752  0.00  0.00    +0.000 A 
ATOM     18  C   UNL     1       4.253   6.299  18.490  0.00  0.00    +0.000 A 
ATOM     19  C   UNL     1       2.948   6.528  18.041  0.00  0.00    +0.000 A 
ATOM     20  C   UNL     1       2.089   5.453  17.839  0.00  0.00    +0.000 A 
ATOM     21  C   UNL     1       2.493   4.161  18.181  0.00  0.00    +0.000 A 
ATOM     22  C   UNL     1       3.782   3.931  18.677  0.00  0.00    +0.000 A 
BRANCH  19  23
ATOM     23  O   UNL     1       2.651   7.831  17.748  0.00  0.00    +0.000 OA
ATOM     24  C   UNL     1       1.867   8.520  18.713  0.00  0.00    +0.000 C 
ENDBRANCH  19  23
BRANCH  22  25
ATOM     25  O   UNL     1       4.245   2.672  18.987  0.00  0.00    +0.000 OA
ATOM     26  C   UNL     1       3.435   1.562  18.571  0.00  0.00    +0.000 C 
ENDBRANCH  22  25
ENDBRANCH  16  17
BRANCH  16  27
ATOM     27  O   UNL     1       6.945   5.399  19.828  0.00  0.00    +0.000 OA
ATOM     28  H   UNL     1       7.504   4.698  20.223  0.00  0.00    +0.000 HD
ENDBRANCH  16  27
ENDBRANCH   1  16
TORSDOF 10
ENDMDL
MODEL 4
REMARK VINA RESULT:      -6.6      0.659      1.353
REMARK  Name = 
REMARK  15 active torsions:
REMARK  status: ('A' for Active; 'I' for Inactive)
REMARK    1  A    between atoms: C_1  and  C_2
REMARK    2  A    between atoms: C_2  and  C_3
REMARK    3  A    between atoms: C_3  and  O_4
REMARK    4  A    between atoms: O_4  and  P_5
REMARK    5  A    between atoms: P_5  and  C_7
REMARK    6  A    between atoms: P_5  and  C_16
REMARK    7  A    between atoms: C_10  and  N_11
REMARK    8  A    between atoms: N_11  and  C_12
REMARK    9  A    between atoms: N_11  and  C_13
REMARK   10  A    between atoms: C_16  and  O_17
REMARK   11  A    between atoms: C_16  and  C_18
REMARK   12  A    between atoms: C_20  and  O_21
REMARK   13  A    between atoms: O_21  and  C_22
REMARK   14  A    between atoms: C_25  and  O_26
REMARK   15  A    between atoms: O_26  and  C_27
REMARK                            x       y       z     vdW  Elec       q    Type
REMARK                         _______ _______ _______ _____ _____    ______ ____
ROOT
ATOM      1  P   UNL     1       3.235   5.864  18.768  0.00  0.00    +0.000 P 
ATOM      2  O   UNL     1       2.466   5.137  17.629  0.00  0.00    +0.000 OA
ENDROOT
BRANCH   1   3
ATOM      3  C   UNL     1       2.144   7.529  19.204  0.00  0.00    +0.000 A 
ATOM      4  C   UNL     1       1.783   8.426  18.191  0.00  0.00    +0.000 A 
ATOM      5  C   UNL     1       1.004   9.568  18.470  0.00  0.00    +0.000 A 
ATOM      6  C   UNL     1       0.593   9.930  19.769  0.00  0.00    +0.000 A 
ATOM      7  C   UNL     1       1.005   9.030  20.777  0.00  0.00    +0.000 A 
ATOM      8  C   UNL     1       1.761   7.851  20.515  0.00  0.00    +0.000 A 
BRANCH   6   9
ATOM      9  N   UNL     1      -0.176  11.062  20.026  0.00  0.00    +0.000 N 
ATOM     10  C   UNL     1      -0.054  11.847  21.253  0.00  0.00    +0.000 C 
ATOM     11  C   UNL     1      -1.394  11.357  19.271  0.00  0.00    +0.000 C 
ENDBRANCH   6   9
ENDBRANCH   1   3
BRANCH   1  12
ATOM     12  O   UNL     1       2.318   5.092  20.016  0.00  0.00    +0.000 OA
BRANCH  12  13
ATOM     13  C   UNL     1       2.066   3.696  19.850  0.00  0.00    +0.000 C 
BRANCH  13  15
ATOM     14  C   UNL     1       3.527   1.900  18.835  0.00  0.00    +0.000 C 
ATOM     15  C   UNL     1       3.354   2.892  19.976  0.00  0.00    +0.000 C 
ENDBRANCH  13  15
ENDBRANCH  12  13
ENDBRANCH   1  12
BRANCH   1  16
ATOM     16  C   UNL     1       4.205   6.679  17.448  0.00  0.00    +0.000 C 
BRANCH  16  17
ATOM     17  C   UNL     1       5.046   5.527  16.831  0.00  0.00    +0.000 A 
ATOM     18  C   UNL     1       4.771   5.076  15.536  0.00  0.00    +0.000 A 
ATOM     19  C   UNL     1       5.722   4.365  14.797  0.00  0.00    +0.000 A 
ATOM     20  C   UNL     1       6.972   4.106  15.349  0.00  0.00    +0.000 A 
ATOM     21  C   UNL     1       7.240   4.463  16.672  0.00  0.00    +0.000 A 
ATOM     22  C   UNL     1       6.275   5.133  17.434  0.00  0.00    +0.000 A 
BRANCH  19  23
ATOM     23  O   UNL     1       5.353   4.052  13.518  0.00  0.00    +0.000 OA
ATOM     24  C   UNL     1       6.362   3.458  12.710  0.00  0.00    +0.000 C 
ENDBRANCH  19  23
BRANCH  22  25
ATOM     25  O   UNL     1       6.504   5.546  18.727  0.00  0.00    +0.000 OA
ATOM     26  C   UNL     1       7.853   5.897  19.066  0.00  0.00    +0.000 C 
ENDBRANCH  22  25
ENDBRANCH  16  17
BRANCH  16  27
ATOM     27  O   UNL     1       4.975   7.778  17.935  0.00  0.00    +0.000 OA
ATOM     28  H   UNL     1       4.403   8.554  17.761  0.00  0.00    +0.000 HD
ENDBRANCH  16  27
ENDBRANCH   1  16
TORSDOF 10
ENDMDL
MODEL 5
REMARK VINA RESULT:      -6.4      0.919      1.162
REMARK  Name = 
REMARK  15 active torsions:
REMARK  status: ('A' for Active; 'I' for Inactive)
REMARK    1  A    between atoms: C_1  and  C_2
REMARK    2  A    between atoms: C_2  and  C_3
REMARK    3  A    between atoms: C_3  and  O_4
REMARK    4  A    between atoms: O_4  and  P_5
REMARK    5  A    between atoms: P_5  and  C_7
REMARK    6  A    between atoms: P_5  and  C_16
REMARK    7  A    between atoms: C_10  and  N_11
REMARK    8  A    between atoms: N_11  and  C_12
REMARK    9  A    between atoms: N_11  and  C_13
REMARK   10  A    between atoms: C_16  and  O_17
REMARK   11  A    between atoms: C_16  and  C_18
REMARK   12  A    between atoms: C_20  and  O_21
REMARK   13  A    between atoms: O_21  and  C_22
REMARK   14  A    between atoms: C_25  and  O_26
REMARK   15  A    between atoms: O_26  and  C_27
REMARK                            x       y       z     vdW  Elec       q    Type
REMARK                         _______ _______ _______ _____ _____    ______ ____
ROOT
ATOM      1  P   UNL     1       3.594   5.690  18.412  0.00  0.00    +0.000 P 
ATOM      2  O   UNL     1       2.792   4.983  17.283  0.00  0.00    +0.000 OA
ENDROOT
BRANCH   1   3
ATOM      3  C   UNL     1       2.436   7.250  19.026  0.00  0.00    +0.000 A 
ATOM      4  C   UNL     1       2.040   7.355  20.366  0.00  0.00    +0.000 A 
ATOM      5  C   UNL     1       1.263   8.443  20.814  0.00  0.00    +0.000 A 
ATOM      6  C   UNL     1       0.774   9.453  19.962  0.00  0.00    +0.000 A 
ATOM      7  C   UNL     1       1.154   9.302  18.609  0.00  0.00    +0.000 A 
ATOM      8  C   UNL     1       1.969   8.231  18.139  0.00  0.00    +0.000 A 
BRANCH   6   9
ATOM      9  N   UNL     1       0.008  10.521  20.422  0.00  0.00    +0.000 N 
ATOM     10  C   UNL     1      -0.415  10.656  21.815  0.00  0.00    +0.000 C 
ATOM     11  C   UNL     1      -0.724  11.398  19.509  0.00  0.00    +0.000 C 
ENDBRANCH   6   9
ENDBRANCH   1   3
BRANCH   1  12
ATOM     12  O   UNL     1       2.820   4.786  19.667  0.00  0.00    +0.000 OA
BRANCH  12  13
ATOM     13  C   UNL     1       2.021   3.677  19.253  0.00  0.00    +0.000 C 
BRANCH  13  15
ATOM     14  C   UNL     1       2.099   3.406  21.765  0.00  0.00    +0.000 C 
ATOM     15  C   UNL     1       1.642   2.806  20.444  0.00  0.00    +0.000 C 
ENDBRANCH  13  15
ENDBRANCH  12  13
ENDBRANCH   1  12
BRANCH   1  16
ATOM     16  C   UNL     1       4.414   6.646  17.084  0.00  0.00    +0.000 C 
BRANCH  16  17
ATOM     17  C   UNL     1       5.316   5.602  16.369  0.00  0.00    +0.000 A 
ATOM     18  C   UNL     1       4.846   4.929  15.237  0.00  0.00    +0.000 A 
ATOM     19  C   UNL     1       5.724   4.317  14.337  0.00  0.00    +0.000 A 
ATOM     20  C   UNL     1       7.096   4.382  14.560  0.00  0.00    +0.000 A 
ATOM     21  C   UNL     1       7.588   4.966  15.730  0.00  0.00    +0.000 A 
ATOM     22  C   UNL     1       6.709   5.538  16.658  0.00  0.00    +0.000 A 
BRANCH  19  23
ATOM     23  O   UNL     1       5.139   3.763  13.233  0.00  0.00    +0.000 OA
ATOM     24  C   UNL     1       6.030   3.274  12.238  0.00  0.00    +0.000 C 
ENDBRANCH  19  23
BRANCH  22  25
ATOM     25  O   UNL     1       7.145   6.165  17.804  0.00  0.00    +0.000 OA
ATOM     26  C   UNL     1       7.622   5.322  18.863  0.00  0.00    +0.000 C 
ENDBRANCH  22  25
ENDBRANCH  16  17
BRANCH  16  27
ATOM     27  O   UNL     1       5.113   7.787  17.583  0.00  0.00    +0.000 OA
ATOM     28  H   UNL     1       5.013   8.447  16.866  0.00  0.00    +0.000 HD
ENDBRANCH  16  27
ENDBRANCH   1  16
TORSDOF 10
ENDMDL
MODEL 6
REMARK VINA RESULT:      -6.4      1.011      1.556
REMARK  Name = 
REMARK  15 active torsions:
REMARK  status: ('A' for Active; 'I' for Inactive)
REMARK    1  A    between atoms: C_1  and  C_2
REMARK    2  A    between atoms: C_2  and  C_3
REMARK    3  A    between atoms: C_3  and  O_4
REMARK    4  A    between atoms: O_4  and  P_5
REMARK    5  A    between atoms: P_5  and  C_7
REMARK    6  A    between atoms: P_5  and  C_16
REMARK    7  A    between atoms: C_10  and  N_11
REMARK    8  A    between atoms: N_11  and  C_12
REMARK    9  A    between atoms: N_11  and  C_13
REMARK   10  A    between atoms: C_16  and  O_17
REMARK   11  A    between atoms: C_16  and  C_18
REMARK   12  A    between atoms: C_20  and  O_21
REMARK   13  A    between atoms: O_21  and  C_22
REMARK   14  A    between atoms: C_25  and  O_26
REMARK   15  A    between atoms: O_26  and  C_27
REMARK                            x       y       z     vdW  Elec       q    Type
REMARK                         _______ _______ _______ _____ _____    ______ ____
ROOT
ATOM      1  P   UNL     1       3.879   5.758  18.379  0.00  0.00    +0.000 P 
ATOM      2  O   UNL     1       3.143   4.916  17.299  0.00  0.00    +0.000 OA
ENDROOT
BRANCH   1   3
ATOM      3  C   UNL     1       2.595   7.256  18.892  0.00  0.00    +0.000 A 
ATOM      4  C   UNL     1       2.199   8.207  17.943  0.00  0.00    +0.000 A 
ATOM      5  C   UNL     1       1.288   9.232  18.273  0.00  0.00    +0.000 A 
ATOM      6  C   UNL     1       0.768   9.422  19.568  0.00  0.00    +0.000 A 
ATOM      7  C   UNL     1       1.213   8.473  20.515  0.00  0.00    +0.000 A 
ATOM      8  C   UNL     1       2.104   7.407  20.198  0.00  0.00    +0.000 A 
BRANCH   6   9
ATOM      9  N   UNL     1      -0.131  10.440  19.875  0.00  0.00    +0.000 N 
ATOM     10  C   UNL     1      -0.135  11.139  21.159  0.00  0.00    +0.000 C 
ATOM     11  C   UNL     1      -1.351  10.656  19.097  0.00  0.00    +0.000 C 
ENDBRANCH   6   9
ENDBRANCH   1   3
BRANCH   1  12
ATOM     12  O   UNL     1       3.174   4.878  19.691  0.00  0.00    +0.000 OA
BRANCH  12  13
ATOM     13  C   UNL     1       2.749   3.544  19.407  0.00  0.00    +0.000 C 
BRANCH  13  15
ATOM     14  C   UNL     1       1.581   3.161  21.616  0.00  0.00    +0.000 C 
ATOM     15  C   UNL     1       2.692   2.709  20.681  0.00  0.00    +0.000 C 
ENDBRANCH  13  15
ENDBRANCH  12  13
ENDBRANCH   1  12
BRANCH   1  16
ATOM     16  C   UNL     1       4.625   6.690  16.992  0.00  0.00    +0.000 C 
BRANCH  16  17
ATOM     17  C   UNL     1       5.448   5.622  16.220  0.00  0.00    +0.000 A 
ATOM     18  C   UNL     1       4.876   4.945  15.138  0.00  0.00    +0.000 A 
ATOM     19  C   UNL     1       5.668   4.307  14.178  0.00  0.00    +0.000 A 
ATOM     20  C   UNL     1       7.054   4.351  14.288  0.00  0.00    +0.000 A 
ATOM     21  C   UNL     1       7.649   4.938  15.406  0.00  0.00    +0.000 A 
ATOM     22  C   UNL     1       6.859   5.536  16.395  0.00  0.00    +0.000 A 
BRANCH  19  23
ATOM     23  O   UNL     1       4.985   3.751  13.132  0.00  0.00    +0.000 OA
ATOM     24  C   UNL     1       5.782   3.122  12.136  0.00  0.00    +0.000 C 
ENDBRANCH  19  23
BRANCH  22  25
ATOM     25  O   UNL     1       7.396   6.168  17.495  0.00  0.00    +0.000 OA
ATOM     26  C   UNL     1       7.706   5.345  18.629  0.00  0.00    +0.000 C 
ENDBRANCH  22  25
ENDBRANCH  16  17
BRANCH  16  27
ATOM     27  O   UNL     1       5.385   7.815  17.434  0.00  0.00    +0.000 OA
ATOM     28  H   UNL     1       4.841   8.581  17.156  0.00  0.00    +0.000 HD
ENDBRANCH  16  27
ENDBRANCH   1  16
TORSDOF 10
ENDMDL
MODEL 7
REMARK VINA RESULT:      -6.3      4.269      9.385
REMARK  Name = 
REMARK  15 active torsions:
REMARK  status: ('A' for Active; 'I' for Inactive)
REMARK    1  A    between atoms: C_1  and  C_2
REMARK    2  A    between atoms: C_2  and  C_3
REMARK    3  A    between atoms: C_3  and  O_4
REMARK    4  A    between atoms: O_4  and  P_5
REMARK    5  A    between atoms: P_5  and  C_7
REMARK    6  A    between atoms: P_5  and  C_16
REMARK    7  A    between atoms: C_10  and  N_11
REMARK    8  A    between atoms: N_11  and  C_12
REMARK    9  A    between atoms: N_11  and  C_13
REMARK   10  A    between atoms: C_16  and  O_17
REMARK   11  A    between atoms: C_16  and  C_18
REMARK   12  A    between atoms: C_20  and  O_21
REMARK   13  A    between atoms: O_21  and  C_22
REMARK   14  A    between atoms: C_25  and  O_26
REMARK   15  A    between atoms: O_26  and  C_27
REMARK                            x       y       z     vdW  Elec       q    Type
REMARK                         _______ _______ _______ _____ _____    ______ ____
ROOT
ATOM      1  P   UNL     1      -0.116  10.921  19.065  0.00  0.00    +0.000 P 
ATOM      2  O   UNL     1      -1.216  10.463  20.063  0.00  0.00    +0.000 OA
ENDROOT
BRANCH   1   3
ATOM      3  C   UNL     1       1.174   9.352  18.897  0.00  0.00    +0.000 A 
ATOM      4  C   UNL     1       1.929   9.176  17.730  0.00  0.00    +0.000 A 
ATOM      5  C   UNL     1       2.848   8.113  17.609  0.00  0.00    +0.000 A 
ATOM      6  C   UNL     1       3.027   7.123  18.596  0.00  0.00    +0.000 A 
ATOM      7  C   UNL     1       2.224   7.302  19.745  0.00  0.00    +0.000 A 
ATOM      8  C   UNL     1       1.316   8.389  19.907  0.00  0.00    +0.000 A 
BRANCH   6   9
ATOM      9  N   UNL     1       3.939   6.081  18.459  0.00  0.00    +0.000 N 
ATOM     10  C   UNL     1       4.532   5.703  17.176  0.00  0.00    +0.000 C 
ATOM     11  C   UNL     1       4.114   5.064  19.496  0.00  0.00    +0.000 C 
ENDBRANCH   6   9
ENDBRANCH   1   3
BRANCH   1  12
ATOM     12  O   UNL     1      -0.927  10.235  17.699  0.00  0.00    +0.000 OA
BRANCH  12  13
ATOM     13  C   UNL     1      -2.342  10.073  17.815  0.00  0.00    +0.000 C 
BRANCH  13  15
ATOM     14  C   UNL     1      -2.824  10.308  15.345  0.00  0.00    +0.000 C 
ATOM     15  C   UNL     1      -3.070  10.868  16.737  0.00  0.00    +0.000 C 
ENDBRANCH  13  15
ENDBRANCH  12  13
ENDBRANCH   1  12
BRANCH   1  16
ATOM     16  C   UNL     1       0.743  11.647  20.509  0.00  0.00    +0.000 C 
BRANCH  16  17
ATOM     17  C   UNL     1      -0.406  12.235  21.374  0.00  0.00    +0.000 A 
ATOM     18  C   UNL     1      -1.259  13.206  20.839  0.00  0.00    +0.000 A 
ATOM     19  C   UNL     1      -2.517  13.455  21.396  0.00  0.00    +0.000 A 
ATOM     20  C   UNL     1      -2.941  12.720  22.499  0.00  0.00    +0.000 A 
ATOM     21  C   UNL     1      -2.075  11.812  23.109  0.00  0.00    +0.000 A 
ATOM     22  C   UNL     1      -0.795  11.593  22.585  0.00  0.00    +0.000 A 
BRANCH  19  23
ATOM     23  O   UNL     1      -3.281  14.373  20.729  0.00  0.00    +0.000 OA
ATOM     24  C   UNL     1      -4.374  14.916  21.458  0.00  0.00    +0.000 C 
ENDBRANCH  19  23
BRANCH  22  25
ATOM     25  O   UNL     1       0.081  10.676  23.121  0.00  0.00    +0.000 OA
ATOM     26  C   UNL     1      -0.367   9.315  23.194  0.00  0.00    +0.000 C 
ENDBRANCH  22  25
ENDBRANCH  16  17
BRANCH  16  27
ATOM     27  O   UNL     1       1.743  12.594  20.132  0.00  0.00    +0.000 OA
ATOM     28  H   UNL     1       1.286  13.157  19.472  0.00  0.00    +0.000 HD
ENDBRANCH  16  27
ENDBRANCH   1  16
TORSDOF 10
ENDMDL
MODEL 8
REMARK VINA RESULT:      -6.3      4.324      9.062
REMARK  Name = 
REMARK  15 active torsions:
REMARK  status: ('A' for Active; 'I' for Inactive)
REMARK    1  A    between atoms: C_1  and  C_2
REMARK    2  A    between atoms: C_2  and  C_3
REMARK    3  A    between atoms: C_3  and  O_4
REMARK    4  A    between atoms: O_4  and  P_5
REMARK    5  A    between atoms: P_5  and  C_7
REMARK    6  A    between atoms: P_5  and  C_16
REMARK    7  A    between atoms: C_10  and  N_11
REMARK    8  A    between atoms: N_11  and  C_12
REMARK    9  A    between atoms: N_11  and  C_13
REMARK   10  A    between atoms: C_16  and  O_17
REMARK   11  A    between atoms: C_16  and  C_18
REMARK   12  A    between atoms: C_20  and  O_21
REMARK   13  A    between atoms: O_21  and  C_22
REMARK   14  A    between atoms: C_25  and  O_26
REMARK   15  A    between atoms: O_26  and  C_27
REMARK                            x       y       z     vdW  Elec       q    Type
REMARK                         _______ _______ _______ _____ _____    ______ ____
ROOT
ATOM      1  P   UNL     1       0.282  11.564  19.007  0.00  0.00    +0.000 P 
ATOM      2  O   UNL     1       0.341  12.119  20.458  0.00  0.00    +0.000 OA
ENDROOT
BRANCH   1   3
ATOM      3  C   UNL     1       1.144   9.719  19.079  0.00  0.00    +0.000 A 
ATOM      4  C   UNL     1       1.583   9.095  17.904  0.00  0.00    +0.000 A 
ATOM      5  C   UNL     1       2.208   7.831  17.939  0.00  0.00    +0.000 A 
ATOM      6  C   UNL     1       2.376   7.079  19.119  0.00  0.00    +0.000 A 
ATOM      7  C   UNL     1       1.889   7.714  20.283  0.00  0.00    +0.000 A 
ATOM      8  C   UNL     1       1.287   9.006  20.279  0.00  0.00    +0.000 A 
BRANCH   6   9
ATOM      9  N   UNL     1       2.996   5.832  19.135  0.00  0.00    +0.000 N 
ATOM     10  C   UNL     1       3.576   5.215  17.943  0.00  0.00    +0.000 C 
ATOM     11  C   UNL     1       2.816   4.892  20.241  0.00  0.00    +0.000 C 
ENDBRANCH   6   9
ENDBRANCH   1   3
BRANCH   1  12
ATOM     12  O   UNL     1      -1.213  10.736  19.277  0.00  0.00    +0.000 OA
BRANCH  12  13
ATOM     13  C   UNL     1      -2.267  11.004  18.350  0.00  0.00    +0.000 C 
BRANCH  13  15
ATOM     14  C   UNL     1      -2.589  10.339  15.933  0.00  0.00    +0.000 C 
ATOM     15  C   UNL     1      -2.430   9.853  17.365  0.00  0.00    +0.000 C 
ENDBRANCH  13  15
ENDBRANCH  12  13
ENDBRANCH   1  12
BRANCH   1  16
ATOM     16  C   UNL     1       1.863  12.440  18.721  0.00  0.00    +0.000 C 
BRANCH  16  17
ATOM     17  C   UNL     1       1.459  13.940  18.672  0.00  0.00    +0.000 A 
ATOM     18  C   UNL     1       0.167  14.329  19.041  0.00  0.00    +0.000 A 
ATOM     19  C   UNL     1      -0.117  15.648  19.410  0.00  0.00    +0.000 A 
ATOM     20  C   UNL     1       0.901  16.595  19.424  0.00  0.00    +0.000 A 
ATOM     21  C   UNL     1       2.178  16.257  18.972  0.00  0.00    +0.000 A 
ATOM     22  C   UNL     1       2.457  14.949  18.555  0.00  0.00    +0.000 A 
BRANCH  19  23
ATOM     23  O   UNL     1      -1.401  15.876  19.823  0.00  0.00    +0.000 OA
ATOM     24  C   UNL     1      -1.936  14.924  20.735  0.00  0.00    +0.000 C 
ENDBRANCH  19  23
BRANCH  22  25
ATOM     25  O   UNL     1       3.709  14.552  18.142  0.00  0.00    +0.000 OA
ATOM     26  C   UNL     1       4.745  15.545  18.168  0.00  0.00    +0.000 C 
ENDBRANCH  22  25
ENDBRANCH  16  17
BRANCH  16  27
ATOM     27  O   UNL     1       2.543  11.974  17.555  0.00  0.00    +0.000 OA
ATOM     28  H   UNL     1       2.900  12.794  17.156  0.00  0.00    +0.000 HD
ENDBRANCH  16  27
ENDBRANCH   1  16
TORSDOF 10
ENDMDL
MODEL 9
REMARK VINA RESULT:      -6.3      6.612      9.637
REMARK  Name = 
REMARK  15 active torsions:
REMARK  status: ('A' for Active; 'I' for Inactive)
REMARK    1  A    between atoms: C_1  and  C_2
REMARK    2  A    between atoms: C_2  and  C_3
REMARK    3  A    between atoms: C_3  and  O_4
REMARK    4  A    between atoms: O_4  and  P_5
REMARK    5  A    between atoms: P_5  and  C_7
REMARK    6  A    between atoms: P_5  and  C_16
REMARK    7  A    between atoms: C_10  and  N_11
REMARK    8  A    between atoms: N_11  and  C_12
REMARK    9  A    between atoms: N_11  and  C_13
REMARK   10  A    between atoms: C_16  and  O_17
REMARK   11  A    between atoms: C_16  and  C_18
REMARK   12  A    between atoms: C_20  and  O_21
REMARK   13  A    between atoms: O_21  and  C_22
REMARK   14  A    between atoms: C_25  and  O_26
REMARK   15  A    between atoms: O_26  and  C_27
REMARK                            x       y       z     vdW  Elec       q    Type
REMARK                         _______ _______ _______ _____ _____    ______ ____
ROOT
ATOM      1  P   UNL     1      -0.350  11.230  19.192  0.00  0.00    +0.000 P 
ATOM      2  O   UNL     1      -1.206  11.337  20.486  0.00  0.00    +0.000 OA
ENDROOT
BRANCH   1   3
ATOM      3  C   UNL     1       1.216  12.509  19.451  0.00  0.00    +0.000 A 
ATOM      4  C   UNL     1       2.072  12.806  18.383  0.00  0.00    +0.000 A 
ATOM      5  C   UNL     1       3.143  13.711  18.536  0.00  0.00    +0.000 A 
ATOM      6  C   UNL     1       3.475  14.322  19.762  0.00  0.00    +0.000 A 
ATOM      7  C   UNL     1       2.619  13.974  20.831  0.00  0.00    +0.000 A 
ATOM      8  C   UNL     1       1.509  13.091  20.693  0.00  0.00    +0.000 A 
BRANCH   6   9
ATOM      9  N   UNL     1       4.536  15.214  19.894  0.00  0.00    +0.000 N 
ATOM     10  C   UNL     1       4.816  16.270  18.923  0.00  0.00    +0.000 C 
ATOM     11  C   UNL     1       5.650  14.961  20.809  0.00  0.00    +0.000 C 
ENDBRANCH   6   9
ENDBRANCH   1   3
BRANCH   1  12
ATOM     12  O   UNL     1       0.691  10.022  19.861  0.00  0.00    +0.000 OA
BRANCH  12  13
ATOM     13  C   UNL     1       0.113   9.150  20.835  0.00  0.00    +0.000 C 
BRANCH  13  15
ATOM     14  C   UNL     1       0.031   9.545  23.330  0.00  0.00    +0.000 C 
ATOM     15  C   UNL     1       0.904   9.189  22.137  0.00  0.00    +0.000 C 
ENDBRANCH  13  15
ENDBRANCH  12  13
ENDBRANCH   1  12
BRANCH   1  16
ATOM     16  C   UNL     1      -1.452  12.508  18.485  0.00  0.00    +0.000 C 
BRANCH  16  17
ATOM     17  C   UNL     1      -2.857  11.842  18.494  0.00  0.00    +0.000 A 
ATOM     18  C   UNL     1      -3.788  12.187  19.478  0.00  0.00    +0.000 A 
ATOM     19  C   UNL     1      -5.155  11.951  19.299  0.00  0.00    +0.000 A 
ATOM     20  C   UNL     1      -5.607  11.372  18.118  0.00  0.00    +0.000 A 
ATOM     21  C   UNL     1      -4.691  10.933  17.160  0.00  0.00    +0.000 A 
ATOM     22  C   UNL     1      -3.318  11.122  17.355  0.00  0.00    +0.000 A 
BRANCH  19  23
ATOM     23  O   UNL     1      -5.964  12.408  20.303  0.00  0.00    +0.000 OA
ATOM     24  C   UNL     1      -7.277  12.791  19.916  0.00  0.00    +0.000 C 
ENDBRANCH  19  23
BRANCH  22  25
ATOM     25  O   UNL     1      -2.377  10.748  16.422  0.00  0.00    +0.000 OA
ATOM     26  C   UNL     1      -2.861  10.384  15.121  0.00  0.00    +0.000 C 
ENDBRANCH  22  25
ENDBRANCH  16  17
BRANCH  16  27
ATOM     27  O   UNL     1      -1.018  12.954  17.200  0.00  0.00    +0.000 OA
ATOM     28  H   UNL     1      -0.636  12.148  16.795  0.00  0.00    +0.000 HD
ENDBRANCH  16  27
ENDBRANCH   1  16
TORSDOF 10
ENDMDL
