MODEL 1
REMARK VINA RESULT:      -7.5      0.000      0.000
REMARK  Name = 
REMARK  5 active torsions:
REMARK  status: ('A' for Active; 'I' for Inactive)
REMARK    1  A    between atoms: C_1  and  O_2
REMARK    2  A    between atoms: O_2  and  C_3
REMARK    3  A    between atoms: C_6  and  C_7
REMARK    4  A    between atoms: C_11  and  C_12
REMARK    5  A    between atoms: C_13  and  C_14
REMARK                            x       y       z     vdW  Elec       q    Type
REMARK                         _______ _______ _______ _____ _____    ______ ____
ROOT
ATOM      1  C   UNL     1       2.801   4.571  17.648  0.00  0.00    +0.000 A 
ATOM      2  C   UNL     1       3.543   3.504  17.126  0.00  0.00    +0.000 A 
ATOM      3  C   UNL     1       4.884   3.649  16.799  0.00  0.00    +0.000 A 
ATOM      4  C   UNL     1       5.525   4.870  16.985  0.00  0.00    +0.000 A 
ATOM      5  C   UNL     1       4.801   5.940  17.549  0.00  0.00    +0.000 A 
ATOM      6  C   UNL     1       3.441   5.806  17.906  0.00  0.00    +0.000 A 
ENDROOT
BRANCH   4   7
ATOM      7  C   UNL     1       6.946   5.081  16.600  0.00  0.00    +0.000 C 
ATOM      8  N   UNL     1       7.914   4.328  17.209  0.00  0.00    +0.000 N 
ATOM      9  O   UNL     1       7.258   5.897  15.753  0.00  0.00    +0.000 OA
ATOM     10  H   UNL     1       7.761   3.608  17.897  0.00  0.00    +0.000 HD
ATOM     11  H   UNL     1       8.866   4.496  16.909  0.00  0.00    +0.000 HD
ENDBRANCH   4   7
BRANCH   1  13
ATOM     12  C   UNL     1       1.123   3.645  19.048  0.00  0.00    +0.000 C 
ATOM     13  O   UNL     1       1.456   4.438  17.907  0.00  0.00    +0.000 OA
ENDBRANCH   1  13
BRANCH   6  14
ATOM     14  C   UNL     1       2.741   7.026  18.375  0.00  0.00    +0.000 C 
ATOM     15  C   UNL     1       2.382   7.251  19.650  0.00  0.00    +0.000 C 
BRANCH  15  16
ATOM     16  C   UNL     1       1.430   8.286  20.090  0.00  0.00    +0.000 A 
ATOM     17  C   UNL     1       1.176   9.349  19.207  0.00  0.00    +0.000 A 
ATOM     18  C   UNL     1       0.348  10.413  19.577  0.00  0.00    +0.000 A 
ATOM     19  C   UNL     1      -0.251  10.413  20.832  0.00  0.00    +0.000 A 
ATOM     20 CL   UNL     1      -1.282  11.713  21.287  0.00  0.00    +0.000 Cl
ATOM     21  C   UNL     1      -0.017   9.368  21.722  0.00  0.00    +0.000 A 
ATOM     22  C   UNL     1       0.817   8.306  21.351  0.00  0.00    +0.000 A 
ENDBRANCH  15  16
ENDBRANCH   6  14
TORSDOF 4
ENDMDL
MODEL 2
REMARK VINA RESULT:      -7.4      1.895      3.583
REMARK  Name = 
REMARK  5 active torsions:
REMARK  status: ('A' for Active; 'I' for Inactive)
REMARK    1  A    between atoms: C_1  and  O_2
REMARK    2  A    between atoms: O_2  and  C_3
REMARK    3  A    between atoms: C_6  and  C_7
REMARK    4  A    between atoms: C_11  and  C_12
REMARK    5  A    between atoms: C_13  and  C_14
REMARK                            x       y       z     vdW  Elec       q    Type
REMARK                         _______ _______ _______ _____ _____    ______ ____
ROOT
ATOM      1  C   UNL     1       4.106   6.101  17.460  0.00  0.00    +0.000 A 
ATOM      2  C   UNL     1       4.528   4.858  16.973  0.00  0.00    +0.000 A 
ATOM      3  C   UNL     1       3.793   3.704  17.205  0.00  0.00    +0.000 A 
ATOM      4  C   UNL     1       2.609   3.759  17.934  0.00  0.00    +0.000 A 
ATOM      5  C   UNL     1       2.150   5.011  18.394  0.00  0.00    +0.000 A 
ATOM      6  C   UNL     1       2.875   6.199  18.150  0.00  0.00    +0.000 A 
ENDROOT
BRANCH   4   7
ATOM      7  C   UNL     1       1.819   2.539  18.249  0.00  0.00    +0.000 C 
ATOM      8  N   UNL     1       2.478   1.354  18.433  0.00  0.00    +0.000 N 
ATOM      9  O   UNL     1       0.607   2.580  18.355  0.00  0.00    +0.000 OA
ATOM     10  H   UNL     1       3.477   1.218  18.398  0.00  0.00    +0.000 HD
ATOM     11  H   UNL     1       1.904   0.552  18.657  0.00  0.00    +0.000 HD
ENDBRANCH   4   7
BRANCH   1  13
ATOM     12  C   UNL     1       6.281   7.005  17.170  0.00  0.00    +0.000 C 
ATOM     13  O   UNL     1       4.874   7.229  17.283  0.00  0.00    +0.000 OA
ENDBRANCH   1  13
BRANCH   6  14
ATOM     14  C   UNL     1       2.370   7.440  18.783  0.00  0.00    +0.000 C 
ATOM     15  C   UNL     1       2.002   7.540  20.072  0.00  0.00    +0.000 C 
BRANCH  15  16
ATOM     16  C   UNL     1       1.219   8.648  20.645  0.00  0.00    +0.000 A 
ATOM     17  C   UNL     1       1.036   8.658  22.038  0.00  0.00    +0.000 A 
ATOM     18  C   UNL     1       0.241   9.629  22.654  0.00  0.00    +0.000 A 
ATOM     19  C   UNL     1      -0.366  10.613  21.881  0.00  0.00    +0.000 A 
ATOM     20 CL   UNL     1      -1.333  11.818  22.636  0.00  0.00    +0.000 Cl
ATOM     21  C   UNL     1      -0.195  10.625  20.499  0.00  0.00    +0.000 A 
ATOM     22  C   UNL     1       0.598   9.648  19.884  0.00  0.00    +0.000 A 
ENDBRANCH  15  16
ENDBRANCH   6  14
TORSDOF 4
ENDMDL
MODEL 3
REMARK VINA RESULT:      -7.4      0.154      1.086
REMARK  Name = 
REMARK  5 active torsions:
REMARK  status: ('A' for Active; 'I' for Inactive)
REMARK    1  A    between atoms: C_1  and  O_2
REMARK    2  A    between atoms: O_2  and  C_3
REMARK    3  A    between atoms: C_6  and  C_7
REMARK    4  A    between atoms: C_11  and  C_12
REMARK    5  A    between atoms: C_13  and  C_14
REMARK                            x       y       z     vdW  Elec       q    Type
REMARK                         _______ _______ _______ _____ _____    ______ ____
ROOT
ATOM      1  C   UNL     1       2.848   4.704  17.673  0.00  0.00    +0.000 A 
ATOM      2  C   UNL     1       3.529   3.607  17.132  0.00  0.00    +0.000 A 
ATOM      3  C   UNL     1       4.864   3.695  16.766  0.00  0.00    +0.000 A 
ATOM      4  C   UNL     1       5.561   4.888  16.930  0.00  0.00    +0.000 A 
ATOM      5  C   UNL     1       4.899   5.989  17.513  0.00  0.00    +0.000 A 
ATOM      6  C   UNL     1       3.546   5.911  17.910  0.00  0.00    +0.000 A 
ENDROOT
BRANCH   4   7
ATOM      7  C   UNL     1       6.978   5.039  16.504  0.00  0.00    +0.000 C 
ATOM      8  N   UNL     1       7.941   4.302  17.139  0.00  0.00    +0.000 N 
ATOM      9  O   UNL     1       7.290   5.793  15.601  0.00  0.00    +0.000 OA
ATOM     10  H   UNL     1       7.786   3.629  17.874  0.00  0.00    +0.000 HD
ATOM     11  H   UNL     1       8.890   4.426  16.809  0.00  0.00    +0.000 HD
ENDBRANCH   4   7
BRANCH   1  13
ATOM     12  C   UNL     1       1.141   3.625  18.921  0.00  0.00    +0.000 C 
ATOM     13  O   UNL     1       1.506   4.628  17.971  0.00  0.00    +0.000 OA
ENDBRANCH   1  13
BRANCH   6  14
ATOM     14  C   UNL     1       2.912   7.160  18.395  0.00  0.00    +0.000 C 
ATOM     15  C   UNL     1       2.391   7.318  19.624  0.00  0.00    +0.000 C 
BRANCH  15  16
ATOM     16  C   UNL     1       1.495   8.415  20.029  0.00  0.00    +0.000 A 
ATOM     17  C   UNL     1       0.990   8.388  21.339  0.00  0.00    +0.000 A 
ATOM     18  C   UNL     1       0.072   9.346  21.780  0.00  0.00    +0.000 A 
ATOM     19  C   UNL     1      -0.337  10.355  20.913  0.00  0.00    +0.000 A 
ATOM     20 CL   UNL     1      -1.456  11.544  21.454  0.00  0.00    +0.000 Cl
ATOM     21  C   UNL     1       0.153  10.403  19.611  0.00  0.00    +0.000 A 
ATOM     22  C   UNL     1       1.069   9.440  19.172  0.00  0.00    +0.000 A 
ENDBRANCH  15  16
ENDBRANCH   6  14
TORSDOF 4
ENDMDL
MODEL 4
REMARK VINA RESULT:      -7.3      1.047      1.466
REMARK  Name = 
REMARK  5 active torsions:
REMARK  status: ('A' for Active; 'I' for Inactive)
REMARK    1  A    between atoms: C_1  and  O_2
REMARK    2  A    between atoms: O_2  and  C_3
REMARK    3  A    between atoms: C_6  and  C_7
REMARK    4  A    between atoms: C_11  and  C_12
REMARK    5  A    between atoms: C_13  and  C_14
REMARK                            x       y       z     vdW  Elec       q    Type
REMARK                         _______ _______ _______ _____ _____    ______ ____
ROOT
ATOM      1  C   UNL     1       3.044   4.244  17.790  0.00  0.00    +0.000 A 
ATOM      2  C   UNL     1       3.990   3.559  17.018  0.00  0.00    +0.000 A 
ATOM      3  C   UNL     1       5.169   4.169  16.613  0.00  0.00    +0.000 A 
ATOM      4  C   UNL     1       5.438   5.487  16.969  0.00  0.00    +0.000 A 
ATOM      5  C   UNL     1       4.513   6.174  17.781  0.00  0.00    +0.000 A 
ATOM      6  C   UNL     1       3.317   5.564  18.220  0.00  0.00    +0.000 A 
ENDROOT
BRANCH   4   7
ATOM      7  C   UNL     1       6.664   6.193  16.513  0.00  0.00    +0.000 C 
ATOM      8  N   UNL     1       7.466   5.590  15.581  0.00  0.00    +0.000 N 
ATOM      9  O   UNL     1       6.958   7.293  16.941  0.00  0.00    +0.000 OA
ATOM     10  H   UNL     1       7.299   4.698  15.141  0.00  0.00    +0.000 HD
ATOM     11  H   UNL     1       8.284   6.110  15.290  0.00  0.00    +0.000 HD
ENDBRANCH   4   7
BRANCH   1  13
ATOM     12  C   UNL     1       1.903   2.248  18.380  0.00  0.00    +0.000 C 
ATOM     13  O   UNL     1       1.848   3.655  18.131  0.00  0.00    +0.000 OA
ENDBRANCH   1  13
BRANCH   6  14
ATOM     14  C   UNL     1       2.358   6.414  18.965  0.00  0.00    +0.000 C 
ATOM     15  C   UNL     1       2.245   7.744  18.810  0.00  0.00    +0.000 C 
BRANCH  15  16
ATOM     16  C   UNL     1       1.537   8.646  19.735  0.00  0.00    +0.000 A 
ATOM     17  C   UNL     1       1.360   8.207  21.058  0.00  0.00    +0.000 A 
ATOM     18  C   UNL     1       0.632   8.965  21.980  0.00  0.00    +0.000 A 
ATOM     19  C   UNL     1       0.087  10.184  21.588  0.00  0.00    +0.000 A 
ATOM     20 CL   UNL     1      -0.798  11.127  22.722  0.00  0.00    +0.000 Cl
ATOM     21  C   UNL     1       0.253  10.641  20.284  0.00  0.00    +0.000 A 
ATOM     22  C   UNL     1       0.979   9.877  19.362  0.00  0.00    +0.000 A 
ENDBRANCH  15  16
ENDBRANCH   6  14
TORSDOF 4
ENDMDL
MODEL 5
REMARK VINA RESULT:      -7.3      1.016      1.022
REMARK  Name = 
REMARK  5 active torsions:
REMARK  status: ('A' for Active; 'I' for Inactive)
REMARK    1  A    between atoms: C_1  and  O_2
REMARK    2  A    between atoms: O_2  and  C_3
REMARK    3  A    between atoms: C_6  and  C_7
REMARK    4  A    between atoms: C_11  and  C_12
REMARK    5  A    between atoms: C_13  and  C_14
REMARK                            x       y       z     vdW  Elec       q    Type
REMARK                         _______ _______ _______ _____ _____    ______ ____
ROOT
ATOM      1  C   UNL     1       3.074   4.123  17.314  0.00  0.00    +0.000 A 
ATOM      2  C   UNL     1       4.062   3.443  16.593  0.00  0.00    +0.000 A 
ATOM      3  C   UNL     1       5.283   4.035  16.305  0.00  0.00    +0.000 A 
ATOM      4  C   UNL     1       5.553   5.332  16.732  0.00  0.00    +0.000 A 
ATOM      5  C   UNL     1       4.583   6.013  17.495  0.00  0.00    +0.000 A 
ATOM      6  C   UNL     1       3.342   5.418  17.815  0.00  0.00    +0.000 A 
ENDROOT
BRANCH   4   7
ATOM      7  C   UNL     1       6.828   6.022  16.401  0.00  0.00    +0.000 C 
ATOM      8  N   UNL     1       7.175   7.143  17.106  0.00  0.00    +0.000 N 
ATOM      9  O   UNL     1       7.567   5.603  15.529  0.00  0.00    +0.000 OA
ATOM     10  H   UNL     1       6.652   7.553  17.864  0.00  0.00    +0.000 HD
ATOM     11  H   UNL     1       8.056   7.574  16.857  0.00  0.00    +0.000 HD
ENDBRANCH   4   7
BRANCH   1  13
ATOM     12  C   UNL     1       1.827   2.450  18.447  0.00  0.00    +0.000 C 
ATOM     13  O   UNL     1       1.841   3.553  17.538  0.00  0.00    +0.000 OA
ENDBRANCH   1  13
BRANCH   6  14
ATOM     14  C   UNL     1       2.347   6.265  18.514  0.00  0.00    +0.000 C 
ATOM     15  C   UNL     1       2.417   7.605  18.600  0.00  0.00    +0.000 C 
BRANCH  15  16
ATOM     16  C   UNL     1       1.634   8.435  19.531  0.00  0.00    +0.000 A 
ATOM     17  C   UNL     1       1.156   9.667  19.054  0.00  0.00    +0.000 A 
ATOM     18  C   UNL     1       0.471  10.550  19.893  0.00  0.00    +0.000 A 
ATOM     19  C   UNL     1       0.242  10.199  21.220  0.00  0.00    +0.000 A 
ATOM     20 CL   UNL     1      -0.612  11.277  22.254  0.00  0.00    +0.000 Cl
ATOM     21  C   UNL     1       0.703   8.982  21.713  0.00  0.00    +0.000 A 
ATOM     22  C   UNL     1       1.392   8.101  20.871  0.00  0.00    +0.000 A 
ENDBRANCH  15  16
ENDBRANCH   6  14
TORSDOF 4
ENDMDL
MODEL 6
REMARK VINA RESULT:      -7.2      1.863      3.397
REMARK  Name = 
REMARK  5 active torsions:
REMARK  status: ('A' for Active; 'I' for Inactive)
REMARK    1  A    between atoms: C_1  and  O_2
REMARK    2  A    between atoms: O_2  and  C_3
REMARK    3  A    between atoms: C_6  and  C_7
REMARK    4  A    between atoms: C_11  and  C_12
REMARK    5  A    between atoms: C_13  and  C_14
REMARK                            x       y       z     vdW  Elec       q    Type
REMARK                         _______ _______ _______ _____ _____    ______ ____
ROOT
ATOM      1  C   UNL     1       4.170   6.109  17.441  0.00  0.00    +0.000 A 
ATOM      2  C   UNL     1       4.563   4.876  16.906  0.00  0.00    +0.000 A 
ATOM      3  C   UNL     1       3.828   3.722  17.136  0.00  0.00    +0.000 A 
ATOM      4  C   UNL     1       2.673   3.766  17.910  0.00  0.00    +0.000 A 
ATOM      5  C   UNL     1       2.243   5.009  18.420  0.00  0.00    +0.000 A 
ATOM      6  C   UNL     1       2.967   6.197  18.180  0.00  0.00    +0.000 A 
ENDROOT
BRANCH   4   7
ATOM      7  C   UNL     1       1.886   2.544  18.223  0.00  0.00    +0.000 C 
ATOM      8  N   UNL     1       2.549   1.365  18.433  0.00  0.00    +0.000 N 
ATOM      9  O   UNL     1       0.672   2.577  18.305  0.00  0.00    +0.000 OA
ATOM     10  H   UNL     1       3.549   1.236  18.418  0.00  0.00    +0.000 HD
ATOM     11  H   UNL     1       1.976   0.562  18.654  0.00  0.00    +0.000 HD
ENDBRANCH   4   7
BRANCH   1  13
ATOM     12  C   UNL     1       6.343   7.006  17.117  0.00  0.00    +0.000 C 
ATOM     13  O   UNL     1       4.940   7.235  17.264  0.00  0.00    +0.000 OA
ENDBRANCH   1  13
BRANCH   6  14
ATOM     14  C   UNL     1       2.497   7.425  18.864  0.00  0.00    +0.000 C 
ATOM     15  C   UNL     1       1.934   7.445  20.084  0.00  0.00    +0.000 C 
BRANCH  15  16
ATOM     16  C   UNL     1       1.187   8.581  20.652  0.00  0.00    +0.000 A 
ATOM     17  C   UNL     1       0.753   9.579  19.765  0.00  0.00    +0.000 A 
ATOM     18  C   UNL     1       0.107  10.728  20.229  0.00  0.00    +0.000 A 
ATOM     19  C   UNL     1      -0.128  10.880  21.592  0.00  0.00    +0.000 A 
ATOM     20 CL   UNL     1      -0.936  12.286  22.168  0.00  0.00    +0.000 Cl
ATOM     21  C   UNL     1       0.289   9.901  22.490  0.00  0.00    +0.000 A 
ATOM     22  C   UNL     1       0.940   8.754  22.022  0.00  0.00    +0.000 A 
ENDBRANCH  15  16
ENDBRANCH   6  14
TORSDOF 4
ENDMDL
MODEL 7
REMARK VINA RESULT:      -7.2      4.753      5.955
REMARK  Name = 
REMARK  5 active torsions:
REMARK  status: ('A' for Active; 'I' for Inactive)
REMARK    1  A    between atoms: C_1  and  O_2
REMARK    2  A    between atoms: O_2  and  C_3
REMARK    3  A    between atoms: C_6  and  C_7
REMARK    4  A    between atoms: C_11  and  C_12
REMARK    5  A    between atoms: C_13  and  C_14
REMARK                            x       y       z     vdW  Elec       q    Type
REMARK                         _______ _______ _______ _____ _____    ______ ____
ROOT
ATOM      1  C   UNL     1       6.955   5.018  15.684  0.00  0.00    +0.000 A 
ATOM      2  C   UNL     1       7.567   5.299  14.456  0.00  0.00    +0.000 A 
ATOM      3  C   UNL     1       7.145   4.690  13.284  0.00  0.00    +0.000 A 
ATOM      4  C   UNL     1       6.095   3.777  13.304  0.00  0.00    +0.000 A 
ATOM      5  C   UNL     1       5.443   3.517  14.527  0.00  0.00    +0.000 A 
ATOM      6  C   UNL     1       5.845   4.142  15.727  0.00  0.00    +0.000 A 
ENDROOT
BRANCH   4   7
ATOM      7  C   UNL     1       5.646   3.064  12.078  0.00  0.00    +0.000 C 
ATOM      8  N   UNL     1       6.389   2.011  11.616  0.00  0.00    +0.000 N 
ATOM      9  O   UNL     1       4.631   3.391  11.492  0.00  0.00    +0.000 OA
ATOM     10  H   UNL     1       7.224   1.642  12.043  0.00  0.00    +0.000 HD
ATOM     11  H   UNL     1       6.041   1.547  10.788  0.00  0.00    +0.000 HD
ENDBRANCH   4   7
BRANCH   1  13
ATOM     12  C   UNL     1       6.870   6.849  17.192  0.00  0.00    +0.000 C 
ATOM     13  O   UNL     1       7.423   5.576  16.852  0.00  0.00    +0.000 OA
ENDBRANCH   1  13
BRANCH   6  14
ATOM     14  C   UNL     1       5.175   3.706  16.975  0.00  0.00    +0.000 C 
ATOM     15  C   UNL     1       3.865   3.423  17.073  0.00  0.00    +0.000 C 
BRANCH  15  16
ATOM     16  C   UNL     1       3.121   3.291  18.338  0.00  0.00    +0.000 A 
ATOM     17  C   UNL     1       3.841   2.884  19.473  0.00  0.00    +0.000 A 
ATOM     18  C   UNL     1       3.199   2.658  20.694  0.00  0.00    +0.000 A 
ATOM     19  C   UNL     1       1.825   2.855  20.794  0.00  0.00    +0.000 A 
ATOM     20 CL   UNL     1       1.032   2.592  22.297  0.00  0.00    +0.000 Cl
ATOM     21  C   UNL     1       1.091   3.262  19.683  0.00  0.00    +0.000 A 
ATOM     22  C   UNL     1       1.737   3.483  18.460  0.00  0.00    +0.000 A 
ENDBRANCH  15  16
ENDBRANCH   6  14
TORSDOF 4
ENDMDL
MODEL 8
REMARK VINA RESULT:      -7.2      1.702      2.054
REMARK  Name = 
REMARK  5 active torsions:
REMARK  status: ('A' for Active; 'I' for Inactive)
REMARK    1  A    between atoms: C_1  and  O_2
REMARK    2  A    between atoms: O_2  and  C_3
REMARK    3  A    between atoms: C_6  and  C_7
REMARK    4  A    between atoms: C_11  and  C_12
REMARK    5  A    between atoms: C_13  and  C_14
REMARK                            x       y       z     vdW  Elec       q    Type
REMARK                         _______ _______ _______ _____ _____    ______ ____
ROOT
ATOM      1  C   UNL     1       2.916   5.041  17.929  0.00  0.00    +0.000 A 
ATOM      2  C   UNL     1       3.821   4.071  17.480  0.00  0.00    +0.000 A 
ATOM      3  C   UNL     1       5.081   4.419  17.017  0.00  0.00    +0.000 A 
ATOM      4  C   UNL     1       5.476   5.753  16.986  0.00  0.00    +0.000 A 
ATOM      5  C   UNL     1       4.590   6.736  17.474  0.00  0.00    +0.000 A 
ATOM      6  C   UNL     1       3.311   6.398  17.969  0.00  0.00    +0.000 A 
ENDROOT
BRANCH   4   7
ATOM      7  C   UNL     1       6.798   6.173  16.449  0.00  0.00    +0.000 C 
ATOM      8  N   UNL     1       7.401   5.396  15.497  0.00  0.00    +0.000 N 
ATOM      9  O   UNL     1       7.341   7.193  16.831  0.00  0.00    +0.000 OA
ATOM     10  H   UNL     1       7.024   4.553  15.092  0.00  0.00    +0.000 HD
ATOM     11  H   UNL     1       8.293   5.724  15.150  0.00  0.00    +0.000 HD
ENDBRANCH   4   7
BRANCH   1  13
ATOM     12  C   UNL     1       1.568   3.771  19.414  0.00  0.00    +0.000 C 
ATOM     13  O   UNL     1       1.645   4.694  18.325  0.00  0.00    +0.000 OA
ENDBRANCH   1  13
BRANCH   6  14
ATOM     14  C   UNL     1       2.414   7.518  18.341  0.00  0.00    +0.000 C 
ATOM     15  C   UNL     1       2.239   8.627  17.603  0.00  0.00    +0.000 C 
BRANCH  15  16
ATOM     16  C   UNL     1       1.609   9.870  18.081  0.00  0.00    +0.000 A 
ATOM     17  C   UNL     1       0.233   9.833  18.359  0.00  0.00    +0.000 A 
ATOM     18  C   UNL     1      -0.458  10.987  18.742  0.00  0.00    +0.000 A 
ATOM     19  C   UNL     1       0.229  12.190  18.867  0.00  0.00    +0.000 A 
ATOM     20 CL   UNL     1      -0.613  13.609  19.350  0.00  0.00    +0.000 Cl
ATOM     21  C   UNL     1       1.595  12.249  18.600  0.00  0.00    +0.000 A 
ATOM     22  C   UNL     1       2.283  11.093  18.213  0.00  0.00    +0.000 A 
ENDBRANCH  15  16
ENDBRANCH   6  14
TORSDOF 4
ENDMDL
MODEL 9
REMARK VINA RESULT:      -7.1      1.138      1.752
REMARK  Name = 
REMARK  5 active torsions:
REMARK  status: ('A' for Active; 'I' for Inactive)
REMARK    1  A    between atoms: C_1  and  O_2
REMARK    2  A    between atoms: O_2  and  C_3
REMARK    3  A    between atoms: C_6  and  C_7
REMARK    4  A    between atoms: C_11  and  C_12
REMARK    5  A    between atoms: C_13  and  C_14
REMARK                            x       y       z     vdW  Elec       q    Type
REMARK                         _______ _______ _______ _____ _____    ______ ____
ROOT
ATOM      1  C   UNL     1       2.945   4.540  17.677  0.00  0.00    +0.000 A 
ATOM      2  C   UNL     1       3.818   3.586  17.139  0.00  0.00    +0.000 A 
ATOM      3  C   UNL     1       5.093   3.932  16.716  0.00  0.00    +0.000 A 
ATOM      4  C   UNL     1       5.536   5.248  16.818  0.00  0.00    +0.000 A 
ATOM      5  C   UNL     1       4.682   6.210  17.396  0.00  0.00    +0.000 A 
ATOM      6  C   UNL     1       3.388   5.872  17.851  0.00  0.00    +0.000 A 
ENDROOT
BRANCH   4   7
ATOM      7  C   UNL     1       6.875   5.670  16.329  0.00  0.00    +0.000 C 
ATOM      8  N   UNL     1       7.435   6.811  16.839  0.00  0.00    +0.000 N 
ATOM      9  O   UNL     1       7.481   5.017  15.500  0.00  0.00    +0.000 OA
ATOM     10  H   UNL     1       7.033   7.404  17.548  0.00  0.00    +0.000 HD
ATOM     11  H   UNL     1       8.352   7.054  16.488  0.00  0.00    +0.000 HD
ENDBRANCH   4   7
BRANCH   1  13
ATOM     12  C   UNL     1       1.455   2.830  18.375  0.00  0.00    +0.000 C 
ATOM     13  O   UNL     1       1.659   4.202  18.033  0.00  0.00    +0.000 OA
ENDBRANCH   1  13
BRANCH   6  14
ATOM     14  C   UNL     1       2.528   6.982  18.328  0.00  0.00    +0.000 C 
ATOM     15  C   UNL     1       2.551   8.228  17.825  0.00  0.00    +0.000 C 
BRANCH  15  16
ATOM     16  C   UNL     1       1.948   9.409  18.467  0.00  0.00    +0.000 A 
ATOM     17  C   UNL     1       1.099   9.187  19.563  0.00  0.00    +0.000 A 
ATOM     18  C   UNL     1       0.424  10.245  20.180  0.00  0.00    +0.000 A 
ATOM     19  C   UNL     1       0.609  11.543  19.715  0.00  0.00    +0.000 A 
ATOM     20 CL   UNL     1      -0.207  12.850  20.479  0.00  0.00    +0.000 Cl
ATOM     21  C   UNL     1       1.450  11.787  18.632  0.00  0.00    +0.000 A 
ATOM     22  C   UNL     1       2.121  10.725  18.013  0.00  0.00    +0.000 A 
ENDBRANCH  15  16
ENDBRANCH   6  14
TORSDOF 4
ENDMDL
