MODEL 1
REMARK VINA RESULT:      -7.8      0.000      0.000
REMARK  Name = 
REMARK  10 active torsions:
REMARK  status: ('A' for Active; 'I' for Inactive)
REMARK    1  A    between atoms: C_1  and  C_2
REMARK    2  A    between atoms: C_2  and  O_3
REMARK    3  A    between atoms: O_3  and  P_4
REMARK    4  A    between atoms: P_4  and  C_6
REMARK    5  A    between atoms: P_4  and  O_25
REMARK    6  A    between atoms: C_6  and  C_7
REMARK    7  A    between atoms: C_10  and  C_11
REMARK    8  A    between atoms: C_13  and  O_14
REMARK    9  A    between atoms: O_25  and  C_26
REMARK   10  A    between atoms: C_26  and  C_27
REMARK                            x       y       z     vdW  Elec       q    Type
REMARK                         _______ _______ _______ _____ _____    ______ ____
ROOT
ATOM      1  C   UNL     1       4.394   5.588  17.764  0.00  0.00    +0.000 A 
ATOM      2  C   UNL     1       3.677   5.396  18.950  0.00  0.00    +0.000 A 
ATOM      3  C   UNL     1       2.811   6.393  19.445  0.00  0.00    +0.000 A 
ATOM      4  C   UNL     1       2.622   7.624  18.784  0.00  0.00    +0.000 A 
ATOM      5  C   UNL     1       3.327   7.785  17.577  0.00  0.00    +0.000 A 
ATOM      6  C   UNL     1       4.195   6.791  17.076  0.00  0.00    +0.000 A 
ENDROOT
BRANCH   4   7
ATOM      7  C   UNL     1       1.797   8.719  19.376  0.00  0.00    +0.000 A 
ATOM      8  N   UNL     1       1.266   9.620  18.536  0.00  0.00    +0.000 NA
ATOM      9  C   UNL     1       0.331  10.424  19.065  0.00  0.00    +0.000 A 
ATOM     10  C   UNL     1      -0.117  10.392  20.373  0.00  0.00    +0.000 A 
ATOM     11  C   UNL     1      -1.190  11.152  20.904  0.00  0.00    +0.000 A 
ATOM     12  F   UNL     1      -1.960  11.901  20.103  0.00  0.00    +0.000 F 
ATOM     13  C   UNL     1      -1.498  11.116  22.256  0.00  0.00    +0.000 A 
ATOM     14  C   UNL     1      -0.715  10.337  23.098  0.00  0.00    +0.000 A 
ATOM     15  C   UNL     1       0.312   9.552  22.560  0.00  0.00    +0.000 A 
ATOM     16  C   UNL     1       0.603   9.526  21.195  0.00  0.00    +0.000 A 
ATOM     17  N   UNL     1       1.542   8.692  20.702  0.00  0.00    +0.000 NA
BRANCH   9  18
ATOM     18  O   UNL     1      -0.120  11.366  18.191  0.00  0.00    +0.000 OA
ATOM     19  H   UNL     1      -0.117  10.868  17.357  0.00  0.00    +0.000 HD
ENDBRANCH   9  18
ENDBRANCH   4   7
BRANCH   1  20
ATOM     20  C   UNL     1       5.447   4.587  17.312  0.00  0.00    +0.000 C 
BRANCH  20  21
ATOM     21  P   UNL     1       7.272   5.175  17.062  0.00  0.00    +0.000 P 
ATOM     22  O   UNL     1       8.165   4.075  17.651  0.00  0.00    +0.000 OA
BRANCH  21  23
ATOM     23  O   UNL     1       7.216   5.958  18.604  0.00  0.00    +0.000 OA
BRANCH  23  25
ATOM     24  C   UNL     1       7.730   8.050  17.552  0.00  0.00    +0.000 C 
ATOM     25  C   UNL     1       8.087   7.079  18.654  0.00  0.00    +0.000 C 
ENDBRANCH  23  25
ENDBRANCH  21  23
BRANCH  21  26
ATOM     26  O   UNL     1       7.326   4.392  15.520  0.00  0.00    +0.000 OA
BRANCH  26  27
ATOM     27  C   UNL     1       6.046   3.907  15.134  0.00  0.00    +0.000 C 
ATOM     28  C   UNL     1       5.948   3.875  13.626  0.00  0.00    +0.000 C 
ENDBRANCH  26  27
ENDBRANCH  21  26
ENDBRANCH  20  21
ENDBRANCH   1  20
TORSDOF 8
ENDMDL
MODEL 2
REMARK VINA RESULT:      -7.7      1.497      2.237
REMARK  Name = 
REMARK  10 active torsions:
REMARK  status: ('A' for Active; 'I' for Inactive)
REMARK    1  A    between atoms: C_1  and  C_2
REMARK    2  A    between atoms: C_2  and  O_3
REMARK    3  A    between atoms: O_3  and  P_4
REMARK    4  A    between atoms: P_4  and  C_6
REMARK    5  A    between atoms: P_4  and  O_25
REMARK    6  A    between atoms: C_6  and  C_7
REMARK    7  A    between atoms: C_10  and  C_11
REMARK    8  A    between atoms: C_13  and  O_14
REMARK    9  A    between atoms: O_25  and  C_26
REMARK   10  A    between atoms: C_26  and  C_27
REMARK                            x       y       z     vdW  Elec       q    Type
REMARK                         _______ _______ _______ _____ _____    ______ ____
ROOT
ATOM      1  C   UNL     1       4.113   6.085  17.891  0.00  0.00    +0.000 A 
ATOM      2  C   UNL     1       3.773   7.347  17.391  0.00  0.00    +0.000 A 
ATOM      3  C   UNL     1       2.848   8.171  18.065  0.00  0.00    +0.000 A 
ATOM      4  C   UNL     1       2.220   7.776  19.264  0.00  0.00    +0.000 A 
ATOM      5  C   UNL     1       2.600   6.518  19.768  0.00  0.00    +0.000 A 
ATOM      6  C   UNL     1       3.525   5.689  19.098  0.00  0.00    +0.000 A 
ENDROOT
BRANCH   4   7
ATOM      7  C   UNL     1       1.155   8.602  19.906  0.00  0.00    +0.000 A 
ATOM      8  N   UNL     1       0.879   8.364  21.198  0.00  0.00    +0.000 NA
ATOM      9  C   UNL     1       0.115   9.285  21.804  0.00  0.00    +0.000 A 
ATOM     10  C   UNL     1      -0.391  10.431  21.218  0.00  0.00    +0.000 A 
ATOM     11  C   UNL     1      -1.092  11.467  21.886  0.00  0.00    +0.000 A 
ATOM     12  F   UNL     1      -1.211  11.464  23.221  0.00  0.00    +0.000 F 
ATOM     13  C   UNL     1      -1.642  12.530  21.186  0.00  0.00    +0.000 A 
ATOM     14  C   UNL     1      -1.519  12.554  19.802  0.00  0.00    +0.000 A 
ATOM     15  C   UNL     1      -0.785  11.553  19.155  0.00  0.00    +0.000 A 
ATOM     16  C   UNL     1      -0.172  10.505  19.844  0.00  0.00    +0.000 A 
ATOM     17  N   UNL     1       0.600   9.607  19.196  0.00  0.00    +0.000 NA
BRANCH   9  18
ATOM     18  O   UNL     1      -0.196   8.958  23.090  0.00  0.00    +0.000 OA
ATOM     19  H   UNL     1      -0.016   9.796  23.548  0.00  0.00    +0.000 HD
ENDBRANCH   9  18
ENDBRANCH   4   7
BRANCH   1  20
ATOM     20  C   UNL     1       4.983   5.130  17.087  0.00  0.00    +0.000 C 
BRANCH  20  21
ATOM     21  P   UNL     1       6.778   5.659  16.604  0.00  0.00    +0.000 P 
ATOM     22  O   UNL     1       7.608   4.369  16.545  0.00  0.00    +0.000 OA
BRANCH  21  23
ATOM     23  O   UNL     1       7.164   5.832  18.281  0.00  0.00    +0.000 OA
BRANCH  23  25
ATOM     24  C   UNL     1       7.707   8.047  17.543  0.00  0.00    +0.000 C 
ATOM     25  C   UNL     1       8.035   6.931  18.508  0.00  0.00    +0.000 C 
ENDBRANCH  23  25
ENDBRANCH  21  23
BRANCH  21  26
ATOM     26  O   UNL     1       6.392   5.486  14.926  0.00  0.00    +0.000 OA
BRANCH  26  27
ATOM     27  C   UNL     1       5.901   4.183  14.634  0.00  0.00    +0.000 C 
ATOM     28  C   UNL     1       6.265   3.808  13.216  0.00  0.00    +0.000 C 
ENDBRANCH  26  27
ENDBRANCH  21  26
ENDBRANCH  20  21
ENDBRANCH   1  20
TORSDOF 8
ENDMDL
MODEL 3
REMARK VINA RESULT:      -7.5      2.224      3.153
REMARK  Name = 
REMARK  10 active torsions:
REMARK  status: ('A' for Active; 'I' for Inactive)
REMARK    1  A    between atoms: C_1  and  C_2
REMARK    2  A    between atoms: C_2  and  O_3
REMARK    3  A    between atoms: O_3  and  P_4
REMARK    4  A    between atoms: P_4  and  C_6
REMARK    5  A    between atoms: P_4  and  O_25
REMARK    6  A    between atoms: C_6  and  C_7
REMARK    7  A    between atoms: C_10  and  C_11
REMARK    8  A    between atoms: C_13  and  O_14
REMARK    9  A    between atoms: O_25  and  C_26
REMARK   10  A    between atoms: C_26  and  C_27
REMARK                            x       y       z     vdW  Elec       q    Type
REMARK                         _______ _______ _______ _____ _____    ______ ____
ROOT
ATOM      1  C   UNL     1       3.318   5.821  18.902  0.00  0.00    +0.000 A 
ATOM      2  C   UNL     1       2.574   5.926  20.083  0.00  0.00    +0.000 A 
ATOM      3  C   UNL     1       1.788   7.067  20.347  0.00  0.00    +0.000 A 
ATOM      4  C   UNL     1       1.707   8.152  19.452  0.00  0.00    +0.000 A 
ATOM      5  C   UNL     1       2.437   8.014  18.256  0.00  0.00    +0.000 A 
ATOM      6  C   UNL     1       3.225   6.875  17.985  0.00  0.00    +0.000 A 
ENDROOT
BRANCH   4   7
ATOM      7  C   UNL     1       0.970   9.405  19.793  0.00  0.00    +0.000 A 
ATOM      8  N   UNL     1       0.639  10.225  18.784  0.00  0.00    +0.000 NA
ATOM      9  C   UNL     1      -0.238  11.193  19.091  0.00  0.00    +0.000 A 
ATOM     10  C   UNL     1      -0.813  11.402  20.331  0.00  0.00    +0.000 A 
ATOM     11  C   UNL     1      -1.831  12.343  20.628  0.00  0.00    +0.000 A 
ATOM     12  F   UNL     1      -2.421  13.045  19.651  0.00  0.00    +0.000 F 
ATOM     13  C   UNL     1      -2.273  12.538  21.928  0.00  0.00    +0.000 A 
ATOM     14  C   UNL     1      -1.679  11.811  22.952  0.00  0.00    +0.000 A 
ATOM     15  C   UNL     1      -0.708  10.849  22.645  0.00  0.00    +0.000 A 
ATOM     16  C   UNL     1      -0.290  10.593  21.338  0.00  0.00    +0.000 A 
ATOM     17  N   UNL     1       0.584   9.600  21.072  0.00  0.00    +0.000 NA
BRANCH   9  18
ATOM     18  O   UNL     1      -0.482  12.041  18.052  0.00  0.00    +0.000 OA
ATOM     19  H   UNL     1      -1.223  11.593  17.611  0.00  0.00    +0.000 HD
ENDBRANCH   9  18
ENDBRANCH   4   7
BRANCH   1  20
ATOM     20  C   UNL     1       4.289   4.671  18.685  0.00  0.00    +0.000 C 
BRANCH  20  21
ATOM     21  P   UNL     1       3.782   3.202  17.536  0.00  0.00    +0.000 P 
ATOM     22  O   UNL     1       2.334   3.471  17.105  0.00  0.00    +0.000 OA
BRANCH  21  23
ATOM     23  O   UNL     1       3.212   2.334  18.919  0.00  0.00    +0.000 OA
BRANCH  23  25
ATOM     24  C   UNL     1       1.353   2.614  20.406  0.00  0.00    +0.000 C 
ATOM     25  C   UNL     1       1.793   2.333  18.988  0.00  0.00    +0.000 C 
ENDBRANCH  23  25
ENDBRANCH  21  23
BRANCH  21  26
ATOM     26  O   UNL     1       4.353   4.071  16.152  0.00  0.00    +0.000 OA
BRANCH  26  27
ATOM     27  C   UNL     1       5.744   3.862  15.941  0.00  0.00    +0.000 C 
ATOM     28  C   UNL     1       6.061   3.997  14.469  0.00  0.00    +0.000 C 
ENDBRANCH  26  27
ENDBRANCH  21  26
ENDBRANCH  20  21
ENDBRANCH   1  20
TORSDOF 8
ENDMDL
MODEL 4
REMARK VINA RESULT:      -7.4      2.211      3.482
REMARK  Name = 
REMARK  10 active torsions:
REMARK  status: ('A' for Active; 'I' for Inactive)
REMARK    1  A    between atoms: C_1  and  C_2
REMARK    2  A    between atoms: C_2  and  O_3
REMARK    3  A    between atoms: O_3  and  P_4
REMARK    4  A    between atoms: P_4  and  C_6
REMARK    5  A    between atoms: P_4  and  O_25
REMARK    6  A    between atoms: C_6  and  C_7
REMARK    7  A    between atoms: C_10  and  C_11
REMARK    8  A    between atoms: C_13  and  O_14
REMARK    9  A    between atoms: O_25  and  C_26
REMARK   10  A    between atoms: C_26  and  C_27
REMARK                            x       y       z     vdW  Elec       q    Type
REMARK                         _______ _______ _______ _____ _____    ______ ____
ROOT
ATOM      1  C   UNL     1       3.000   7.023  18.403  0.00  0.00    +0.000 A 
ATOM      2  C   UNL     1       2.470   7.007  19.699  0.00  0.00    +0.000 A 
ATOM      3  C   UNL     1       1.598   8.024  20.139  0.00  0.00    +0.000 A 
ATOM      4  C   UNL     1       1.216   9.101  19.314  0.00  0.00    +0.000 A 
ATOM      5  C   UNL     1       1.734   9.082  18.005  0.00  0.00    +0.000 A 
ATOM      6  C   UNL     1       2.607   8.067  17.558  0.00  0.00    +0.000 A 
ENDROOT
BRANCH   4   7
ATOM      7  C   UNL     1       0.390  10.234  19.826  0.00  0.00    +0.000 A 
ATOM      8  N   UNL     1      -0.073  11.120  18.930  0.00  0.00    +0.000 NA
ATOM      9  C   UNL     1      -1.014  11.962  19.383  0.00  0.00    +0.000 A 
ATOM     10  C   UNL     1      -1.531  11.984  20.665  0.00  0.00    +0.000 A 
ATOM     11  C   UNL     1      -2.611  12.786  21.114  0.00  0.00    +0.000 A 
ATOM     12  F   UNL     1      -3.318  13.527  20.249  0.00  0.00    +0.000 F 
ATOM     13  C   UNL     1      -2.991  12.802  22.447  0.00  0.00    +0.000 A 
ATOM     14  C   UNL     1      -2.274  12.032  23.355  0.00  0.00    +0.000 A 
ATOM     15  C   UNL     1      -1.240  11.206  22.898  0.00  0.00    +0.000 A 
ATOM     16  C   UNL     1      -0.878  11.129  21.551  0.00  0.00    +0.000 A 
ATOM     17  N   UNL     1       0.064  10.257  21.136  0.00  0.00    +0.000 NA
BRANCH   9  18
ATOM     18  O   UNL     1      -1.394  12.886  18.457  0.00  0.00    +0.000 OA
ATOM     19  H   UNL     1      -2.089  12.402  17.980  0.00  0.00    +0.000 HD
ENDBRANCH   9  18
ENDBRANCH   4   7
BRANCH   1  20
ATOM     20  C   UNL     1       4.063   6.022  17.978  0.00  0.00    +0.000 C 
BRANCH  20  21
ATOM     21  P   UNL     1       3.897   4.173  18.518  0.00  0.00    +0.000 P 
ATOM     22  O   UNL     1       4.386   3.330  17.332  0.00  0.00    +0.000 OA
BRANCH  21  23
ATOM     23  O   UNL     1       2.290   4.145  17.879  0.00  0.00    +0.000 OA
BRANCH  23  25
ATOM     24  C   UNL     1       1.079   3.572  19.867  0.00  0.00    +0.000 C 
ATOM     25  C   UNL     1       1.503   3.129  18.485  0.00  0.00    +0.000 C 
ENDBRANCH  23  25
ENDBRANCH  21  23
BRANCH  21  26
ATOM     26  O   UNL     1       5.506   4.202  19.157  0.00  0.00    +0.000 OA
BRANCH  26  27
ATOM     27  C   UNL     1       6.254   5.296  18.642  0.00  0.00    +0.000 C 
ATOM     28  C   UNL     1       7.540   4.790  18.031  0.00  0.00    +0.000 C 
ENDBRANCH  26  27
ENDBRANCH  21  26
ENDBRANCH  20  21
ENDBRANCH   1  20
TORSDOF 8
ENDMDL
MODEL 5
REMARK VINA RESULT:      -7.4      2.317      3.828
REMARK  Name = 
REMARK  10 active torsions:
REMARK  status: ('A' for Active; 'I' for Inactive)
REMARK    1  A    between atoms: C_1  and  C_2
REMARK    2  A    between atoms: C_2  and  O_3
REMARK    3  A    between atoms: O_3  and  P_4
REMARK    4  A    between atoms: P_4  and  C_6
REMARK    5  A    between atoms: P_4  and  O_25
REMARK    6  A    between atoms: C_6  and  C_7
REMARK    7  A    between atoms: C_10  and  C_11
REMARK    8  A    between atoms: C_13  and  O_14
REMARK    9  A    between atoms: O_25  and  C_26
REMARK   10  A    between atoms: C_26  and  C_27
REMARK                            x       y       z     vdW  Elec       q    Type
REMARK                         _______ _______ _______ _____ _____    ______ ____
ROOT
ATOM      1  C   UNL     1       2.757   7.198  18.553  0.00  0.00    +0.000 A 
ATOM      2  C   UNL     1       2.475   8.294  17.729  0.00  0.00    +0.000 A 
ATOM      3  C   UNL     1       1.685   9.367  18.193  0.00  0.00    +0.000 A 
ATOM      4  C   UNL     1       1.141   9.397  19.493  0.00  0.00    +0.000 A 
ATOM      5  C   UNL     1       1.463   8.301  20.316  0.00  0.00    +0.000 A 
ATOM      6  C   UNL     1       2.253   7.225  19.858  0.00  0.00    +0.000 A 
ENDROOT
BRANCH   4   7
ATOM      7  C   UNL     1       0.209  10.477  19.934  0.00  0.00    +0.000 A 
ATOM      8  N   UNL     1      -0.330  11.257  18.986  0.00  0.00    +0.000 NA
ATOM      9  C   UNL     1      -1.349  12.034  19.387  0.00  0.00    +0.000 A 
ATOM     10  C   UNL     1      -1.871  12.086  20.666  0.00  0.00    +0.000 A 
ATOM     11  C   UNL     1      -3.024  12.809  21.065  0.00  0.00    +0.000 A 
ATOM     12  F   UNL     1      -3.794  13.425  20.156  0.00  0.00    +0.000 F 
ATOM     13  C   UNL     1      -3.410  12.872  22.395  0.00  0.00    +0.000 A 
ATOM     14  C   UNL     1      -2.628  12.231  23.348  0.00  0.00    +0.000 A 
ATOM     15  C   UNL     1      -1.519  11.479  22.942  0.00  0.00    +0.000 A 
ATOM     16  C   UNL     1      -1.145  11.353  21.602  0.00  0.00    +0.000 A 
ATOM     17  N   UNL     1      -0.123  10.550  21.241  0.00  0.00    +0.000 NA
BRANCH   9  18
ATOM     18  O   UNL     1      -1.810  12.858  18.405  0.00  0.00    +0.000 OA
ATOM     19  H   UNL     1      -2.434  12.273  17.944  0.00  0.00    +0.000 HD
ENDBRANCH   9  18
ENDBRANCH   4   7
BRANCH   1  20
ATOM     20  C   UNL     1       3.470   5.970  18.008  0.00  0.00    +0.000 C 
BRANCH  20  21
ATOM     21  P   UNL     1       3.925   4.525  19.208  0.00  0.00    +0.000 P 
ATOM     22  O   UNL     1       4.715   3.504  18.377  0.00  0.00    +0.000 OA
BRANCH  21  23
ATOM     23  O   UNL     1       2.449   3.729  18.788  0.00  0.00    +0.000 OA
BRANCH  23  25
ATOM     24  C   UNL     1       1.256   3.393  20.840  0.00  0.00    +0.000 C 
ATOM     25  C   UNL     1       2.087   2.751  19.753  0.00  0.00    +0.000 C 
ENDBRANCH  23  25
ENDBRANCH  21  23
BRANCH  21  26
ATOM     26  O   UNL     1       5.403   5.322  19.629  0.00  0.00    +0.000 OA
BRANCH  26  27
ATOM     27  C   UNL     1       6.240   5.504  18.494  0.00  0.00    +0.000 C 
ATOM     28  C   UNL     1       7.643   5.842  18.945  0.00  0.00    +0.000 C 
ENDBRANCH  26  27
ENDBRANCH  21  26
ENDBRANCH  20  21
ENDBRANCH   1  20
TORSDOF 8
ENDMDL
MODEL 6
REMARK VINA RESULT:      -7.4      2.388      3.435
REMARK  Name = 
REMARK  10 active torsions:
REMARK  status: ('A' for Active; 'I' for Inactive)
REMARK    1  A    between atoms: C_1  and  C_2
REMARK    2  A    between atoms: C_2  and  O_3
REMARK    3  A    between atoms: O_3  and  P_4
REMARK    4  A    between atoms: P_4  and  C_6
REMARK    5  A    between atoms: P_4  and  O_25
REMARK    6  A    between atoms: C_6  and  C_7
REMARK    7  A    between atoms: C_10  and  C_11
REMARK    8  A    between atoms: C_13  and  O_14
REMARK    9  A    between atoms: O_25  and  C_26
REMARK   10  A    between atoms: C_26  and  C_27
REMARK                            x       y       z     vdW  Elec       q    Type
REMARK                         _______ _______ _______ _____ _____    ______ ____
ROOT
ATOM      1  C   UNL     1       3.573   5.953  18.834  0.00  0.00    +0.000 A 
ATOM      2  C   UNL     1       3.557   6.923  17.824  0.00  0.00    +0.000 A 
ATOM      3  C   UNL     1       2.741   8.068  17.930  0.00  0.00    +0.000 A 
ATOM      4  C   UNL     1       1.905   8.299  19.040  0.00  0.00    +0.000 A 
ATOM      5  C   UNL     1       1.958   7.329  20.059  0.00  0.00    +0.000 A 
ATOM      6  C   UNL     1       2.773   6.181  19.960  0.00  0.00    +0.000 A 
ENDROOT
BRANCH   4   7
ATOM      7  C   UNL     1       0.957   9.452  19.089  0.00  0.00    +0.000 A 
ATOM      8  N   UNL     1       0.206   9.684  18.001  0.00  0.00    +0.000 NA
ATOM      9  C   UNL     1      -0.806  10.549  18.172  0.00  0.00    +0.000 A 
ATOM     10  C   UNL     1      -1.126  11.198  19.350  0.00  0.00    +0.000 A 
ATOM     11  C   UNL     1      -2.265  12.015  19.567  0.00  0.00    +0.000 A 
ATOM     12  F   UNL     1      -3.221  12.119  18.633  0.00  0.00    +0.000 F 
ATOM     13  C   UNL     1      -2.443  12.699  20.760  0.00  0.00    +0.000 A 
ATOM     14  C   UNL     1      -1.466  12.593  21.742  0.00  0.00    +0.000 A 
ATOM     15  C   UNL     1      -0.368  11.748  21.540  0.00  0.00    +0.000 A 
ATOM     16  C   UNL     1      -0.198  11.004  20.371  0.00  0.00    +0.000 A 
ATOM     17  N   UNL     1       0.826  10.134  20.247  0.00  0.00    +0.000 NA
BRANCH   9  18
ATOM     18  O   UNL     1      -1.489  10.805  17.021  0.00  0.00    +0.000 OA
ATOM     19  H   UNL     1      -2.131  11.469  17.325  0.00  0.00    +0.000 HD
ENDBRANCH   9  18
ENDBRANCH   4   7
BRANCH   1  20
ATOM     20  C   UNL     1       4.325   4.643  18.653  0.00  0.00    +0.000 C 
BRANCH  20  21
ATOM     21  P   UNL     1       3.514   3.215  17.634  0.00  0.00    +0.000 P 
ATOM     22  O   UNL     1       2.100   3.690  17.273  0.00  0.00    +0.000 OA
BRANCH  21  23
ATOM     23  O   UNL     1       2.910   2.529  19.103  0.00  0.00    +0.000 OA
BRANCH  23  25
ATOM     24  C   UNL     1       1.156   3.014  20.663  0.00  0.00    +0.000 C 
ATOM     25  C   UNL     1       1.505   2.706  19.225  0.00  0.00    +0.000 C 
ENDBRANCH  23  25
ENDBRANCH  21  23
BRANCH  21  26
ATOM     26  O   UNL     1       4.118   3.901  16.165  0.00  0.00    +0.000 OA
BRANCH  26  27
ATOM     27  C   UNL     1       5.540   3.916  16.141  0.00  0.00    +0.000 C 
ATOM     28  C   UNL     1       6.022   4.256  14.750  0.00  0.00    +0.000 C 
ENDBRANCH  26  27
ENDBRANCH  21  26
ENDBRANCH  20  21
ENDBRANCH   1  20
TORSDOF 8
ENDMDL
MODEL 7
REMARK VINA RESULT:      -7.4      2.005      3.431
REMARK  Name = 
REMARK  10 active torsions:
REMARK  status: ('A' for Active; 'I' for Inactive)
REMARK    1  A    between atoms: C_1  and  C_2
REMARK    2  A    between atoms: C_2  and  O_3
REMARK    3  A    between atoms: O_3  and  P_4
REMARK    4  A    between atoms: P_4  and  C_6
REMARK    5  A    between atoms: P_4  and  O_25
REMARK    6  A    between atoms: C_6  and  C_7
REMARK    7  A    between atoms: C_10  and  C_11
REMARK    8  A    between atoms: C_13  and  O_14
REMARK    9  A    between atoms: O_25  and  C_26
REMARK   10  A    between atoms: C_26  and  C_27
REMARK                            x       y       z     vdW  Elec       q    Type
REMARK                         _______ _______ _______ _____ _____    ______ ____
ROOT
ATOM      1  C   UNL     1       3.394   6.596  18.149  0.00  0.00    +0.000 A 
ATOM      2  C   UNL     1       2.998   7.830  17.619  0.00  0.00    +0.000 A 
ATOM      3  C   UNL     1       2.151   8.694  18.345  0.00  0.00    +0.000 A 
ATOM      4  C   UNL     1       1.660   8.368  19.626  0.00  0.00    +0.000 A 
ATOM      5  C   UNL     1       2.094   7.138  20.153  0.00  0.00    +0.000 A 
ATOM      6  C   UNL     1       2.942   6.270  19.433  0.00  0.00    +0.000 A 
ENDROOT
BRANCH   4   7
ATOM      7  C   UNL     1       0.670   9.232  20.334  0.00  0.00    +0.000 A 
ATOM      8  N   UNL     1       0.688   9.226  21.676  0.00  0.00    +0.000 NA
ATOM      9  C   UNL     1      -0.026  10.196  22.268  0.00  0.00    +0.000 A 
ATOM     10  C   UNL     1      -0.754  11.176  21.620  0.00  0.00    +0.000 A 
ATOM     11  C   UNL     1      -1.406  12.274  22.236  0.00  0.00    +0.000 A 
ATOM     12  F   UNL     1      -1.249  12.515  23.546  0.00  0.00    +0.000 F 
ATOM     13  C   UNL     1      -2.192  13.149  21.503  0.00  0.00    +0.000 A 
ATOM     14  C   UNL     1      -2.356  12.919  20.142  0.00  0.00    +0.000 A 
ATOM     15  C   UNL     1      -1.672  11.861  19.531  0.00  0.00    +0.000 A 
ATOM     16  C   UNL     1      -0.828  11.002  20.239  0.00  0.00    +0.000 A 
ATOM     17  N   UNL     1      -0.118  10.049  19.601  0.00  0.00    +0.000 NA
BRANCH   9  18
ATOM     18  O   UNL     1      -0.034  10.098  23.627  0.00  0.00    +0.000 OA
ATOM     19  H   UNL     1      -0.597   9.317  23.758  0.00  0.00    +0.000 HD
ENDBRANCH   9  18
ENDBRANCH   4   7
BRANCH   1  20
ATOM     20  C   UNL     1       4.172   5.595  17.308  0.00  0.00    +0.000 C 
BRANCH  20  21
ATOM     21  P   UNL     1       6.031   5.256  17.715  0.00  0.00    +0.000 P 
ATOM     22  O   UNL     1       6.533   4.267  16.653  0.00  0.00    +0.000 OA
BRANCH  21  23
ATOM     23  O   UNL     1       5.555   3.934  18.724  0.00  0.00    +0.000 OA
BRANCH  23  25
ATOM     24  C   UNL     1       3.771   2.420  19.243  0.00  0.00    +0.000 C 
ATOM     25  C   UNL     1       4.472   3.208  18.160  0.00  0.00    +0.000 C 
ENDBRANCH  23  25
ENDBRANCH  21  23
BRANCH  21  26
ATOM     26  O   UNL     1       6.507   6.579  16.705  0.00  0.00    +0.000 OA
BRANCH  26  27
ATOM     27  C   UNL     1       7.455   7.418  17.354  0.00  0.00    +0.000 C 
ATOM     28  C   UNL     1       7.948   6.747  18.616  0.00  0.00    +0.000 C 
ENDBRANCH  26  27
ENDBRANCH  21  26
ENDBRANCH  20  21
ENDBRANCH   1  20
TORSDOF 8
ENDMDL
MODEL 8
REMARK VINA RESULT:      -7.4      1.089      2.877
REMARK  Name = 
REMARK  10 active torsions:
REMARK  status: ('A' for Active; 'I' for Inactive)
REMARK    1  A    between atoms: C_1  and  C_2
REMARK    2  A    between atoms: C_2  and  O_3
REMARK    3  A    between atoms: O_3  and  P_4
REMARK    4  A    between atoms: P_4  and  C_6
REMARK    5  A    between atoms: P_4  and  O_25
REMARK    6  A    between atoms: C_6  and  C_7
REMARK    7  A    between atoms: C_10  and  C_11
REMARK    8  A    between atoms: C_13  and  O_14
REMARK    9  A    between atoms: O_25  and  C_26
REMARK   10  A    between atoms: C_26  and  C_27
REMARK                            x       y       z     vdW  Elec       q    Type
REMARK                         _______ _______ _______ _____ _____    ______ ____
ROOT
ATOM      1  C   UNL     1       4.126   5.336  17.194  0.00  0.00    +0.000 A 
ATOM      2  C   UNL     1       4.282   6.678  16.828  0.00  0.00    +0.000 A 
ATOM      3  C   UNL     1       3.612   7.704  17.526  0.00  0.00    +0.000 A 
ATOM      4  C   UNL     1       2.757   7.442  18.616  0.00  0.00    +0.000 A 
ATOM      5  C   UNL     1       2.638   6.090  18.988  0.00  0.00    +0.000 A 
ATOM      6  C   UNL     1       3.306   5.058  18.294  0.00  0.00    +0.000 A 
ENDROOT
BRANCH   4   7
ATOM      7  C   UNL     1       1.960   8.521  19.271  0.00  0.00    +0.000 A 
ATOM      8  N   UNL     1       1.421   9.462  18.481  0.00  0.00    +0.000 NA
ATOM      9  C   UNL     1       0.508  10.254  19.065  0.00  0.00    +0.000 A 
ATOM     10  C   UNL     1       0.089  10.173  20.380  0.00  0.00    +0.000 A 
ATOM     11  C   UNL     1      -0.962  10.922  20.967  0.00  0.00    +0.000 A 
ATOM     12  F   UNL     1      -1.741  11.713  20.215  0.00  0.00    +0.000 F 
ATOM     13  C   UNL     1      -1.240  10.834  22.322  0.00  0.00    +0.000 A 
ATOM     14  C   UNL     1      -0.448  10.011  23.114  0.00  0.00    +0.000 A 
ATOM     15  C   UNL     1       0.557   9.237  22.520  0.00  0.00    +0.000 A 
ATOM     16  C   UNL     1       0.816   9.265  21.149  0.00  0.00    +0.000 A 
ATOM     17  N   UNL     1       1.734   8.442  20.600  0.00  0.00    +0.000 NA
BRANCH   9  18
ATOM     18  O   UNL     1       0.049  11.237  18.241  0.00  0.00    +0.000 OA
ATOM     19  H   UNL     1      -0.837  11.394  18.609  0.00  0.00    +0.000 HD
ENDBRANCH   9  18
ENDBRANCH   4   7
BRANCH   1  20
ATOM     20  C   UNL     1       4.715   4.218  16.348  0.00  0.00    +0.000 C 
BRANCH  20  21
ATOM     21  P   UNL     1       6.513   4.394  15.660  0.00  0.00    +0.000 P 
ATOM     22  O   UNL     1       6.485   5.571  14.675  0.00  0.00    +0.000 OA
BRANCH  21  23
ATOM     23  O   UNL     1       6.113   3.307  14.375  0.00  0.00    +0.000 OA
BRANCH  23  25
ATOM     24  C   UNL     1       5.367   3.359  12.098  0.00  0.00    +0.000 C 
ATOM     25  C   UNL     1       6.367   3.884  13.102  0.00  0.00    +0.000 C 
ENDBRANCH  23  25
ENDBRANCH  21  23
BRANCH  21  26
ATOM     26  O   UNL     1       6.913   5.482  16.945  0.00  0.00    +0.000 OA
BRANCH  26  27
ATOM     27  C   UNL     1       7.658   4.832  17.967  0.00  0.00    +0.000 C 
ATOM     28  C   UNL     1       7.698   5.704  19.201  0.00  0.00    +0.000 C 
ENDBRANCH  26  27
ENDBRANCH  21  26
ENDBRANCH  20  21
ENDBRANCH   1  20
TORSDOF 8
ENDMDL
MODEL 9
REMARK VINA RESULT:      -7.3      0.953      1.103
REMARK  Name = 
REMARK  10 active torsions:
REMARK  status: ('A' for Active; 'I' for Inactive)
REMARK    1  A    between atoms: C_1  and  C_2
REMARK    2  A    between atoms: C_2  and  O_3
REMARK    3  A    between atoms: O_3  and  P_4
REMARK    4  A    between atoms: P_4  and  C_6
REMARK    5  A    between atoms: P_4  and  O_25
REMARK    6  A    between atoms: C_6  and  C_7
REMARK    7  A    between atoms: C_10  and  C_11
REMARK    8  A    between atoms: C_13  and  O_14
REMARK    9  A    between atoms: O_25  and  C_26
REMARK   10  A    between atoms: C_26  and  C_27
REMARK                            x       y       z     vdW  Elec       q    Type
REMARK                         _______ _______ _______ _____ _____    ______ ____
ROOT
ATOM      1  C   UNL     1       4.055   5.624  17.468  0.00  0.00    +0.000 A 
ATOM      2  C   UNL     1       3.201   5.343  18.542  0.00  0.00    +0.000 A 
ATOM      3  C   UNL     1       2.420   6.358  19.133  0.00  0.00    +0.000 A 
ATOM      4  C   UNL     1       2.455   7.694  18.686  0.00  0.00    +0.000 A 
ATOM      5  C   UNL     1       3.295   7.949  17.585  0.00  0.00    +0.000 A 
ATOM      6  C   UNL     1       4.078   6.938  16.989  0.00  0.00    +0.000 A 
ENDROOT
BRANCH   4   7
ATOM      7  C   UNL     1       1.717   8.783  19.393  0.00  0.00    +0.000 A 
ATOM      8  N   UNL     1       1.275   9.813  18.656  0.00  0.00    +0.000 NA
ATOM      9  C   UNL     1       0.403  10.629  19.269  0.00  0.00    +0.000 A 
ATOM     10  C   UNL     1      -0.063  10.491  20.563  0.00  0.00    +0.000 A 
ATOM     11  C   UNL     1      -1.076  11.275  21.171  0.00  0.00    +0.000 A 
ATOM     12  F   UNL     1      -1.770  12.172  20.455  0.00  0.00    +0.000 F 
ATOM     13  C   UNL     1      -1.403  11.116  22.509  0.00  0.00    +0.000 A 
ATOM     14  C   UNL     1      -0.700  10.185  23.262  0.00  0.00    +0.000 A 
ATOM     15  C   UNL     1       0.265   9.380  22.644  0.00  0.00    +0.000 A 
ATOM     16  C   UNL     1       0.570   9.482  21.285  0.00  0.00    +0.000 A 
ATOM     17  N   UNL     1       1.443   8.631  20.706  0.00  0.00    +0.000 NA
BRANCH   9  18
ATOM     18  O   UNL     1       0.044  11.698  18.503  0.00  0.00    +0.000 OA
ATOM     19  H   UNL     1      -0.832  11.908  18.869  0.00  0.00    +0.000 HD
ENDBRANCH   9  18
ENDBRANCH   4   7
BRANCH   1  20
ATOM     20  C   UNL     1       5.015   4.572  16.934  0.00  0.00    +0.000 C 
BRANCH  20  21
ATOM     21  P   UNL     1       6.431   5.103  15.730  0.00  0.00    +0.000 P 
ATOM     22  O   UNL     1       7.506   4.011  15.818  0.00  0.00    +0.000 OA
BRANCH  21  23
ATOM     23  O   UNL     1       7.193   5.960  17.025  0.00  0.00    +0.000 OA
BRANCH  23  25
ATOM     24  C   UNL     1       8.109   5.905  19.240  0.00  0.00    +0.000 C 
ATOM     25  C   UNL     1       7.460   5.108  18.131  0.00  0.00    +0.000 C 
ENDBRANCH  23  25
ENDBRANCH  21  23
BRANCH  21  26
ATOM     26  O   UNL     1       5.669   4.246  14.434  0.00  0.00    +0.000 OA
BRANCH  26  27
ATOM     27  C   UNL     1       6.566   4.027  13.353  0.00  0.00    +0.000 C 
ATOM     28  C   UNL     1       5.852   3.295  12.239  0.00  0.00    +0.000 C 
ENDBRANCH  26  27
ENDBRANCH  21  26
ENDBRANCH  20  21
ENDBRANCH   1  20
TORSDOF 8
ENDMDL
