MODEL 1
REMARK VINA RESULT:      -9.5      0.000      0.000
REMARK  Name = 
REMARK  3 active torsions:
REMARK  status: ('A' for Active; 'I' for Inactive)
REMARK    1  A    between atoms: C_5  and  C_6
REMARK    2  A    between atoms: C_9  and  C_10
REMARK    3  A    between atoms: C_26  and  C_27
REMARK                            x       y       z     vdW  Elec       q    Type
REMARK                         _______ _______ _______ _____ _____    ______ ____
ROOT
ATOM      1  C   UNL     1       4.916   3.864  16.189  0.00  0.00    +0.000 A 
ATOM      2  C   UNL     1       4.082   4.057  17.292  0.00  0.00    +0.000 A 
ATOM      3  C   UNL     1       3.693   5.362  17.637  0.00  0.00    +0.000 A 
ATOM      4  C   UNL     1       2.856   5.890  18.645  0.00  0.00    +0.000 A 
ATOM      5  C   UNL     1       2.766   7.260  18.475  0.00  0.00    +0.000 A 
ATOM      6  N   UNL     1       3.603   7.578  17.427  0.00  0.00    +0.000 N 
ATOM      7  C   UNL     1       4.161   6.436  16.882  0.00  0.00    +0.000 A 
ATOM      8  C   UNL     1       5.023   6.270  15.792  0.00  0.00    +0.000 A 
ATOM      9  C   UNL     1       5.374   4.955  15.444  0.00  0.00    +0.000 A 
ATOM     10  H   UNL     1       3.775   8.513  17.084  0.00  0.00    +0.000 HD
ENDROOT
BRANCH   9  11
ATOM     11  C   UNL     1       6.241   4.705  14.246  0.00  0.00    +0.000 C 
ATOM     12  N   UNL     1       5.891   3.761  13.438  0.00  0.00    +0.000 NA
ATOM     13  C   UNL     1       6.734   3.492  12.268  0.00  0.00    +0.000 C 
ATOM     14  C   UNL     1       7.589   4.680  11.854  0.00  0.00    +0.000 C 
ATOM     15  C   UNL     1       8.330   5.187  13.071  0.00  0.00    +0.000 C 
ATOM     16  N   UNL     1       7.356   5.499  14.086  0.00  0.00    +0.000 N 
ATOM     17  H   UNL     1       7.730   5.931  14.924  0.00  0.00    +0.000 HD
ENDBRANCH   9  11
BRANCH   5  18
ATOM     18  C   UNL     1       1.945   8.222  19.210  0.00  0.00    +0.000 A 
ATOM     19  C   UNL     1       1.610   7.971  20.543  0.00  0.00    +0.000 A 
ATOM     20  C   UNL     1       0.742   8.819  21.238  0.00  0.00    +0.000 A 
ATOM     21  C   UNL     1       0.185   9.958  20.629  0.00  0.00    +0.000 A 
ATOM     22  C   UNL     1       0.539  10.205  19.292  0.00  0.00    +0.000 A 
ATOM     23  C   UNL     1       1.407   9.352  18.591  0.00  0.00    +0.000 A 
BRANCH  21  24
ATOM     24  C   UNL     1      -0.744  10.832  21.367  0.00  0.00    +0.000 A 
ATOM     25  C   UNL     1      -1.155  10.585  22.661  0.00  0.00    +0.000 A 
ATOM     26  N   UNL     1      -2.032  11.342  23.355  0.00  0.00    +0.000 NA
ATOM     27  C   UNL     1      -2.567  12.403  22.739  0.00  0.00    +0.000 A 
ATOM     28  N   UNL     1      -3.507  13.164  23.403  0.00  0.00    +0.000 N 
ATOM     29  C   UNL     1      -3.978  12.737  24.713  0.00  0.00    +0.000 C 
ATOM     30  C   UNL     1      -5.497  12.731  24.586  0.00  0.00    +0.000 C 
ATOM     31  C   UNL     1      -5.773  13.811  23.553  0.00  0.00    +0.000 C 
ATOM     32  C   UNL     1      -4.589  13.712  22.591  0.00  0.00    +0.000 C 
ATOM     33  N   UNL     1      -2.221  12.752  21.488  0.00  0.00    +0.000 NA
ATOM     34  C   UNL     1      -1.319  11.974  20.845  0.00  0.00    +0.000 A 
ENDBRANCH  21  24
ENDBRANCH   5  18
TORSDOF 3
ENDMDL
MODEL 2
REMARK VINA RESULT:      -9.4      0.925      1.303
REMARK  Name = 
REMARK  3 active torsions:
REMARK  status: ('A' for Active; 'I' for Inactive)
REMARK    1  A    between atoms: C_5  and  C_6
REMARK    2  A    between atoms: C_9  and  C_10
REMARK    3  A    between atoms: C_26  and  C_27
REMARK                            x       y       z     vdW  Elec       q    Type
REMARK                         _______ _______ _______ _____ _____    ______ ____
ROOT
ATOM      1  C   UNL     1       4.849   3.805  16.283  0.00  0.00    +0.000 A 
ATOM      2  C   UNL     1       4.020   3.978  17.393  0.00  0.00    +0.000 A 
ATOM      3  C   UNL     1       3.646   5.278  17.773  0.00  0.00    +0.000 A 
ATOM      4  C   UNL     1       2.817   5.788  18.798  0.00  0.00    +0.000 A 
ATOM      5  C   UNL     1       2.744   7.163  18.665  0.00  0.00    +0.000 A 
ATOM      6  N   UNL     1       3.583   7.500  17.625  0.00  0.00    +0.000 N 
ATOM      7  C   UNL     1       4.126   6.367  17.048  0.00  0.00    +0.000 A 
ATOM      8  C   UNL     1       4.984   6.220  15.952  0.00  0.00    +0.000 A 
ATOM      9  C   UNL     1       5.320   4.911  15.568  0.00  0.00    +0.000 A 
ATOM     10  H   UNL     1       3.765   8.441  17.307  0.00  0.00    +0.000 HD
ENDROOT
BRANCH   9  11
ATOM     11  C   UNL     1       6.182   4.683  14.362  0.00  0.00    +0.000 C 
ATOM     12  N   UNL     1       5.836   3.746  13.545  0.00  0.00    +0.000 NA
ATOM     13  C   UNL     1       6.675   3.498  12.366  0.00  0.00    +0.000 C 
ATOM     14  C   UNL     1       7.516   4.699  11.962  0.00  0.00    +0.000 C 
ATOM     15  C   UNL     1       8.259   5.199  13.180  0.00  0.00    +0.000 C 
ATOM     16  N   UNL     1       7.288   5.490  14.204  0.00  0.00    +0.000 N 
ATOM     17  H   UNL     1       7.663   5.916  15.045  0.00  0.00    +0.000 HD
ENDBRANCH   9  11
BRANCH   5  18
ATOM     18  C   UNL     1       1.935   8.114  19.427  0.00  0.00    +0.000 A 
ATOM     19  C   UNL     1       1.490   9.290  18.816  0.00  0.00    +0.000 A 
ATOM     20  C   UNL     1       0.805  10.266  19.548  0.00  0.00    +0.000 A 
ATOM     21  C   UNL     1       0.528  10.097  20.916  0.00  0.00    +0.000 A 
ATOM     22  C   UNL     1       0.971   8.904  21.515  0.00  0.00    +0.000 A 
ATOM     23  C   UNL     1       1.663   7.926  20.783  0.00  0.00    +0.000 A 
BRANCH  21  24
ATOM     24  C   UNL     1      -0.177  11.140  21.680  0.00  0.00    +0.000 A 
ATOM     25  C   UNL     1      -1.175  10.870  22.594  0.00  0.00    +0.000 A 
ATOM     26  N   UNL     1      -1.869  11.801  23.284  0.00  0.00    +0.000 NA
ATOM     27  C   UNL     1      -1.589  13.090  23.052  0.00  0.00    +0.000 A 
ATOM     28  N   UNL     1      -2.318  14.065  23.701  0.00  0.00    +0.000 N 
ATOM     29  C   UNL     1      -3.445  13.678  24.538  0.00  0.00    +0.000 C 
ATOM     30  C   UNL     1      -4.605  14.524  24.027  0.00  0.00    +0.000 C 
ATOM     31  C   UNL     1      -3.927  15.782  23.509  0.00  0.00    +0.000 C 
ATOM     32  C   UNL     1      -2.599  15.278  22.941  0.00  0.00    +0.000 C 
ATOM     33  N   UNL     1      -0.620  13.468  22.202  0.00  0.00    +0.000 NA
ATOM     34  C   UNL     1       0.063  12.495  21.553  0.00  0.00    +0.000 A 
ENDBRANCH  21  24
ENDBRANCH   5  18
TORSDOF 3
ENDMDL
MODEL 3
REMARK VINA RESULT:      -9.3      0.818      1.397
REMARK  Name = 
REMARK  3 active torsions:
REMARK  status: ('A' for Active; 'I' for Inactive)
REMARK    1  A    between atoms: C_5  and  C_6
REMARK    2  A    between atoms: C_9  and  C_10
REMARK    3  A    between atoms: C_26  and  C_27
REMARK                            x       y       z     vdW  Elec       q    Type
REMARK                         _______ _______ _______ _____ _____    ______ ____
ROOT
ATOM      1  C   UNL     1       5.154   4.082  16.692  0.00  0.00    +0.000 A 
ATOM      2  C   UNL     1       4.417   4.339  17.849  0.00  0.00    +0.000 A 
ATOM      3  C   UNL     1       3.876   5.621  18.046  0.00  0.00    +0.000 A 
ATOM      4  C   UNL     1       3.077   6.192  19.062  0.00  0.00    +0.000 A 
ATOM      5  C   UNL     1       2.769   7.493  18.707  0.00  0.00    +0.000 A 
ATOM      6  N   UNL     1       3.440   7.745  17.529  0.00  0.00    +0.000 N 
ATOM      7  C   UNL     1       4.102   6.612  17.092  0.00  0.00    +0.000 A 
ATOM      8  C   UNL     1       4.864   6.385  15.940  0.00  0.00    +0.000 A 
ATOM      9  C   UNL     1       5.369   5.089  15.746  0.00  0.00    +0.000 A 
ATOM     10  H   UNL     1       3.436   8.626  17.036  0.00  0.00    +0.000 HD
ENDROOT
BRANCH   9  11
ATOM     11  C   UNL     1       6.138   4.764  14.500  0.00  0.00    +0.000 C 
ATOM     12  N   UNL     1       5.664   3.847  13.725  0.00  0.00    +0.000 NA
ATOM     13  C   UNL     1       6.410   3.505  12.508  0.00  0.00    +0.000 C 
ATOM     14  C   UNL     1       7.329   4.619  12.030  0.00  0.00    +0.000 C 
ATOM     15  C   UNL     1       8.181   5.072  13.194  0.00  0.00    +0.000 C 
ATOM     16  N   UNL     1       7.300   5.466  14.263  0.00  0.00    +0.000 N 
ATOM     17  H   UNL     1       7.757   5.872  15.073  0.00  0.00    +0.000 HD
ENDBRANCH   9  11
BRANCH   5  18
ATOM     18  C   UNL     1       1.894   8.445  19.389  0.00  0.00    +0.000 A 
ATOM     19  C   UNL     1       1.437   8.165  20.680  0.00  0.00    +0.000 A 
ATOM     20  C   UNL     1       0.517   9.005  21.315  0.00  0.00    +0.000 A 
ATOM     21  C   UNL     1       0.028  10.165  20.688  0.00  0.00    +0.000 A 
ATOM     22  C   UNL     1       0.505  10.442  19.396  0.00  0.00    +0.000 A 
ATOM     23  C   UNL     1       1.425   9.597  18.754  0.00  0.00    +0.000 A 
BRANCH  21  24
ATOM     24  C   UNL     1      -0.955  11.031  21.361  0.00  0.00    +0.000 A 
ATOM     25  C   UNL     1      -1.736  11.955  20.696  0.00  0.00    +0.000 A 
ATOM     26  N   UNL     1      -2.620  12.791  21.283  0.00  0.00    +0.000 NA
ATOM     27  C   UNL     1      -2.737  12.742  22.616  0.00  0.00    +0.000 A 
ATOM     28  N   UNL     1      -3.591  13.621  23.249  0.00  0.00    +0.000 N 
ATOM     29  C   UNL     1      -4.263  14.653  22.472  0.00  0.00    +0.000 C 
ATOM     30  C   UNL     1      -3.950  15.949  23.210  0.00  0.00    +0.000 C 
ATOM     31  C   UNL     1      -3.796  15.507  24.656  0.00  0.00    +0.000 C 
ATOM     32  C   UNL     1      -3.161  14.119  24.551  0.00  0.00    +0.000 C 
ATOM     33  N   UNL     1      -2.046  11.865  23.362  0.00  0.00    +0.000 NA
ATOM     34  C   UNL     1      -1.190  11.032  22.722  0.00  0.00    +0.000 A 
ENDBRANCH  21  24
ENDBRANCH   5  18
TORSDOF 3
ENDMDL
MODEL 4
REMARK VINA RESULT:      -8.8      1.975      3.466
REMARK  Name = 
REMARK  3 active torsions:
REMARK  status: ('A' for Active; 'I' for Inactive)
REMARK    1  A    between atoms: C_5  and  C_6
REMARK    2  A    between atoms: C_9  and  C_10
REMARK    3  A    between atoms: C_26  and  C_27
REMARK                            x       y       z     vdW  Elec       q    Type
REMARK                         _______ _______ _______ _____ _____    ______ ____
ROOT
ATOM      1  C   UNL     1       3.325   4.620  19.121  0.00  0.00    +0.000 A 
ATOM      2  C   UNL     1       2.491   4.983  20.179  0.00  0.00    +0.000 A 
ATOM      3  C   UNL     1       2.046   6.312  20.275  0.00  0.00    +0.000 A 
ATOM      4  C   UNL     1       1.192   6.987  21.178  0.00  0.00    +0.000 A 
ATOM      5  C   UNL     1       1.040   8.294  20.752  0.00  0.00    +0.000 A 
ATOM      6  N   UNL     1       1.855   8.443  19.650  0.00  0.00    +0.000 N 
ATOM      7  C   UNL     1       2.460   7.243  19.324  0.00  0.00    +0.000 A 
ATOM      8  C   UNL     1       3.321   6.908  18.272  0.00  0.00    +0.000 A 
ATOM      9  C   UNL     1       3.729   5.567  18.175  0.00  0.00    +0.000 A 
ATOM     10  H   UNL     1       1.983   9.301  19.133  0.00  0.00    +0.000 HD
ENDROOT
BRANCH   9  11
ATOM     11  C   UNL     1       4.599   5.131  17.034  0.00  0.00    +0.000 C 
ATOM     12  N   UNL     1       4.894   6.009  16.135  0.00  0.00    +0.000 NA
ATOM     13  C   UNL     1       5.732   5.598  15.002  0.00  0.00    +0.000 C 
ATOM     14  C   UNL     1       6.587   4.375  15.298  0.00  0.00    +0.000 C 
ATOM     15  C   UNL     1       5.697   3.289  15.859  0.00  0.00    +0.000 C 
ATOM     16  N   UNL     1       5.026   3.821  17.018  0.00  0.00    +0.000 N 
ATOM     17  H   UNL     1       4.462   3.154  17.534  0.00  0.00    +0.000 HD
ENDBRANCH   9  11
BRANCH   5  18
ATOM     18  C   UNL     1       0.182   9.342  21.302  0.00  0.00    +0.000 A 
ATOM     19  C   UNL     1      -0.189  10.426  20.501  0.00  0.00    +0.000 A 
ATOM     20  C   UNL     1      -0.921  11.494  21.031  0.00  0.00    +0.000 A 
ATOM     21  C   UNL     1      -1.322  11.513  22.378  0.00  0.00    +0.000 A 
ATOM     22  C   UNL     1      -0.953  10.411  23.169  0.00  0.00    +0.000 A 
ATOM     23  C   UNL     1      -0.214   9.340  22.641  0.00  0.00    +0.000 A 
BRANCH  21  24
ATOM     24  C   UNL     1      -2.076  12.652  22.927  0.00  0.00    +0.000 A 
ATOM     25  C   UNL     1      -3.455  12.704  22.965  0.00  0.00    +0.000 A 
ATOM     26  N   UNL     1      -4.181  13.745  23.426  0.00  0.00    +0.000 NA
ATOM     27  C   UNL     1      -3.519  14.826  23.860  0.00  0.00    +0.000 A 
ATOM     28  N   UNL     1      -4.233  15.927  24.285  0.00  0.00    +0.000 N 
ATOM     29  C   UNL     1      -5.684  15.935  24.153  0.00  0.00    +0.000 C 
ATOM     30  C   UNL     1      -5.991  17.235  23.420  0.00  0.00    +0.000 C 
ATOM     31  C   UNL     1      -4.863  18.160  23.848  0.00  0.00    +0.000 C 
ATOM     32  C   UNL     1      -3.656  17.232  23.981  0.00  0.00    +0.000 C 
ATOM     33  N   UNL     1      -2.177  14.877  23.891  0.00  0.00    +0.000 NA
ATOM     34  C   UNL     1      -1.496  13.796  23.440  0.00  0.00    +0.000 A 
ENDBRANCH  21  24
ENDBRANCH   5  18
TORSDOF 3
ENDMDL
MODEL 5
REMARK VINA RESULT:      -8.6      1.050      1.984
REMARK  Name = 
REMARK  3 active torsions:
REMARK  status: ('A' for Active; 'I' for Inactive)
REMARK    1  A    between atoms: C_5  and  C_6
REMARK    2  A    between atoms: C_9  and  C_10
REMARK    3  A    between atoms: C_26  and  C_27
REMARK                            x       y       z     vdW  Elec       q    Type
REMARK                         _______ _______ _______ _____ _____    ______ ____
ROOT
ATOM      1  C   UNL     1       5.475   4.110  16.697  0.00  0.00    +0.000 A 
ATOM      2  C   UNL     1       4.773   4.337  17.882  0.00  0.00    +0.000 A 
ATOM      3  C   UNL     1       4.094   5.555  18.054  0.00  0.00    +0.000 A 
ATOM      4  C   UNL     1       3.286   6.078  19.089  0.00  0.00    +0.000 A 
ATOM      5  C   UNL     1       2.808   7.315  18.697  0.00  0.00    +0.000 A 
ATOM      6  N   UNL     1       3.383   7.585  17.474  0.00  0.00    +0.000 N 
ATOM      7  C   UNL     1       4.152   6.518  17.047  0.00  0.00    +0.000 A 
ATOM      8  C   UNL     1       4.875   6.325  15.865  0.00  0.00    +0.000 A 
ATOM      9  C   UNL     1       5.520   5.088  15.698  0.00  0.00    +0.000 A 
ATOM     10  H   UNL     1       3.249   8.435  16.944  0.00  0.00    +0.000 HD
ENDROOT
BRANCH   9  11
ATOM     11  C   UNL     1       6.257   4.795  14.425  0.00  0.00    +0.000 C 
ATOM     12  N   UNL     1       7.322   5.479  14.178  0.00  0.00    +0.000 NA
ATOM     13  C   UNL     1       8.050   5.217  12.930  0.00  0.00    +0.000 C 
ATOM     14  C   UNL     1       7.787   3.832  12.359  0.00  0.00    +0.000 C 
ATOM     15  C   UNL     1       6.292   3.618  12.283  0.00  0.00    +0.000 C 
ATOM     16  N   UNL     1       5.748   3.813  13.602  0.00  0.00    +0.000 N 
ATOM     17  H   UNL     1       4.758   3.612  13.695  0.00  0.00    +0.000 HD
ENDBRANCH   9  11
BRANCH   5  18
ATOM     18  C   UNL     1       1.862   8.192  19.387  0.00  0.00    +0.000 A 
ATOM     19  C   UNL     1       1.335   9.302  18.721  0.00  0.00    +0.000 A 
ATOM     20  C   UNL     1       0.511  10.215  19.388  0.00  0.00    +0.000 A 
ATOM     21  C   UNL     1       0.172  10.045  20.742  0.00  0.00    +0.000 A 
ATOM     22  C   UNL     1       0.699   8.917  21.395  0.00  0.00    +0.000 A 
ATOM     23  C   UNL     1       1.530   8.003  20.729  0.00  0.00    +0.000 A 
BRANCH  21  24
ATOM     24  C   UNL     1      -0.681  11.024  21.436  0.00  0.00    +0.000 A 
ATOM     25  C   UNL     1      -1.482  11.937  20.779  0.00  0.00    +0.000 A 
ATOM     26  N   UNL     1      -2.248  12.872  21.380  0.00  0.00    +0.000 NA
ATOM     27  C   UNL     1      -2.216  12.942  22.718  0.00  0.00    +0.000 A 
ATOM     28  N   UNL     1      -2.945  13.923  23.358  0.00  0.00    +0.000 N 
ATOM     29  C   UNL     1      -3.645  14.927  22.568  0.00  0.00    +0.000 C 
ATOM     30  C   UNL     1      -3.182  16.257  23.148  0.00  0.00    +0.000 C 
ATOM     31  C   UNL     1      -2.889  15.928  24.603  0.00  0.00    +0.000 C 
ATOM     32  C   UNL     1      -2.345  14.500  24.555  0.00  0.00    +0.000 C 
ATOM     33  N   UNL     1      -1.492  12.089  23.460  0.00  0.00    +0.000 NA
ATOM     34  C   UNL     1      -0.760  11.153  22.809  0.00  0.00    +0.000 A 
ENDBRANCH  21  24
ENDBRANCH   5  18
TORSDOF 3
ENDMDL
MODEL 6
REMARK VINA RESULT:      -8.6      1.299      1.795
REMARK  Name = 
REMARK  3 active torsions:
REMARK  status: ('A' for Active; 'I' for Inactive)
REMARK    1  A    between atoms: C_5  and  C_6
REMARK    2  A    between atoms: C_9  and  C_10
REMARK    3  A    between atoms: C_26  and  C_27
REMARK                            x       y       z     vdW  Elec       q    Type
REMARK                         _______ _______ _______ _____ _____    ______ ____
ROOT
ATOM      1  C   UNL     1       5.070   4.012  16.336  0.00  0.00    +0.000 A 
ATOM      2  C   UNL     1       4.291   4.258  17.468  0.00  0.00    +0.000 A 
ATOM      3  C   UNL     1       3.840   5.564  17.719  0.00  0.00    +0.000 A 
ATOM      4  C   UNL     1       3.030   6.134  18.728  0.00  0.00    +0.000 A 
ATOM      5  C   UNL     1       2.844   7.475  18.442  0.00  0.00    +0.000 A 
ATOM      6  N   UNL     1       3.597   7.743  17.319  0.00  0.00    +0.000 N 
ATOM      7  C   UNL     1       4.194   6.590  16.844  0.00  0.00    +0.000 A 
ATOM      8  C   UNL     1       5.001   6.373  15.721  0.00  0.00    +0.000 A 
ATOM      9  C   UNL     1       5.415   5.054  15.470  0.00  0.00    +0.000 A 
ATOM     10  H   UNL     1       3.689   8.650  16.884  0.00  0.00    +0.000 HD
ENDROOT
BRANCH   9  11
ATOM     11  C   UNL     1       6.226   4.745  14.246  0.00  0.00    +0.000 C 
ATOM     12  N   UNL     1       5.821   3.784  13.486  0.00  0.00    +0.000 NA
ATOM     13  C   UNL     1       6.609   3.457  12.291  0.00  0.00    +0.000 C 
ATOM     14  C   UNL     1       7.472   4.611  11.804  0.00  0.00    +0.000 C 
ATOM     15  C   UNL     1       8.274   5.139  12.972  0.00  0.00    +0.000 C 
ATOM     16  N   UNL     1       7.350   5.507  14.014  0.00  0.00    +0.000 N 
ATOM     17  H   UNL     1       7.768   5.958  14.822  0.00  0.00    +0.000 HD
ENDBRANCH   9  11
BRANCH   5  18
ATOM     18  C   UNL     1       2.007   8.451  19.138  0.00  0.00    +0.000 A 
ATOM     19  C   UNL     1       1.671   9.652  18.506  0.00  0.00    +0.000 A 
ATOM     20  C   UNL     1       0.961  10.648  19.185  0.00  0.00    +0.000 A 
ATOM     21  C   UNL     1       0.549  10.476  20.518  0.00  0.00    +0.000 A 
ATOM     22  C   UNL     1       0.882   9.259  21.137  0.00  0.00    +0.000 A 
ATOM     23  C   UNL     1       1.599   8.260  20.459  0.00  0.00    +0.000 A 
BRANCH  21  24
ATOM     24  C   UNL     1      -0.182  11.540  21.227  0.00  0.00    +0.000 A 
ATOM     25  C   UNL     1       0.424  12.675  21.727  0.00  0.00    +0.000 A 
ATOM     26  N   UNL     1      -0.205  13.653  22.414  0.00  0.00    +0.000 NA
ATOM     27  C   UNL     1      -1.515  13.507  22.653  0.00  0.00    +0.000 A 
ATOM     28  N   UNL     1      -2.174  14.461  23.399  0.00  0.00    +0.000 N 
ATOM     29  C   UNL     1      -1.416  15.549  24.002  0.00  0.00    +0.000 C 
ATOM     30  C   UNL     1      -1.821  15.524  25.470  0.00  0.00    +0.000 C 
ATOM     31  C   UNL     1      -3.240  14.982  25.440  0.00  0.00    +0.000 C 
ATOM     32  C   UNL     1      -3.227  13.979  24.286  0.00  0.00    +0.000 C 
ATOM     33  N   UNL     1      -2.212  12.454  22.192  0.00  0.00    +0.000 NA
ATOM     34  C   UNL     1      -1.538  11.514  21.488  0.00  0.00    +0.000 A 
ENDBRANCH  21  24
ENDBRANCH   5  18
TORSDOF 3
ENDMDL
MODEL 7
REMARK VINA RESULT:      -8.5      1.474     12.620
REMARK  Name = 
REMARK  3 active torsions:
REMARK  status: ('A' for Active; 'I' for Inactive)
REMARK    1  A    between atoms: C_5  and  C_6
REMARK    2  A    between atoms: C_9  and  C_10
REMARK    3  A    between atoms: C_26  and  C_27
REMARK                            x       y       z     vdW  Elec       q    Type
REMARK                         _______ _______ _______ _____ _____    ______ ____
ROOT
ATOM      1  C   UNL     1      -2.103  11.798  23.357  0.00  0.00    +0.000 A 
ATOM      2  C   UNL     1      -1.218  10.718  23.339  0.00  0.00    +0.000 A 
ATOM      3  C   UNL     1      -0.633  10.333  22.122  0.00  0.00    +0.000 A 
ATOM      4  C   UNL     1       0.301   9.333  21.768  0.00  0.00    +0.000 A 
ATOM      5  C   UNL     1       0.585   9.448  20.419  0.00  0.00    +0.000 A 
ATOM      6  N   UNL     1      -0.227  10.450  19.934  0.00  0.00    +0.000 N 
ATOM      7  C   UNL     1      -0.961  11.023  20.956  0.00  0.00    +0.000 A 
ATOM      8  C   UNL     1      -1.870  12.088  20.945  0.00  0.00    +0.000 A 
ATOM      9  C   UNL     1      -2.419  12.479  22.177  0.00  0.00    +0.000 A 
ATOM     10  H   UNL     1      -0.271  10.747  18.969  0.00  0.00    +0.000 HD
ENDROOT
BRANCH   9  11
ATOM     11  C   UNL     1      -3.349  13.654  22.242  0.00  0.00    +0.000 C 
ATOM     12  N   UNL     1      -3.506  14.232  23.385  0.00  0.00    +0.000 NA
ATOM     13  C   UNL     1      -4.423  15.375  23.473  0.00  0.00    +0.000 C 
ATOM     14  C   UNL     1      -4.645  16.073  22.139  0.00  0.00    +0.000 C 
ATOM     15  C   UNL     1      -5.020  15.032  21.108  0.00  0.00    +0.000 C 
ATOM     16  N   UNL     1      -3.974  14.041  21.076  0.00  0.00    +0.000 N 
ATOM     17  H   UNL     1      -4.073  13.332  20.358  0.00  0.00    +0.000 HD
ENDBRANCH   9  11
BRANCH   5  18
ATOM     18  C   UNL     1       1.559   8.703  19.622  0.00  0.00    +0.000 A 
ATOM     19  C   UNL     1       1.976   9.209  18.388  0.00  0.00    +0.000 A 
ATOM     20  C   UNL     1       2.825   8.470  17.557  0.00  0.00    +0.000 A 
ATOM     21  C   UNL     1       3.299   7.202  17.935  0.00  0.00    +0.000 A 
ATOM     22  C   UNL     1       2.882   6.710  19.184  0.00  0.00    +0.000 A 
ATOM     23  C   UNL     1       2.025   7.448  20.017  0.00  0.00    +0.000 A 
BRANCH  21  24
ATOM     24  C   UNL     1       4.177   6.426  17.043  0.00  0.00    +0.000 A 
ATOM     25  C   UNL     1       5.282   6.960  16.411  0.00  0.00    +0.000 A 
ATOM     26  N   UNL     1       6.088   6.291  15.558  0.00  0.00    +0.000 NA
ATOM     27  C   UNL     1       5.784   5.016  15.280  0.00  0.00    +0.000 A 
ATOM     28  N   UNL     1       6.556   4.324  14.370  0.00  0.00    +0.000 N 
ATOM     29  C   UNL     1       7.615   5.019  13.652  0.00  0.00    +0.000 C 
ATOM     30  C   UNL     1       7.343   4.711  12.185  0.00  0.00    +0.000 C 
ATOM     31  C   UNL     1       6.677   3.345  12.225  0.00  0.00    +0.000 C 
ATOM     32  C   UNL     1       5.854   3.375  13.513  0.00  0.00    +0.000 C 
ATOM     33  N   UNL     1       4.746   4.388  15.855  0.00  0.00    +0.000 NA
ATOM     34  C   UNL     1       3.984   5.096  16.722  0.00  0.00    +0.000 A 
ENDBRANCH  21  24
ENDBRANCH   5  18
TORSDOF 3
ENDMDL
MODEL 8
REMARK VINA RESULT:      -8.2      2.149      3.534
REMARK  Name = 
REMARK  3 active torsions:
REMARK  status: ('A' for Active; 'I' for Inactive)
REMARK    1  A    between atoms: C_5  and  C_6
REMARK    2  A    between atoms: C_9  and  C_10
REMARK    3  A    between atoms: C_26  and  C_27
REMARK                            x       y       z     vdW  Elec       q    Type
REMARK                         _______ _______ _______ _____ _____    ______ ____
ROOT
ATOM      1  C   UNL     1       3.491   4.833  19.075  0.00  0.00    +0.000 A 
ATOM      2  C   UNL     1       2.702   5.255  20.146  0.00  0.00    +0.000 A 
ATOM      3  C   UNL     1       2.178   6.558  20.138  0.00  0.00    +0.000 A 
ATOM      4  C   UNL     1       1.339   7.272  21.024  0.00  0.00    +0.000 A 
ATOM      5  C   UNL     1       1.076   8.517  20.481  0.00  0.00    +0.000 A 
ATOM      6  N   UNL     1       1.811   8.598  19.318  0.00  0.00    +0.000 N 
ATOM      7  C   UNL     1       2.472   7.407  19.073  0.00  0.00    +0.000 A 
ATOM      8  C   UNL     1       3.287   7.017  18.004  0.00  0.00    +0.000 A 
ATOM      9  C   UNL     1       3.775   5.699  18.014  0.00  0.00    +0.000 A 
ATOM     10  H   UNL     1       1.851   9.403  18.710  0.00  0.00    +0.000 HD
ENDROOT
BRANCH   9  11
ATOM     11  C   UNL     1       4.600   5.199  16.866  0.00  0.00    +0.000 C 
ATOM     12  N   UNL     1       4.844   3.933  16.810  0.00  0.00    +0.000 NA
ATOM     13  C   UNL     1       5.662   3.425  15.702  0.00  0.00    +0.000 C 
ATOM     14  C   UNL     1       5.659   4.336  14.484  0.00  0.00    +0.000 C 
ATOM     15  C   UNL     1       5.995   5.741  14.933  0.00  0.00    +0.000 C 
ATOM     16  N   UNL     1       5.043   6.123  15.945  0.00  0.00    +0.000 N 
ATOM     17  H   UNL     1       5.114   7.083  16.264  0.00  0.00    +0.000 HD
ENDBRANCH   9  11
BRANCH   5  18
ATOM     18  C   UNL     1       0.187   9.564  20.981  0.00  0.00    +0.000 A 
ATOM     19  C   UNL     1      -0.364  10.489  20.089  0.00  0.00    +0.000 A 
ATOM     20  C   UNL     1      -1.133  11.563  20.551  0.00  0.00    +0.000 A 
ATOM     21  C   UNL     1      -1.391  11.745  21.921  0.00  0.00    +0.000 A 
ATOM     22  C   UNL     1      -0.842  10.801  22.805  0.00  0.00    +0.000 A 
ATOM     23  C   UNL     1      -0.065   9.725  22.344  0.00  0.00    +0.000 A 
BRANCH  21  24
ATOM     24  C   UNL     1      -2.186  12.891  22.394  0.00  0.00    +0.000 A 
ATOM     25  C   UNL     1      -2.679  13.872  21.558  0.00  0.00    +0.000 A 
ATOM     26  N   UNL     1      -3.379  14.955  21.959  0.00  0.00    +0.000 NA
ATOM     27  C   UNL     1      -3.596  15.109  23.272  0.00  0.00    +0.000 A 
ATOM     28  N   UNL     1      -4.260  16.233  23.718  0.00  0.00    +0.000 N 
ATOM     29  C   UNL     1      -4.615  17.279  22.768  0.00  0.00    +0.000 C 
ATOM     30  C   UNL     1      -4.057  18.555  23.385  0.00  0.00    +0.000 C 
ATOM     31  C   UNL     1      -4.111  18.283  24.879  0.00  0.00    +0.000 C 
ATOM     32  C   UNL     1      -3.815  16.787  24.992  0.00  0.00    +0.000 C 
ATOM     33  N   UNL     1      -3.183  14.204  24.175  0.00  0.00    +0.000 NA
ATOM     34  C   UNL     1      -2.507  13.123  23.718  0.00  0.00    +0.000 A 
ENDBRANCH  21  24
ENDBRANCH   5  18
TORSDOF 3
ENDMDL
MODEL 9
REMARK VINA RESULT:      -8.1      1.219      1.710
REMARK  Name = 
REMARK  3 active torsions:
REMARK  status: ('A' for Active; 'I' for Inactive)
REMARK    1  A    between atoms: C_5  and  C_6
REMARK    2  A    between atoms: C_9  and  C_10
REMARK    3  A    between atoms: C_26  and  C_27
REMARK                            x       y       z     vdW  Elec       q    Type
REMARK                         _______ _______ _______ _____ _____    ______ ____
ROOT
ATOM      1  C   UNL     1       4.428   4.635  17.680  0.00  0.00    +0.000 A 
ATOM      2  C   UNL     1       3.595   5.021  18.731  0.00  0.00    +0.000 A 
ATOM      3  C   UNL     1       3.077   6.327  18.751  0.00  0.00    +0.000 A 
ATOM      4  C   UNL     1       2.204   7.011  19.627  0.00  0.00    +0.000 A 
ATOM      5  C   UNL     1       1.969   8.277  19.121  0.00  0.00    +0.000 A 
ATOM      6  N   UNL     1       2.754   8.398  17.994  0.00  0.00    +0.000 N 
ATOM      7  C   UNL     1       3.420   7.214  17.732  0.00  0.00    +0.000 A 
ATOM      8  C   UNL     1       4.279   6.860  16.686  0.00  0.00    +0.000 A 
ATOM      9  C   UNL     1       4.760   5.540  16.667  0.00  0.00    +0.000 A 
ATOM     10  H   UNL     1       2.823   9.226  17.420  0.00  0.00    +0.000 HD
ENDROOT
BRANCH   9  11
ATOM     11  C   UNL     1       5.632   5.079  15.536  0.00  0.00    +0.000 C 
ATOM     12  N   UNL     1       5.182   4.135  14.779  0.00  0.00    +0.000 NA
ATOM     13  C   UNL     1       6.026   3.660  13.676  0.00  0.00    +0.000 C 
ATOM     14  C   UNL     1       7.062   4.680  13.227  0.00  0.00    +0.000 C 
ATOM     15  C   UNL     1       7.816   5.168  14.443  0.00  0.00    +0.000 C 
ATOM     16  N   UNL     1       6.856   5.692  15.380  0.00  0.00    +0.000 N 
ATOM     17  H   UNL     1       7.253   6.130  16.205  0.00  0.00    +0.000 HD
ENDBRANCH   9  11
BRANCH   5  18
ATOM     18  C   UNL     1       1.063   9.310  19.622  0.00  0.00    +0.000 A 
ATOM     19  C   UNL     1       0.667   9.293  20.962  0.00  0.00    +0.000 A 
ATOM     20  C   UNL     1      -0.279  10.204  21.443  0.00  0.00    +0.000 A 
ATOM     21  C   UNL     1      -0.855  11.175  20.605  0.00  0.00    +0.000 A 
ATOM     22  C   UNL     1      -0.438  11.189  19.263  0.00  0.00    +0.000 A 
ATOM     23  C   UNL     1       0.508  10.272  18.777  0.00  0.00    +0.000 A 
BRANCH  21  24
ATOM     24  C   UNL     1      -1.864  12.117  21.120  0.00  0.00    +0.000 A 
ATOM     25  C   UNL     1      -2.305  12.118  22.429  0.00  0.00    +0.000 A 
ATOM     26  N   UNL     1      -3.254  12.939  22.928  0.00  0.00    +0.000 NA
ATOM     27  C   UNL     1      -3.834  13.808  22.089  0.00  0.00    +0.000 A 
ATOM     28  N   UNL     1      -4.845  14.621  22.556  0.00  0.00    +0.000 N 
ATOM     29  C   UNL     1      -5.335  14.447  23.916  0.00  0.00    +0.000 C 
ATOM     30  C   UNL     1      -6.844  14.307  23.761  0.00  0.00    +0.000 C 
ATOM     31  C   UNL     1      -7.152  15.124  22.517  0.00  0.00    +0.000 C 
ATOM     32  C   UNL     1      -5.929  14.909  21.623  0.00  0.00    +0.000 C 
ATOM     33  N   UNL     1      -3.467  13.910  20.801  0.00  0.00    +0.000 NA
ATOM     34  C   UNL     1      -2.493  13.080  20.356  0.00  0.00    +0.000 A 
ENDBRANCH  21  24
ENDBRANCH   5  18
TORSDOF 3
ENDMDL
