MODEL 1
REMARK VINA RESULT:      -8.6      0.000      0.000
REMARK  Name = 
REMARK  5 active torsions:
REMARK  status: ('A' for Active; 'I' for Inactive)
REMARK    1  A    between atoms: N_1  and  C_2
REMARK    2  A    between atoms: C_5  and  C_6
REMARK    3  A    between atoms: C_8  and  N_9
REMARK    4  A    between atoms: C_24  and  O_25
REMARK    5  A    between atoms: O_25  and  C_26
REMARK                            x       y       z     vdW  Elec       q    Type
REMARK                         _______ _______ _______ _____ _____    ______ ____
ROOT
ATOM      1  C   UNL     1       2.682   7.021  18.800  0.00  0.00    +0.000 A 
ATOM      2  C   UNL     1       3.490   6.711  17.720  0.00  0.00    +0.000 A 
ATOM      3  C   UNL     1       4.013   5.442  17.642  0.00  0.00    +0.000 A 
ATOM      4  N   UNL     1       3.755   4.550  18.607  0.00  0.00    +0.000 NA
ATOM      5  C   UNL     1       3.008   4.917  19.660  0.00  0.00    +0.000 A 
ATOM      6  N   UNL     1       2.804   3.971  20.672  0.00  0.00    +0.000 N 
ATOM      7  C   UNL     1       2.818   2.556  20.480  0.00  0.00    +0.000 C 
ATOM      8  C   UNL     1       1.531   2.473  21.295  0.00  0.00    +0.000 C 
ATOM      9  C   UNL     1       1.726   3.956  21.610  0.00  0.00    +0.000 C 
ATOM     10  N   UNL     1       2.459   6.136  19.788  0.00  0.00    +0.000 NA
ENDROOT
BRANCH   3  11
ATOM     11  N   UNL     1       4.828   5.064  16.619  0.00  0.00    +0.000 N 
ATOM     12  C   UNL     1       5.318   3.715  16.314  0.00  0.00    +0.000 C 
ATOM     13  C   UNL     1       6.442   4.045  15.293  0.00  0.00    +0.000 C 
ATOM     14  C   UNL     1       5.883   5.266  14.576  0.00  0.00    +0.000 C 
ATOM     15  C   UNL     1       5.685   6.015  15.889  0.00  0.00    +0.000 C 
ATOM     16  C   UNL     1       7.112   5.913  16.461  0.00  0.00    +0.000 C 
ATOM     17  O   UNL     1       7.574   4.594  16.025  0.00  0.00    +0.000 OA
ENDBRANCH   3  11
BRANCH   1  21
ATOM     18  C   UNL     1       0.732  10.801  19.081  0.00  0.00    +0.000 A 
ATOM     19  N   UNL     1       1.491  10.528  18.004  0.00  0.00    +0.000 NA
ATOM     20  C   UNL     1       2.098   9.310  17.943  0.00  0.00    +0.000 A 
ATOM     21  C   UNL     1       2.013   8.328  18.924  0.00  0.00    +0.000 A 
ATOM     22  C   UNL     1       1.237   8.669  20.041  0.00  0.00    +0.000 A 
ATOM     23  C   UNL     1       0.557   9.888  20.121  0.00  0.00    +0.000 A 
BRANCH  18  24
ATOM     24  N   UNL     1       0.143  12.067  19.060  0.00  0.00    +0.000 N 
ATOM     25  H   UNL     1       0.281  12.436  20.001  0.00  0.00    +0.000 HD
ATOM     26  H   UNL     1       0.649  12.659  18.402  0.00  0.00    +0.000 HD
ENDBRANCH  18  24
BRANCH  23  27
ATOM     27  O   UNL     1      -0.175  10.014  21.266  0.00  0.00    +0.000 OA
BRANCH  27  28
ATOM     28  C   UNL     1       0.110   9.143  22.343  0.00  0.00    +0.000 C 
ATOM     29  F   UNL     1       0.144   9.831  23.515  0.00  0.00    +0.000 F 
ATOM     30  F   UNL     1      -0.949   8.294  22.444  0.00  0.00    +0.000 F 
ENDBRANCH  27  28
ENDBRANCH  23  27
ENDBRANCH   1  21
TORSDOF 5
ENDMDL
MODEL 2
REMARK VINA RESULT:      -8.2      1.100      1.371
REMARK  Name = 
REMARK  5 active torsions:
REMARK  status: ('A' for Active; 'I' for Inactive)
REMARK    1  A    between atoms: N_1  and  C_2
REMARK    2  A    between atoms: C_5  and  C_6
REMARK    3  A    between atoms: C_8  and  N_9
REMARK    4  A    between atoms: C_24  and  O_25
REMARK    5  A    between atoms: O_25  and  C_26
REMARK                            x       y       z     vdW  Elec       q    Type
REMARK                         _______ _______ _______ _____ _____    ______ ____
ROOT
ATOM      1  C   UNL     1       2.542   7.046  18.835  0.00  0.00    +0.000 A 
ATOM      2  C   UNL     1       3.690   7.057  18.062  0.00  0.00    +0.000 A 
ATOM      3  C   UNL     1       4.257   5.851  17.722  0.00  0.00    +0.000 A 
ATOM      4  N   UNL     1       3.712   4.709  18.157  0.00  0.00    +0.000 NA
ATOM      5  C   UNL     1       2.627   4.755  18.948  0.00  0.00    +0.000 A 
ATOM      6  N   UNL     1       2.118   3.540  19.423  0.00  0.00    +0.000 N 
ATOM      7  C   UNL     1       2.256   2.283  18.758  0.00  0.00    +0.000 C 
ATOM      8  C   UNL     1       0.768   2.040  18.997  0.00  0.00    +0.000 C 
ATOM      9  C   UNL     1       0.781   3.299  19.864  0.00  0.00    +0.000 C 
ATOM     10  N   UNL     1       2.021   5.899  19.304  0.00  0.00    +0.000 NA
ENDROOT
BRANCH   3  11
ATOM     11  N   UNL     1       5.394   5.778  16.977  0.00  0.00    +0.000 N 
ATOM     12  C   UNL     1       5.636   4.953  15.788  0.00  0.00    +0.000 C 
ATOM     13  C   UNL     1       7.181   5.069  15.672  0.00  0.00    +0.000 C 
ATOM     14  C   UNL     1       7.441   6.481  16.176  0.00  0.00    +0.000 C 
ATOM     15  C   UNL     1       6.709   6.208  17.485  0.00  0.00    +0.000 C 
ATOM     16  C   UNL     1       7.477   4.956  17.952  0.00  0.00    +0.000 C 
ATOM     17  O   UNL     1       7.779   4.242  16.710  0.00  0.00    +0.000 OA
ENDBRANCH   3  11
BRANCH   1  21
ATOM     18  C   UNL     1       0.405  10.616  19.765  0.00  0.00    +0.000 A 
ATOM     19  N   UNL     1       0.578  10.267  18.477  0.00  0.00    +0.000 NA
ATOM     20  C   UNL     1       1.262   9.119  18.214  0.00  0.00    +0.000 A 
ATOM     21  C   UNL     1       1.821   8.285  19.177  0.00  0.00    +0.000 A 
ATOM     22  C   UNL     1       1.641   8.705  20.502  0.00  0.00    +0.000 A 
ATOM     23  C   UNL     1       0.904   9.850  20.819  0.00  0.00    +0.000 A 
BRANCH  18  24
ATOM     24  N   UNL     1      -0.311  11.801  19.945  0.00  0.00    +0.000 N 
ATOM     25  H   UNL     1      -1.134  11.702  19.350  0.00  0.00    +0.000 HD
ATOM     26  H   UNL     1      -0.617  11.861  20.915  0.00  0.00    +0.000 HD
ENDBRANCH  18  24
BRANCH  23  27
ATOM     27  O   UNL     1       0.810  10.067  22.163  0.00  0.00    +0.000 OA
BRANCH  27  28
ATOM     28  C   UNL     1      -0.357   9.629  22.833  0.00  0.00    +0.000 C 
ATOM     29  F   UNL     1      -0.832   8.489  22.264  0.00  0.00    +0.000 F 
ATOM     30  F   UNL     1       0.026   9.282  24.091  0.00  0.00    +0.000 F 
ENDBRANCH  27  28
ENDBRANCH  23  27
ENDBRANCH   1  21
TORSDOF 5
ENDMDL
MODEL 3
REMARK VINA RESULT:      -8.2      3.888      7.626
REMARK  Name = 
REMARK  5 active torsions:
REMARK  status: ('A' for Active; 'I' for Inactive)
REMARK    1  A    between atoms: N_1  and  C_2
REMARK    2  A    between atoms: C_5  and  C_6
REMARK    3  A    between atoms: C_8  and  N_9
REMARK    4  A    between atoms: C_24  and  O_25
REMARK    5  A    between atoms: O_25  and  C_26
REMARK                            x       y       z     vdW  Elec       q    Type
REMARK                         _______ _______ _______ _____ _____    ______ ____
ROOT
ATOM      1  C   UNL     1       3.935   5.873  17.593  0.00  0.00    +0.000 A 
ATOM      2  C   UNL     1       3.432   7.136  17.851  0.00  0.00    +0.000 A 
ATOM      3  C   UNL     1       2.478   7.268  18.833  0.00  0.00    +0.000 A 
ATOM      4  N   UNL     1       2.044   6.188  19.494  0.00  0.00    +0.000 NA
ATOM      5  C   UNL     1       2.526   4.978  19.170  0.00  0.00    +0.000 A 
ATOM      6  N   UNL     1       2.009   3.869  19.851  0.00  0.00    +0.000 N 
ATOM      7  C   UNL     1       1.466   3.904  21.171  0.00  0.00    +0.000 C 
ATOM      8  C   UNL     1       2.297   2.667  21.501  0.00  0.00    +0.000 C 
ATOM      9  C   UNL     1       2.652   2.604  20.016  0.00  0.00    +0.000 C 
ATOM     10  N   UNL     1       3.467   4.785  18.231  0.00  0.00    +0.000 NA
ENDROOT
BRANCH   3  11
ATOM     11  N   UNL     1       1.923   8.474  19.136  0.00  0.00    +0.000 N 
ATOM     12  C   UNL     1       1.177   8.839  20.345  0.00  0.00    +0.000 C 
ATOM     13  C   UNL     1       0.544  10.184  19.892  0.00  0.00    +0.000 C 
ATOM     14  C   UNL     1       1.613  10.755  18.973  0.00  0.00    +0.000 C 
ATOM     15  C   UNL     1       1.628   9.495  18.115  0.00  0.00    +0.000 C 
ATOM     16  C   UNL     1       0.130   9.405  17.766  0.00  0.00    +0.000 C 
ATOM     17  O   UNL     1      -0.545   9.887  18.972  0.00  0.00    +0.000 OA
ENDBRANCH   3  11
BRANCH   1  21
ATOM     18  C   UNL     1       7.118   5.241  14.828  0.00  0.00    +0.000 A 
ATOM     19  N   UNL     1       7.218   6.230  15.736  0.00  0.00    +0.000 NA
ATOM     20  C   UNL     1       6.186   6.403  16.607  0.00  0.00    +0.000 A 
ATOM     21  C   UNL     1       5.017   5.649  16.618  0.00  0.00    +0.000 A 
ATOM     22  C   UNL     1       4.944   4.652  15.636  0.00  0.00    +0.000 A 
ATOM     23  C   UNL     1       6.002   4.408  14.753  0.00  0.00    +0.000 A 
BRANCH  18  24
ATOM     24  N   UNL     1       8.221   5.130  13.979  0.00  0.00    +0.000 N 
ATOM     25  H   UNL     1       7.901   5.503  13.084  0.00  0.00    +0.000 HD
ATOM     26  H   UNL     1       8.971   5.724  14.329  0.00  0.00    +0.000 HD
ENDBRANCH  18  24
BRANCH  23  27
ATOM     27  O   UNL     1       5.755   3.371  13.901  0.00  0.00    +0.000 OA
BRANCH  27  28
ATOM     28  C   UNL     1       5.720   3.638  12.513  0.00  0.00    +0.000 C 
ATOM     29  F   UNL     1       6.329   2.639  11.821  0.00  0.00    +0.000 F 
ATOM     30  F   UNL     1       4.412   3.599  12.143  0.00  0.00    +0.000 F 
ENDBRANCH  27  28
ENDBRANCH  23  27
ENDBRANCH   1  21
TORSDOF 5
ENDMDL
MODEL 4
REMARK VINA RESULT:      -8.1      0.812      1.316
REMARK  Name = 
REMARK  5 active torsions:
REMARK  status: ('A' for Active; 'I' for Inactive)
REMARK    1  A    between atoms: N_1  and  C_2
REMARK    2  A    between atoms: C_5  and  C_6
REMARK    3  A    between atoms: C_8  and  N_9
REMARK    4  A    between atoms: C_24  and  O_25
REMARK    5  A    between atoms: O_25  and  C_26
REMARK                            x       y       z     vdW  Elec       q    Type
REMARK                         _______ _______ _______ _____ _____    ______ ____
ROOT
ATOM      1  C   UNL     1       2.603   7.186  19.033  0.00  0.00    +0.000 A 
ATOM      2  C   UNL     1       3.529   7.084  18.009  0.00  0.00    +0.000 A 
ATOM      3  C   UNL     1       4.175   5.883  17.832  0.00  0.00    +0.000 A 
ATOM      4  N   UNL     1       3.919   4.858  18.654  0.00  0.00    +0.000 NA
ATOM      5  C   UNL     1       3.051   5.024  19.665  0.00  0.00    +0.000 A 
ATOM      6  N   UNL     1       2.850   3.943  20.532  0.00  0.00    +0.000 N 
ATOM      7  C   UNL     1       3.015   2.570  20.175  0.00  0.00    +0.000 C 
ATOM      8  C   UNL     1       1.676   2.277  20.843  0.00  0.00    +0.000 C 
ATOM      9  C   UNL     1       1.701   3.719  21.350  0.00  0.00    +0.000 C 
ATOM     10  N   UNL     1       2.380   6.167  19.882  0.00  0.00    +0.000 NA
ENDROOT
BRANCH   3  11
ATOM     11  N   UNL     1       5.108   5.708  16.857  0.00  0.00    +0.000 N 
ATOM     12  C   UNL     1       5.133   6.311  15.520  0.00  0.00    +0.000 C 
ATOM     13  C   UNL     1       6.216   5.435  14.832  0.00  0.00    +0.000 C 
ATOM     14  C   UNL     1       7.163   5.124  15.982  0.00  0.00    +0.000 C 
ATOM     15  C   UNL     1       6.032   4.559  16.835  0.00  0.00    +0.000 C 
ATOM     16  C   UNL     1       5.471   3.511  15.854  0.00  0.00    +0.000 C 
ATOM     17  O   UNL     1       5.630   4.135  14.540  0.00  0.00    +0.000 OA
ENDBRANCH   3  11
BRANCH   1  21
ATOM     18  C   UNL     1       0.247  10.695  19.585  0.00  0.00    +0.000 A 
ATOM     19  N   UNL     1       0.492  10.254  18.337  0.00  0.00    +0.000 NA
ATOM     20  C   UNL     1       1.245   9.128  18.195  0.00  0.00    +0.000 A 
ATOM     21  C   UNL     1       1.805   8.406  19.245  0.00  0.00    +0.000 A 
ATOM     22  C   UNL     1       1.548   8.920  20.523  0.00  0.00    +0.000 A 
ATOM     23  C   UNL     1       0.739  10.044  20.717  0.00  0.00    +0.000 A 
BRANCH  18  24
ATOM     24  N   UNL     1      -0.537  11.849  19.640  0.00  0.00    +0.000 N 
ATOM     25  H   UNL     1      -1.269  11.701  18.944  0.00  0.00    +0.000 HD
ATOM     26  H   UNL     1      -0.972  11.913  20.559  0.00  0.00    +0.000 HD
ENDBRANCH  18  24
BRANCH  23  27
ATOM     27  O   UNL     1       0.577  10.362  22.033  0.00  0.00    +0.000 OA
BRANCH  27  28
ATOM     28  C   UNL     1      -0.462   9.727  22.753  0.00  0.00    +0.000 C 
ATOM     29  F   UNL     1      -0.820   8.565  22.146  0.00  0.00    +0.000 F 
ATOM     30  F   UNL     1       0.063   9.369  23.956  0.00  0.00    +0.000 F 
ENDBRANCH  27  28
ENDBRANCH  23  27
ENDBRANCH   1  21
TORSDOF 5
ENDMDL
MODEL 5
REMARK VINA RESULT:      -7.8      3.119      6.927
REMARK  Name = 
REMARK  5 active torsions:
REMARK  status: ('A' for Active; 'I' for Inactive)
REMARK    1  A    between atoms: N_1  and  C_2
REMARK    2  A    between atoms: C_5  and  C_6
REMARK    3  A    between atoms: C_8  and  N_9
REMARK    4  A    between atoms: C_24  and  O_25
REMARK    5  A    between atoms: O_25  and  C_26
REMARK                            x       y       z     vdW  Elec       q    Type
REMARK                         _______ _______ _______ _____ _____    ______ ____
ROOT
ATOM      1  C   UNL     1       3.642   5.791  18.225  0.00  0.00    +0.000 A 
ATOM      2  C   UNL     1       3.033   6.991  18.549  0.00  0.00    +0.000 A 
ATOM      3  C   UNL     1       2.047   6.982  19.508  0.00  0.00    +0.000 A 
ATOM      4  N   UNL     1       1.684   5.830  20.084  0.00  0.00    +0.000 NA
ATOM      5  C   UNL     1       2.269   4.685  19.696  0.00  0.00    +0.000 A 
ATOM      6  N   UNL     1       1.825   3.496  20.287  0.00  0.00    +0.000 N 
ATOM      7  C   UNL     1       1.247   3.399  21.589  0.00  0.00    +0.000 C 
ATOM      8  C   UNL     1       2.165   2.212  21.864  0.00  0.00    +0.000 C 
ATOM      9  C   UNL     1       2.562   2.277  20.389  0.00  0.00    +0.000 C 
ATOM     10  N   UNL     1       3.246   4.630  18.775  0.00  0.00    +0.000 NA
ENDROOT
BRANCH   3  11
ATOM     11  N   UNL     1       1.391   8.118  19.872  0.00  0.00    +0.000 N 
ATOM     12  C   UNL     1       1.585   9.474  19.347  0.00  0.00    +0.000 C 
ATOM     13  C   UNL     1       0.816  10.304  20.412  0.00  0.00    +0.000 C 
ATOM     14  C   UNL     1      -0.314   9.363  20.805  0.00  0.00    +0.000 C 
ATOM     15  C   UNL     1       0.663   8.243  21.147  0.00  0.00    +0.000 C 
ATOM     16  C   UNL     1       1.569   8.989  22.146  0.00  0.00    +0.000 C 
ATOM     17  O   UNL     1       1.626  10.354  21.621  0.00  0.00    +0.000 OA
ENDBRANCH   3  11
BRANCH   1  21
ATOM     18  C   UNL     1       6.832   5.566  15.406  0.00  0.00    +0.000 A 
ATOM     19  N   UNL     1       5.784   4.731  15.285  0.00  0.00    +0.000 NA
ATOM     20  C   UNL     1       4.780   4.830  16.200  0.00  0.00    +0.000 A 
ATOM     21  C   UNL     1       4.763   5.718  17.270  0.00  0.00    +0.000 A 
ATOM     22  C   UNL     1       5.888   6.547  17.373  0.00  0.00    +0.000 A 
ATOM     23  C   UNL     1       6.918   6.512  16.428  0.00  0.00    +0.000 A 
BRANCH  18  24
ATOM     24  N   UNL     1       7.812   5.400  14.425  0.00  0.00    +0.000 N 
ATOM     25  H   UNL     1       8.692   5.356  14.939  0.00  0.00    +0.000 HD
ATOM     26  H   UNL     1       7.665   4.508  13.955  0.00  0.00    +0.000 HD
ENDBRANCH  18  24
BRANCH  23  27
ATOM     27  O   UNL     1       7.903   7.422  16.681  0.00  0.00    +0.000 OA
BRANCH  27  28
ATOM     28  C   UNL     1       7.908   8.073  17.936  0.00  0.00    +0.000 C 
ATOM     29  F   UNL     1       8.656   7.374  18.831  0.00  0.00    +0.000 F 
ATOM     30  F   UNL     1       8.557   9.255  17.757  0.00  0.00    +0.000 F 
ENDBRANCH  27  28
ENDBRANCH  23  27
ENDBRANCH   1  21
TORSDOF 5
ENDMDL
MODEL 6
REMARK VINA RESULT:      -7.7      2.238      2.644
REMARK  Name = 
REMARK  5 active torsions:
REMARK  status: ('A' for Active; 'I' for Inactive)
REMARK    1  A    between atoms: N_1  and  C_2
REMARK    2  A    between atoms: C_5  and  C_6
REMARK    3  A    between atoms: C_8  and  N_9
REMARK    4  A    between atoms: C_24  and  O_25
REMARK    5  A    between atoms: O_25  and  C_26
REMARK                            x       y       z     vdW  Elec       q    Type
REMARK                         _______ _______ _______ _____ _____    ______ ____
ROOT
ATOM      1  C   UNL     1       2.457   6.938  19.446  0.00  0.00    +0.000 A 
ATOM      2  C   UNL     1       3.605   7.082  18.686  0.00  0.00    +0.000 A 
ATOM      3  C   UNL     1       4.196   5.947  18.182  0.00  0.00    +0.000 A 
ATOM      4  N   UNL     1       3.674   4.744  18.448  0.00  0.00    +0.000 NA
ATOM      5  C   UNL     1       2.589   4.656  19.234  0.00  0.00    +0.000 A 
ATOM      6  N   UNL     1       2.104   3.376  19.530  0.00  0.00    +0.000 N 
ATOM      7  C   UNL     1       2.267   2.229  18.694  0.00  0.00    +0.000 C 
ATOM      8  C   UNL     1       0.785   1.925  18.892  0.00  0.00    +0.000 C 
ATOM      9  C   UNL     1       0.772   3.049  19.928  0.00  0.00    +0.000 C 
ATOM     10  N   UNL     1       1.959   5.726  19.746  0.00  0.00    +0.000 NA
ENDROOT
BRANCH   3  11
ATOM     11  N   UNL     1       5.335   6.003  17.437  0.00  0.00    +0.000 N 
ATOM     12  C   UNL     1       5.555   5.463  16.091  0.00  0.00    +0.000 C 
ATOM     13  C   UNL     1       7.103   5.544  16.001  0.00  0.00    +0.000 C 
ATOM     14  C   UNL     1       7.413   6.793  16.814  0.00  0.00    +0.000 C 
ATOM     15  C   UNL     1       6.662   6.256  18.028  0.00  0.00    +0.000 C 
ATOM     16  C   UNL     1       7.379   4.903  18.195  0.00  0.00    +0.000 C 
ATOM     17  O   UNL     1       7.663   4.480  16.823  0.00  0.00    +0.000 OA
ENDBRANCH   3  11
BRANCH   1  21
ATOM     18  C   UNL     1       0.346  10.305  20.989  0.00  0.00    +0.000 A 
ATOM     19  N   UNL     1       0.808   9.369  21.839  0.00  0.00    +0.000 NA
ATOM     20  C   UNL     1       1.481   8.308  21.315  0.00  0.00    +0.000 A 
ATOM     21  C   UNL     1       1.711   8.101  19.958  0.00  0.00    +0.000 A 
ATOM     22  C   UNL     1       1.186   9.086  19.110  0.00  0.00    +0.000 A 
ATOM     23  C   UNL     1       0.531  10.217  19.610  0.00  0.00    +0.000 A 
BRANCH  18  24
ATOM     24  N   UNL     1      -0.326  11.360  21.611  0.00  0.00    +0.000 N 
ATOM     25  H   UNL     1      -0.770  10.941  22.429  0.00  0.00    +0.000 HD
ATOM     26  H   UNL     1       0.356  12.048  21.927  0.00  0.00    +0.000 HD
ENDBRANCH  18  24
BRANCH  23  27
ATOM     27  O   UNL     1       0.130  11.076  18.629  0.00  0.00    +0.000 OA
BRANCH  27  28
ATOM     28  C   UNL     1      -1.220  11.034  18.211  0.00  0.00    +0.000 C 
ATOM     29  F   UNL     1      -1.569  12.204  17.614  0.00  0.00    +0.000 F 
ATOM     30  F   UNL     1      -1.297  10.086  17.239  0.00  0.00    +0.000 F 
ENDBRANCH  27  28
ENDBRANCH  23  27
ENDBRANCH   1  21
TORSDOF 5
ENDMDL
MODEL 7
REMARK VINA RESULT:      -7.7      2.387      2.790
REMARK  Name = 
REMARK  5 active torsions:
REMARK  status: ('A' for Active; 'I' for Inactive)
REMARK    1  A    between atoms: N_1  and  C_2
REMARK    2  A    between atoms: C_5  and  C_6
REMARK    3  A    between atoms: C_8  and  N_9
REMARK    4  A    between atoms: C_24  and  O_25
REMARK    5  A    between atoms: O_25  and  C_26
REMARK                            x       y       z     vdW  Elec       q    Type
REMARK                         _______ _______ _______ _____ _____    ______ ____
ROOT
ATOM      1  C   UNL     1       2.460   6.920  19.358  0.00  0.00    +0.000 A 
ATOM      2  C   UNL     1       3.599   7.048  18.582  0.00  0.00    +0.000 A 
ATOM      3  C   UNL     1       4.182   5.904  18.089  0.00  0.00    +0.000 A 
ATOM      4  N   UNL     1       3.660   4.707  18.381  0.00  0.00    +0.000 NA
ATOM      5  C   UNL     1       2.584   4.634  19.181  0.00  0.00    +0.000 A 
ATOM      6  N   UNL     1       2.100   3.360  19.503  0.00  0.00    +0.000 N 
ATOM      7  C   UNL     1       2.250   2.200  18.684  0.00  0.00    +0.000 C 
ATOM      8  C   UNL     1       0.770   1.902  18.904  0.00  0.00    +0.000 C 
ATOM      9  C   UNL     1       0.772   3.042  19.923  0.00  0.00    +0.000 C 
ATOM     10  N   UNL     1       1.963   5.714  19.683  0.00  0.00    +0.000 NA
ENDROOT
BRANCH   3  11
ATOM     11  N   UNL     1       5.312   5.945  17.330  0.00  0.00    +0.000 N 
ATOM     12  C   UNL     1       5.511   5.392  15.986  0.00  0.00    +0.000 C 
ATOM     13  C   UNL     1       7.058   5.461  15.877  0.00  0.00    +0.000 C 
ATOM     14  C   UNL     1       7.387   6.715  16.675  0.00  0.00    +0.000 C 
ATOM     15  C   UNL     1       6.647   6.194  17.902  0.00  0.00    +0.000 C 
ATOM     16  C   UNL     1       7.357   4.836  18.073  0.00  0.00    +0.000 C 
ATOM     17  O   UNL     1       7.621   4.400  16.700  0.00  0.00    +0.000 OA
ENDBRANCH   3  11
BRANCH   1  21
ATOM     18  C   UNL     1       0.359  10.302  20.881  0.00  0.00    +0.000 A 
ATOM     19  N   UNL     1       0.536   9.225  21.669  0.00  0.00    +0.000 NA
ATOM     20  C   UNL     1       1.214   8.162  21.153  0.00  0.00    +0.000 A 
ATOM     21  C   UNL     1       1.722   8.093  19.860  0.00  0.00    +0.000 A 
ATOM     22  C   UNL     1       1.488   9.225  19.068  0.00  0.00    +0.000 A 
ATOM     23  C   UNL     1       0.840  10.356  19.573  0.00  0.00    +0.000 A 
BRANCH  18  24
ATOM     24  N   UNL     1      -0.340  11.347  21.490  0.00  0.00    +0.000 N 
ATOM     25  H   UNL     1      -1.324  11.139  21.316  0.00  0.00    +0.000 HD
ATOM     26  H   UNL     1      -0.174  11.318  22.494  0.00  0.00    +0.000 HD
ENDBRANCH  18  24
BRANCH  23  27
ATOM     27  O   UNL     1       0.745  11.366  18.660  0.00  0.00    +0.000 OA
BRANCH  27  28
ATOM     28  C   UNL     1       1.773  12.337  18.625  0.00  0.00    +0.000 C 
ATOM     29  F   UNL     1       2.724  11.989  17.719  0.00  0.00    +0.000 F 
ATOM     30  F   UNL     1       1.210  13.480  18.149  0.00  0.00    +0.000 F 
ENDBRANCH  27  28
ENDBRANCH  23  27
ENDBRANCH   1  21
TORSDOF 5
ENDMDL
MODEL 8
REMARK VINA RESULT:      -7.7      4.251      7.907
REMARK  Name = 
REMARK  5 active torsions:
REMARK  status: ('A' for Active; 'I' for Inactive)
REMARK    1  A    between atoms: N_1  and  C_2
REMARK    2  A    between atoms: C_5  and  C_6
REMARK    3  A    between atoms: C_8  and  N_9
REMARK    4  A    between atoms: C_24  and  O_25
REMARK    5  A    between atoms: O_25  and  C_26
REMARK                            x       y       z     vdW  Elec       q    Type
REMARK                         _______ _______ _______ _____ _____    ______ ____
ROOT
ATOM      1  C   UNL     1       4.244   5.844  17.434  0.00  0.00    +0.000 A 
ATOM      2  C   UNL     1       3.739   4.793  18.181  0.00  0.00    +0.000 A 
ATOM      3  C   UNL     1       2.707   5.051  19.051  0.00  0.00    +0.000 A 
ATOM      4  N   UNL     1       2.231   6.296  19.177  0.00  0.00    +0.000 NA
ATOM      5  C   UNL     1       2.790   7.290  18.469  0.00  0.00    +0.000 A 
ATOM      6  N   UNL     1       2.298   8.585  18.667  0.00  0.00    +0.000 N 
ATOM      7  C   UNL     1       0.969   8.896  19.088  0.00  0.00    +0.000 C 
ATOM      8  C   UNL     1       0.906   9.942  17.979  0.00  0.00    +0.000 C 
ATOM      9  C   UNL     1       2.393   9.675  17.749  0.00  0.00    +0.000 C 
ATOM     10  N   UNL     1       3.792   7.100  17.593  0.00  0.00    +0.000 NA
ENDROOT
BRANCH   3  11
ATOM     11  N   UNL     1       2.165   4.074  19.830  0.00  0.00    +0.000 N 
ATOM     12  C   UNL     1       1.489   4.229  21.123  0.00  0.00    +0.000 C 
ATOM     13  C   UNL     1       1.458   2.753  21.606  0.00  0.00    +0.000 C 
ATOM     14  C   UNL     1       1.303   1.986  20.301  0.00  0.00    +0.000 C 
ATOM     15  C   UNL     1       2.534   2.653  19.698  0.00  0.00    +0.000 C 
ATOM     16  C   UNL     1       3.568   2.322  20.792  0.00  0.00    +0.000 C 
ATOM     17  O   UNL     1       2.800   2.387  22.036  0.00  0.00    +0.000 OA
ENDBRANCH   3  11
BRANCH   1  21
ATOM     18  C   UNL     1       7.333   5.291  14.549  0.00  0.00    +0.000 A 
ATOM     19  N   UNL     1       7.434   6.294  15.441  0.00  0.00    +0.000 NA
ATOM     20  C   UNL     1       6.432   6.441  16.351  0.00  0.00    +0.000 A 
ATOM     21  C   UNL     1       5.293   5.646  16.418  0.00  0.00    +0.000 A 
ATOM     22  C   UNL     1       5.217   4.634  15.452  0.00  0.00    +0.000 A 
ATOM     23  C   UNL     1       6.246   4.417  14.530  0.00  0.00    +0.000 A 
BRANCH  18  24
ATOM     24  N   UNL     1       8.405   5.208  13.658  0.00  0.00    +0.000 N 
ATOM     25  H   UNL     1       9.032   4.515  14.067  0.00  0.00    +0.000 HD
ATOM     26  H   UNL     1       8.068   4.853  12.764  0.00  0.00    +0.000 HD
ENDBRANCH  18  24
BRANCH  23  27
ATOM     27  O   UNL     1       6.002   3.361  13.701  0.00  0.00    +0.000 OA
BRANCH  27  28
ATOM     28  C   UNL     1       5.868   3.613  12.316  0.00  0.00    +0.000 C 
ATOM     29  F   UNL     1       6.512   2.658  11.594  0.00  0.00    +0.000 F 
ATOM     30  F   UNL     1       4.548   3.470  12.022  0.00  0.00    +0.000 F 
ENDBRANCH  27  28
ENDBRANCH  23  27
ENDBRANCH   1  21
TORSDOF 5
ENDMDL
MODEL 9
REMARK VINA RESULT:      -7.7      2.129      4.174
REMARK  Name = 
REMARK  5 active torsions:
REMARK  status: ('A' for Active; 'I' for Inactive)
REMARK    1  A    between atoms: N_1  and  C_2
REMARK    2  A    between atoms: C_5  and  C_6
REMARK    3  A    between atoms: C_8  and  N_9
REMARK    4  A    between atoms: C_24  and  O_25
REMARK    5  A    between atoms: O_25  and  C_26
REMARK                            x       y       z     vdW  Elec       q    Type
REMARK                         _______ _______ _______ _____ _____    ______ ____
ROOT
ATOM      1  C   UNL     1       2.602   7.469  18.503  0.00  0.00    +0.000 A 
ATOM      2  C   UNL     1       2.185   6.159  18.662  0.00  0.00    +0.000 A 
ATOM      3  C   UNL     1       3.061   5.152  18.331  0.00  0.00    +0.000 A 
ATOM      4  N   UNL     1       4.273   5.451  17.848  0.00  0.00    +0.000 NA
ATOM      5  C   UNL     1       4.611   6.738  17.665  0.00  0.00    +0.000 A 
ATOM      6  N   UNL     1       5.868   7.006  17.110  0.00  0.00    +0.000 N 
ATOM      7  C   UNL     1       7.009   6.154  17.226  0.00  0.00    +0.000 C 
ATOM      8  C   UNL     1       7.837   7.381  17.595  0.00  0.00    +0.000 C 
ATOM      9  C   UNL     1       6.609   8.220  17.244  0.00  0.00    +0.000 C 
ATOM     10  N   UNL     1       3.805   7.765  17.980  0.00  0.00    +0.000 NA
ENDROOT
BRANCH   3  11
ATOM     11  N   UNL     1       2.720   3.839  18.445  0.00  0.00    +0.000 N 
ATOM     12  C   UNL     1       1.392   3.239  18.278  0.00  0.00    +0.000 C 
ATOM     13  C   UNL     1       1.637   1.831  18.885  0.00  0.00    +0.000 C 
ATOM     14  C   UNL     1       3.087   1.561  18.509  0.00  0.00    +0.000 C 
ATOM     15  C   UNL     1       3.555   2.858  19.160  0.00  0.00    +0.000 C 
ATOM     16  C   UNL     1       2.966   2.664  20.571  0.00  0.00    +0.000 C 
ATOM     17  O   UNL     1       1.702   1.965  20.333  0.00  0.00    +0.000 OA
ENDBRANCH   3  11
BRANCH   1  21
ATOM     18  C   UNL     1       0.122  10.752  19.619  0.00  0.00    +0.000 A 
ATOM     19  N   UNL     1       0.271  10.449  18.316  0.00  0.00    +0.000 NA
ATOM     20  C   UNL     1       1.067   9.393  17.993  0.00  0.00    +0.000 A 
ATOM     21  C   UNL     1       1.762   8.610  18.909  0.00  0.00    +0.000 A 
ATOM     22  C   UNL     1       1.601   8.981  20.251  0.00  0.00    +0.000 A 
ATOM     23  C   UNL     1       0.754  10.028  20.629  0.00  0.00    +0.000 A 
BRANCH  18  24
ATOM     24  N   UNL     1      -0.715  11.843  19.860  0.00  0.00    +0.000 N 
ATOM     25  H   UNL     1      -0.355  12.587  19.261  0.00  0.00    +0.000 HD
ATOM     26  H   UNL     1      -1.660  11.611  19.558  0.00  0.00    +0.000 HD
ENDBRANCH  18  24
BRANCH  23  27
ATOM     27  O   UNL     1       0.701  10.206  21.981  0.00  0.00    +0.000 OA
BRANCH  27  28
ATOM     28  C   UNL     1      -0.396   9.660  22.687  0.00  0.00    +0.000 C 
ATOM     29  F   UNL     1      -0.781   8.482  22.129  0.00  0.00    +0.000 F 
ATOM     30  F   UNL     1       0.060   9.349  23.930  0.00  0.00    +0.000 F 
ENDBRANCH  27  28
ENDBRANCH  23  27
ENDBRANCH   1  21
TORSDOF 5
ENDMDL
