MODEL 1
REMARK VINA RESULT:      -7.5      0.000      0.000
REMARK  Name = 
REMARK  3 active torsions:
REMARK  status: ('A' for Active; 'I' for Inactive)
REMARK    1  A    between atoms: C_1  and  C_2
REMARK    2  A    between atoms: C_11  and  O_12
REMARK    3  A    between atoms: C_17  and  C_18
REMARK                            x       y       z     vdW  Elec       q    Type
REMARK                         _______ _______ _______ _____ _____    ______ ____
ROOT
ATOM      1  C   UNL     1       1.338   2.704  21.617  0.00  0.00    +0.000 C 
ATOM      2  C   UNL     1       1.684   2.653  20.150  0.00  0.00    +0.000 C 
ATOM      3  O   UNL     1       1.262   1.749  19.441  0.00  0.00    +0.000 OA
ATOM      4  N   UNL     1       2.435   3.710  19.651  0.00  0.00    +0.000 N 
ATOM      5  C   UNL     1       2.803   4.864  20.450  0.00  0.00    +0.000 C 
ATOM      6  C   UNL     1       3.833   5.579  19.618  0.00  0.00    +0.000 C 
ATOM      7  C   UNL     1       3.391   5.335  18.168  0.00  0.00    +0.000 C 
ATOM      8  C   UNL     1       4.598   5.347  17.271  0.00  0.00    +0.000 A 
ATOM      9  C   UNL     1       5.342   6.524  17.069  0.00  0.00    +0.000 A 
ATOM     10  C   UNL     1       6.458   6.527  16.225  0.00  0.00    +0.000 A 
ATOM     11  C   UNL     1       6.799   5.363  15.545  0.00  0.00    +0.000 A 
ATOM     12  C   UNL     1       6.110   4.181  15.781  0.00  0.00    +0.000 A 
ATOM     13  C   UNL     1       5.055   4.169  16.692  0.00  0.00    +0.000 A 
ATOM     14  O   UNL     1       4.620   2.949  17.118  0.00  0.00    +0.000 OA
ATOM     15  C   UNL     1       3.214   2.881  17.331  0.00  0.00    +0.000 C 
ATOM     16  C   UNL     1       2.573   4.000  18.197  0.00  0.00    +0.000 C 
ATOM     17  C   UNL     1       1.150   4.216  17.615  0.00  0.00    +0.000 C 
ENDROOT
BRANCH  11  18
ATOM     18  O   UNL     1       7.840   5.328  14.666  0.00  0.00    +0.000 OA
ATOM     19  H   UNL     1       7.515   5.013  13.807  0.00  0.00    +0.000 HD
ENDBRANCH  11  18
TORSDOF 1
ENDMDL
MODEL 2
REMARK VINA RESULT:      -7.3      1.671      2.597
REMARK  Name = 
REMARK  3 active torsions:
REMARK  status: ('A' for Active; 'I' for Inactive)
REMARK    1  A    between atoms: C_1  and  C_2
REMARK    2  A    between atoms: C_11  and  O_12
REMARK    3  A    between atoms: C_17  and  C_18
REMARK                            x       y       z     vdW  Elec       q    Type
REMARK                         _______ _______ _______ _____ _____    ______ ____
ROOT
ATOM      1  C   UNL     1       0.694   4.118  20.590  0.00  0.00    +0.000 C 
ATOM      2  C   UNL     1       2.189   4.214  20.420  0.00  0.00    +0.000 C 
ATOM      3  O   UNL     1       2.906   4.516  21.366  0.00  0.00    +0.000 OA
ATOM      4  N   UNL     1       2.696   3.877  19.172  0.00  0.00    +0.000 N 
ATOM      5  C   UNL     1       1.869   3.366  18.095  0.00  0.00    +0.000 C 
ATOM      6  C   UNL     1       2.758   3.427  16.882  0.00  0.00    +0.000 C 
ATOM      7  C   UNL     1       4.166   3.141  17.424  0.00  0.00    +0.000 C 
ATOM      8  C   UNL     1       5.182   3.831  16.556  0.00  0.00    +0.000 A 
ATOM      9  C   UNL     1       5.387   3.436  15.221  0.00  0.00    +0.000 A 
ATOM     10  C   UNL     1       6.341   4.078  14.425  0.00  0.00    +0.000 A 
ATOM     11  C   UNL     1       7.125   5.083  14.980  0.00  0.00    +0.000 A 
ATOM     12  C   UNL     1       6.894   5.523  16.277  0.00  0.00    +0.000 A 
ATOM     13  C   UNL     1       5.879   4.936  17.032  0.00  0.00    +0.000 A 
ATOM     14  O   UNL     1       5.488   5.595  18.159  0.00  0.00    +0.000 OA
ATOM     15  C   UNL     1       5.134   4.734  19.236  0.00  0.00    +0.000 C 
ATOM     16  C   UNL     1       4.135   3.584  18.926  0.00  0.00    +0.000 C 
ATOM     17  C   UNL     1       4.551   2.409  19.852  0.00  0.00    +0.000 C 
ENDROOT
BRANCH  11  18
ATOM     18  O   UNL     1       8.110   5.698  14.266  0.00  0.00    +0.000 OA
ATOM     19  H   UNL     1       7.892   5.647  13.322  0.00  0.00    +0.000 HD
ENDBRANCH  11  18
TORSDOF 1
ENDMDL
MODEL 3
REMARK VINA RESULT:      -7.3      1.626      2.189
REMARK  Name = 
REMARK  3 active torsions:
REMARK  status: ('A' for Active; 'I' for Inactive)
REMARK    1  A    between atoms: C_1  and  C_2
REMARK    2  A    between atoms: C_11  and  O_12
REMARK    3  A    between atoms: C_17  and  C_18
REMARK                            x       y       z     vdW  Elec       q    Type
REMARK                         _______ _______ _______ _____ _____    ______ ____
ROOT
ATOM      1  C   UNL     1       1.048   3.130  21.489  0.00  0.00    +0.000 C 
ATOM      2  C   UNL     1       2.426   2.846  20.948  0.00  0.00    +0.000 C 
ATOM      3  O   UNL     1       3.272   2.305  21.648  0.00  0.00    +0.000 OA
ATOM      4  N   UNL     1       2.649   3.164  19.614  0.00  0.00    +0.000 N 
ATOM      5  C   UNL     1       1.605   3.657  18.735  0.00  0.00    +0.000 C 
ATOM      6  C   UNL     1       2.344   4.139  17.515  0.00  0.00    +0.000 C 
ATOM      7  C   UNL     1       3.536   3.180  17.385  0.00  0.00    +0.000 C 
ATOM      8  C   UNL     1       4.680   3.896  16.722  0.00  0.00    +0.000 A 
ATOM      9  C   UNL     1       4.598   4.312  15.381  0.00  0.00    +0.000 A 
ATOM     10  C   UNL     1       5.672   4.970  14.770  0.00  0.00    +0.000 A 
ATOM     11  C   UNL     1       6.846   5.165  15.489  0.00  0.00    +0.000 A 
ATOM     12  C   UNL     1       6.920   4.813  16.830  0.00  0.00    +0.000 A 
ATOM     13  C   UNL     1       5.812   4.240  17.453  0.00  0.00    +0.000 A 
ATOM     14  O   UNL     1       5.821   4.199  18.815  0.00  0.00    +0.000 OA
ATOM     15  C   UNL     1       5.217   3.031  19.361  0.00  0.00    +0.000 C 
ATOM     16  C   UNL     1       3.807   2.648  18.833  0.00  0.00    +0.000 C 
ATOM     17  C   UNL     1       3.755   1.097  18.866  0.00  0.00    +0.000 C 
ENDROOT
BRANCH  11  18
ATOM     18  O   UNL     1       7.942   5.745  14.923  0.00  0.00    +0.000 OA
ATOM     19  H   UNL     1       8.036   6.646  15.272  0.00  0.00    +0.000 HD
ENDBRANCH  11  18
TORSDOF 1
ENDMDL
MODEL 4
REMARK VINA RESULT:      -7.1      1.822      5.877
REMARK  Name = 
REMARK  3 active torsions:
REMARK  status: ('A' for Active; 'I' for Inactive)
REMARK    1  A    between atoms: C_1  and  C_2
REMARK    2  A    between atoms: C_11  and  O_12
REMARK    3  A    between atoms: C_17  and  C_18
REMARK                            x       y       z     vdW  Elec       q    Type
REMARK                         _______ _______ _______ _____ _____    ______ ____
ROOT
ATOM      1  C   UNL     1       7.350   4.814  15.022  0.00  0.00    +0.000 C 
ATOM      2  C   UNL     1       6.781   5.216  16.360  0.00  0.00    +0.000 C 
ATOM      3  O   UNL     1       7.434   5.907  17.131  0.00  0.00    +0.000 OA
ATOM      4  N   UNL     1       5.476   4.824  16.625  0.00  0.00    +0.000 N 
ATOM      5  C   UNL     1       4.643   4.142  15.651  0.00  0.00    +0.000 C 
ATOM      6  C   UNL     1       3.461   3.658  16.448  0.00  0.00    +0.000 C 
ATOM      7  C   UNL     1       3.251   4.739  17.518  0.00  0.00    +0.000 C 
ATOM      8  C   UNL     1       2.641   4.114  18.743  0.00  0.00    +0.000 A 
ATOM      9  C   UNL     1       1.337   3.586  18.717  0.00  0.00    +0.000 A 
ATOM     10  C   UNL     1       0.775   3.016  19.865  0.00  0.00    +0.000 A 
ATOM     11  C   UNL     1       1.501   3.018  21.050  0.00  0.00    +0.000 A 
ATOM     12  C   UNL     1       2.810   3.480  21.075  0.00  0.00    +0.000 A 
ATOM     13  C   UNL     1       3.391   3.965  19.904  0.00  0.00    +0.000 A 
ATOM     14  O   UNL     1       4.746   4.113  19.901  0.00  0.00    +0.000 OA
ATOM     15  C   UNL     1       5.201   5.240  19.161  0.00  0.00    +0.000 C 
ATOM     16  C   UNL     1       4.651   5.410  17.717  0.00  0.00    +0.000 C 
ATOM     17  C   UNL     1       4.563   6.942  17.481  0.00  0.00    +0.000 C 
ENDROOT
BRANCH  11  18
ATOM     18  O   UNL     1       0.977   2.529  22.210  0.00  0.00    +0.000 OA
ATOM     19  H   UNL     1       1.686   2.106  22.721  0.00  0.00    +0.000 HD
ENDBRANCH  11  18
TORSDOF 1
ENDMDL
MODEL 5
REMARK VINA RESULT:      -7.0      2.034      5.810
REMARK  Name = 
REMARK  3 active torsions:
REMARK  status: ('A' for Active; 'I' for Inactive)
REMARK    1  A    between atoms: C_1  and  C_2
REMARK    2  A    between atoms: C_11  and  O_12
REMARK    3  A    between atoms: C_17  and  C_18
REMARK                            x       y       z     vdW  Elec       q    Type
REMARK                         _______ _______ _______ _____ _____    ______ ____
ROOT
ATOM      1  C   UNL     1       7.210   5.154  14.927  0.00  0.00    +0.000 C 
ATOM      2  C   UNL     1       7.079   4.715  16.364  0.00  0.00    +0.000 C 
ATOM      3  O   UNL     1       8.001   4.137  16.925  0.00  0.00    +0.000 OA
ATOM      4  N   UNL     1       5.903   5.062  17.016  0.00  0.00    +0.000 N 
ATOM      5  C   UNL     1       4.874   5.884  16.406  0.00  0.00    +0.000 C 
ATOM      6  C   UNL     1       3.695   5.750  17.331  0.00  0.00    +0.000 C 
ATOM      7  C   UNL     1       4.316   5.615  18.728  0.00  0.00    +0.000 C 
ATOM      8  C   UNL     1       3.400   4.804  19.603  0.00  0.00    +0.000 A 
ATOM      9  C   UNL     1       2.136   5.292  19.982  0.00  0.00    +0.000 A 
ATOM     10  C   UNL     1       1.295   4.534  20.804  0.00  0.00    +0.000 A 
ATOM     11  C   UNL     1       1.741   3.309  21.288  0.00  0.00    +0.000 A 
ATOM     12  C   UNL     1       2.961   2.790  20.875  0.00  0.00    +0.000 A 
ATOM     13  C   UNL     1       3.752   3.514  19.984  0.00  0.00    +0.000 A 
ATOM     14  O   UNL     1       4.770   2.843  19.375  0.00  0.00    +0.000 OA
ATOM     15  C   UNL     1       5.937   3.632  19.168  0.00  0.00    +0.000 C 
ATOM     16  C   UNL     1       5.746   5.020  18.496  0.00  0.00    +0.000 C 
ATOM     17  C   UNL     1       6.830   5.939  19.120  0.00  0.00    +0.000 C 
ENDROOT
BRANCH  11  18
ATOM     18  O   UNL     1       0.987   2.559  22.140  0.00  0.00    +0.000 OA
ATOM     19  H   UNL     1       0.812   3.076  22.943  0.00  0.00    +0.000 HD
ENDBRANCH  11  18
TORSDOF 1
ENDMDL
MODEL 6
REMARK VINA RESULT:      -6.6      2.296      5.707
REMARK  Name = 
REMARK  3 active torsions:
REMARK  status: ('A' for Active; 'I' for Inactive)
REMARK    1  A    between atoms: C_1  and  C_2
REMARK    2  A    between atoms: C_11  and  O_12
REMARK    3  A    between atoms: C_17  and  C_18
REMARK                            x       y       z     vdW  Elec       q    Type
REMARK                         _______ _______ _______ _____ _____    ______ ____
ROOT
ATOM      1  C   UNL     1       8.290   7.910  18.242  0.00  0.00    +0.000 C 
ATOM      2  C   UNL     1       7.021   7.465  17.557  0.00  0.00    +0.000 C 
ATOM      3  O   UNL     1       6.521   8.143  16.669  0.00  0.00    +0.000 OA
ATOM      4  N   UNL     1       6.508   6.233  17.939  0.00  0.00    +0.000 N 
ATOM      5  C   UNL     1       7.181   5.352  18.875  0.00  0.00    +0.000 C 
ATOM      6  C   UNL     1       6.150   4.309  19.212  0.00  0.00    +0.000 C 
ATOM      7  C   UNL     1       5.343   4.135  17.918  0.00  0.00    +0.000 C 
ATOM      8  C   UNL     1       3.939   3.717  18.259  0.00  0.00    +0.000 A 
ATOM      9  C   UNL     1       3.675   2.464  18.841  0.00  0.00    +0.000 A 
ATOM     10  C   UNL     1       2.364   2.081  19.146  0.00  0.00    +0.000 A 
ATOM     11  C   UNL     1       1.314   2.933  18.822  0.00  0.00    +0.000 A 
ATOM     12  C   UNL     1       1.565   4.196  18.303  0.00  0.00    +0.000 A 
ATOM     13  C   UNL     1       2.881   4.602  18.086  0.00  0.00    +0.000 A 
ATOM     14  O   UNL     1       3.090   5.932  17.876  0.00  0.00    +0.000 OA
ATOM     15  C   UNL     1       4.125   6.212  16.939  0.00  0.00    +0.000 C 
ATOM     16  C   UNL     1       5.486   5.492  17.149  0.00  0.00    +0.000 C 
ATOM     17  C   UNL     1       6.059   5.258  15.725  0.00  0.00    +0.000 C 
ENDROOT
BRANCH  11  18
ATOM     18  O   UNL     1       0.015   2.582  19.043  0.00  0.00    +0.000 OA
ATOM     19  H   UNL     1      -0.218   1.852  18.448  0.00  0.00    +0.000 HD
ENDBRANCH  11  18
TORSDOF 1
ENDMDL
MODEL 7
REMARK VINA RESULT:      -6.5      1.998      2.546
REMARK  Name = 
REMARK  3 active torsions:
REMARK  status: ('A' for Active; 'I' for Inactive)
REMARK    1  A    between atoms: C_1  and  C_2
REMARK    2  A    between atoms: C_11  and  O_12
REMARK    3  A    between atoms: C_17  and  C_18
REMARK                            x       y       z     vdW  Elec       q    Type
REMARK                         _______ _______ _______ _____ _____    ______ ____
ROOT
ATOM      1  C   UNL     1       0.983   1.409  18.897  0.00  0.00    +0.000 C 
ATOM      2  C   UNL     1       1.320   2.864  18.682  0.00  0.00    +0.000 C 
ATOM      3  O   UNL     1       0.466   3.650  18.293  0.00  0.00    +0.000 OA
ATOM      4  N   UNL     1       2.608   3.261  19.013  0.00  0.00    +0.000 N 
ATOM      5  C   UNL     1       3.577   2.369  19.624  0.00  0.00    +0.000 C 
ATOM      6  C   UNL     1       4.882   3.113  19.525  0.00  0.00    +0.000 C 
ATOM      7  C   UNL     1       4.493   4.590  19.675  0.00  0.00    +0.000 C 
ATOM      8  C   UNL     1       5.482   5.443  18.929  0.00  0.00    +0.000 A 
ATOM      9  C   UNL     1       6.822   5.535  19.346  0.00  0.00    +0.000 A 
ATOM     10  C   UNL     1       7.733   6.339  18.651  0.00  0.00    +0.000 A 
ATOM     11  C   UNL     1       7.289   7.088  17.568  0.00  0.00    +0.000 A 
ATOM     12  C   UNL     1       5.984   6.961  17.110  0.00  0.00    +0.000 A 
ATOM     13  C   UNL     1       5.109   6.089  17.756  0.00  0.00    +0.000 A 
ATOM     14  O   UNL     1       3.960   5.767  17.098  0.00  0.00    +0.000 OA
ATOM     15  C   UNL     1       2.832   5.607  17.953  0.00  0.00    +0.000 C 
ATOM     16  C   UNL     1       3.006   4.684  19.192  0.00  0.00    +0.000 C 
ATOM     17  C   UNL     1       2.107   5.298  20.299  0.00  0.00    +0.000 C 
ENDROOT
BRANCH  11  18
ATOM     18  O   UNL     1       8.120   7.932  16.894  0.00  0.00    +0.000 OA
ATOM     19  H   UNL     1       8.820   8.231  17.496  0.00  0.00    +0.000 HD
ENDBRANCH  11  18
TORSDOF 1
ENDMDL
MODEL 8
REMARK VINA RESULT:      -6.5      1.464      1.829
REMARK  Name = 
REMARK  3 active torsions:
REMARK  status: ('A' for Active; 'I' for Inactive)
REMARK    1  A    between atoms: C_1  and  C_2
REMARK    2  A    between atoms: C_11  and  O_12
REMARK    3  A    between atoms: C_17  and  C_18
REMARK                            x       y       z     vdW  Elec       q    Type
REMARK                         _______ _______ _______ _____ _____    ______ ____
ROOT
ATOM      1  C   UNL     1       1.374   2.442  21.664  0.00  0.00    +0.000 C 
ATOM      2  C   UNL     1       1.559   3.359  20.481  0.00  0.00    +0.000 C 
ATOM      3  O   UNL     1       0.603   3.944  19.990  0.00  0.00    +0.000 OA
ATOM      4  N   UNL     1       2.862   3.550  20.039  0.00  0.00    +0.000 N 
ATOM      5  C   UNL     1       4.016   2.986  20.716  0.00  0.00    +0.000 C 
ATOM      6  C   UNL     1       5.150   3.188  19.748  0.00  0.00    +0.000 C 
ATOM      7  C   UNL     1       4.821   4.512  19.043  0.00  0.00    +0.000 C 
ATOM      8  C   UNL     1       5.402   4.495  17.656  0.00  0.00    +0.000 A 
ATOM      9  C   UNL     1       6.794   4.488  17.451  0.00  0.00    +0.000 A 
ATOM     10  C   UNL     1       7.325   4.482  16.156  0.00  0.00    +0.000 A 
ATOM     11  C   UNL     1       6.461   4.532  15.067  0.00  0.00    +0.000 A 
ATOM     12  C   UNL     1       5.087   4.480  15.254  0.00  0.00    +0.000 A 
ATOM     13  C   UNL     1       4.570   4.396  16.546  0.00  0.00    +0.000 A 
ATOM     14  O   UNL     1       3.261   4.038  16.667  0.00  0.00    +0.000 OA
ATOM     15  C   UNL     1       2.581   4.687  17.736  0.00  0.00    +0.000 C 
ATOM     16  C   UNL     1       3.265   4.659  19.132  0.00  0.00    +0.000 C 
ATOM     17  C   UNL     1       2.878   6.000  19.813  0.00  0.00    +0.000 C 
ENDROOT
BRANCH  11  18
ATOM     18  O   UNL     1       6.928   4.589  13.788  0.00  0.00    +0.000 OA
ATOM     19  H   UNL     1       7.616   5.271  13.734  0.00  0.00    +0.000 HD
ENDBRANCH  11  18
TORSDOF 1
ENDMDL
MODEL 9
REMARK VINA RESULT:      -6.5      1.696      2.076
REMARK  Name = 
REMARK  3 active torsions:
REMARK  status: ('A' for Active; 'I' for Inactive)
REMARK    1  A    between atoms: C_1  and  C_2
REMARK    2  A    between atoms: C_11  and  O_12
REMARK    3  A    between atoms: C_17  and  C_18
REMARK                            x       y       z     vdW  Elec       q    Type
REMARK                         _______ _______ _______ _____ _____    ______ ____
ROOT
ATOM      1  C   UNL     1       0.904   2.915  21.649  0.00  0.00    +0.000 C 
ATOM      2  C   UNL     1       2.293   2.754  21.084  0.00  0.00    +0.000 C 
ATOM      3  O   UNL     1       3.096   1.994  21.609  0.00  0.00    +0.000 OA
ATOM      4  N   UNL     1       2.574   3.450  19.916  0.00  0.00    +0.000 N 
ATOM      5  C   UNL     1       1.578   4.227  19.200  0.00  0.00    +0.000 C 
ATOM      6  C   UNL     1       2.375   5.026  18.204  0.00  0.00    +0.000 C 
ATOM      7  C   UNL     1       3.542   4.105  17.820  0.00  0.00    +0.000 C 
ATOM      8  C   UNL     1       4.730   4.943  17.436  0.00  0.00    +0.000 A 
ATOM      9  C   UNL     1       4.710   5.748  16.283  0.00  0.00    +0.000 A 
ATOM     10  C   UNL     1       5.825   6.516  15.929  0.00  0.00    +0.000 A 
ATOM     11  C   UNL     1       6.977   6.440  16.703  0.00  0.00    +0.000 A 
ATOM     12  C   UNL     1       6.990   5.696  17.876  0.00  0.00    +0.000 A 
ATOM     13  C   UNL     1       5.844   5.005  18.266  0.00  0.00    +0.000 A 
ATOM     14  O   UNL     1       5.802   4.554  19.552  0.00  0.00    +0.000 OA
ATOM     15  C   UNL     1       5.145   3.301  19.702  0.00  0.00    +0.000 C 
ATOM     16  C   UNL     1       3.744   3.151  19.045  0.00  0.00    +0.000 C 
ATOM     17  C   UNL     1       3.646   1.665  18.606  0.00  0.00    +0.000 C 
ENDROOT
BRANCH  11  18
ATOM     18  O   UNL     1       8.109   7.121  16.369  0.00  0.00    +0.000 OA
ATOM     19  H   UNL     1       8.830   6.838  16.954  0.00  0.00    +0.000 HD
ENDBRANCH  11  18
TORSDOF 1
ENDMDL
