MODEL 1
REMARK VINA RESULT:      -7.4      0.000      0.000
REMARK  Name = 
REMARK  1 active torsions:
REMARK  status: ('A' for Active; 'I' for Inactive)
REMARK    1  A    between atoms: C_13  and  O_14
REMARK                            x       y       z     vdW  Elec       q    Type
REMARK                         _______ _______ _______ _____ _____    ______ ____
ROOT
ATOM      1  O   UNL     1       7.264   5.456  19.930  0.00  0.00    +0.000 OA
ATOM      2  C   UNL     1       6.537   5.349  18.940  0.00  0.00    +0.000 C 
ATOM      3  N   UNL     1       6.787   6.206  17.891  0.00  0.00    +0.000 N 
ATOM      4  C   UNL     1       6.591   6.017  16.465  0.00  0.00    +0.000 C 
ATOM      5  C   UNL     1       5.256   5.462  15.981  0.00  0.00    +0.000 C 
ATOM      6  C   UNL     1       5.054   4.009  16.389  0.00  0.00    +0.000 C 
ATOM      7  C   UNL     1       4.685   3.913  17.821  0.00  0.00    +0.000 A 
ATOM      8  C   UNL     1       5.389   4.477  18.877  0.00  0.00    +0.000 A 
ATOM      9  O   UNL     1       4.756   4.189  20.054  0.00  0.00    +0.000 OA
ATOM     10  C   UNL     1       3.597   3.557  19.751  0.00  0.00    +0.000 A 
ATOM     11  C   UNL     1       2.606   3.200  20.668  0.00  0.00    +0.000 A 
ATOM     12  C   UNL     1       1.450   2.611  20.142  0.00  0.00    +0.000 A 
ATOM     13  C   UNL     1       1.333   2.382  18.774  0.00  0.00    +0.000 A 
ATOM     14  C   UNL     1       2.349   2.721  17.878  0.00  0.00    +0.000 A 
ATOM     15  C   UNL     1       3.504   3.346  18.383  0.00  0.00    +0.000 A 
ATOM     16  H   UNL     1       7.564   6.806  18.139  0.00  0.00    +0.000 HD
ENDROOT
BRANCH  13  17
ATOM     17  O   UNL     1       0.201   1.827  18.250  0.00  0.00    +0.000 OA
ATOM     18  H   UNL     1       0.446   1.288  17.479  0.00  0.00    +0.000 HD
ENDBRANCH  13  17
TORSDOF 1
ENDMDL
MODEL 2
REMARK VINA RESULT:      -7.4      3.420      4.064
REMARK  Name = 
REMARK  1 active torsions:
REMARK  status: ('A' for Active; 'I' for Inactive)
REMARK    1  A    between atoms: C_13  and  O_14
REMARK                            x       y       z     vdW  Elec       q    Type
REMARK                         _______ _______ _______ _____ _____    ______ ____
ROOT
ATOM      1  O   UNL     1       4.974   3.159  19.681  0.00  0.00    +0.000 OA
ATOM      2  C   UNL     1       5.207   4.097  18.915  0.00  0.00    +0.000 C 
ATOM      3  N   UNL     1       6.469   4.151  18.366  0.00  0.00    +0.000 N 
ATOM      4  C   UNL     1       6.908   4.675  17.085  0.00  0.00    +0.000 C 
ATOM      5  C   UNL     1       6.424   6.056  16.660  0.00  0.00    +0.000 C 
ATOM      6  C   UNL     1       4.930   6.080  16.366  0.00  0.00    +0.000 C 
ATOM      7  C   UNL     1       4.149   6.087  17.626  0.00  0.00    +0.000 A 
ATOM      8  C   UNL     1       4.286   5.180  18.668  0.00  0.00    +0.000 A 
ATOM      9  O   UNL     1       3.408   5.494  19.668  0.00  0.00    +0.000 OA
ATOM     10  C   UNL     1       2.803   6.659  19.328  0.00  0.00    +0.000 A 
ATOM     11  C   UNL     1       1.924   7.380  20.139  0.00  0.00    +0.000 A 
ATOM     12  C   UNL     1       1.457   8.596  19.628  0.00  0.00    +0.000 A 
ATOM     13  C   UNL     1       1.847   9.028  18.364  0.00  0.00    +0.000 A 
ATOM     14  C   UNL     1       2.705   8.276  17.558  0.00  0.00    +0.000 A 
ATOM     15  C   UNL     1       3.213   7.067  18.068  0.00  0.00    +0.000 A 
ATOM     16  H   UNL     1       7.010   3.369  18.715  0.00  0.00    +0.000 HD
ENDROOT
BRANCH  13  17
ATOM     17  O   UNL     1       1.413  10.223  17.865  0.00  0.00    +0.000 OA
ATOM     18  H   UNL     1       1.890  10.409  17.039  0.00  0.00    +0.000 HD
ENDBRANCH  13  17
TORSDOF 1
ENDMDL
MODEL 3
REMARK VINA RESULT:      -7.4      2.274      4.986
REMARK  Name = 
REMARK  1 active torsions:
REMARK  status: ('A' for Active; 'I' for Inactive)
REMARK    1  A    between atoms: C_13  and  O_14
REMARK                            x       y       z     vdW  Elec       q    Type
REMARK                         _______ _______ _______ _____ _____    ______ ____
ROOT
ATOM      1  O   UNL     1       2.174   4.779  21.373  0.00  0.00    +0.000 OA
ATOM      2  C   UNL     1       2.373   4.125  20.347  0.00  0.00    +0.000 C 
ATOM      3  N   UNL     1       1.645   2.965  20.200  0.00  0.00    +0.000 N 
ATOM      4  C   UNL     1       1.175   2.304  18.995  0.00  0.00    +0.000 C 
ATOM      5  C   UNL     1       2.160   2.092  17.851  0.00  0.00    +0.000 C 
ATOM      6  C   UNL     1       2.573   3.403  17.194  0.00  0.00    +0.000 C 
ATOM      7  C   UNL     1       3.556   4.124  18.036  0.00  0.00    +0.000 A 
ATOM      8  C   UNL     1       3.393   4.442  19.378  0.00  0.00    +0.000 A 
ATOM      9  O   UNL     1       4.502   5.103  19.829  0.00  0.00    +0.000 OA
ATOM     10  C   UNL     1       5.415   5.100  18.828  0.00  0.00    +0.000 A 
ATOM     11  C   UNL     1       6.726   5.571  18.928  0.00  0.00    +0.000 A 
ATOM     12  C   UNL     1       7.534   5.417  17.795  0.00  0.00    +0.000 A 
ATOM     13  C   UNL     1       7.023   4.843  16.635  0.00  0.00    +0.000 A 
ATOM     14  C   UNL     1       5.699   4.404  16.549  0.00  0.00    +0.000 A 
ATOM     15  C   UNL     1       4.881   4.518  17.688  0.00  0.00    +0.000 A 
ATOM     16  H   UNL     1       1.048   2.851  21.010  0.00  0.00    +0.000 HD
ENDROOT
BRANCH  13  17
ATOM     17  O   UNL     1       7.808   4.670  15.532  0.00  0.00    +0.000 OA
ATOM     18  H   UNL     1       8.733   4.583  15.817  0.00  0.00    +0.000 HD
ENDBRANCH  13  17
TORSDOF 1
ENDMDL
MODEL 4
REMARK VINA RESULT:      -7.3      1.439      1.547
REMARK  Name = 
REMARK  1 active torsions:
REMARK  status: ('A' for Active; 'I' for Inactive)
REMARK    1  A    between atoms: C_13  and  O_14
REMARK                            x       y       z     vdW  Elec       q    Type
REMARK                         _______ _______ _______ _____ _____    ______ ____
ROOT
ATOM      1  O   UNL     1       7.746   6.420  18.157  0.00  0.00    +0.000 OA
ATOM      2  C   UNL     1       7.022   5.847  17.340  0.00  0.00    +0.000 C 
ATOM      3  N   UNL     1       7.321   6.032  16.009  0.00  0.00    +0.000 N 
ATOM      4  C   UNL     1       7.128   5.144  14.876  0.00  0.00    +0.000 C 
ATOM      5  C   UNL     1       5.771   4.471  14.704  0.00  0.00    +0.000 C 
ATOM      6  C   UNL     1       5.495   3.442  15.794  0.00  0.00    +0.000 C 
ATOM      7  C   UNL     1       5.112   4.111  17.060  0.00  0.00    +0.000 A 
ATOM      8  C   UNL     1       5.834   5.110  17.697  0.00  0.00    +0.000 A 
ATOM      9  O   UNL     1       5.179   5.493  18.836  0.00  0.00    +0.000 OA
ATOM     10  C   UNL     1       3.993   4.838  18.863  0.00  0.00    +0.000 A 
ATOM     11  C   UNL     1       2.979   5.042  19.802  0.00  0.00    +0.000 A 
ATOM     12  C   UNL     1       1.800   4.310  19.617  0.00  0.00    +0.000 A 
ATOM     13  C   UNL     1       1.682   3.415  18.558  0.00  0.00    +0.000 A 
ATOM     14  C   UNL     1       2.721   3.206  17.647  0.00  0.00    +0.000 A 
ATOM     15  C   UNL     1       3.901   3.958  17.795  0.00  0.00    +0.000 A 
ATOM     16  H   UNL     1       8.125   6.645  15.938  0.00  0.00    +0.000 HD
ENDROOT
BRANCH  13  17
ATOM     17  O   UNL     1       0.529   2.712  18.358  0.00  0.00    +0.000 OA
ATOM     18  H   UNL     1      -0.114   3.287  17.909  0.00  0.00    +0.000 HD
ENDBRANCH  13  17
TORSDOF 1
ENDMDL
MODEL 5
REMARK VINA RESULT:      -7.2      3.219      5.441
REMARK  Name = 
REMARK  1 active torsions:
REMARK  status: ('A' for Active; 'I' for Inactive)
REMARK    1  A    between atoms: C_13  and  O_14
REMARK                            x       y       z     vdW  Elec       q    Type
REMARK                         _______ _______ _______ _____ _____    ______ ____
ROOT
ATOM      1  O   UNL     1       7.805   6.794  18.089  0.00  0.00    +0.000 OA
ATOM      2  C   UNL     1       7.003   5.884  17.868  0.00  0.00    +0.000 C 
ATOM      3  N   UNL     1       6.569   5.161  18.957  0.00  0.00    +0.000 N 
ATOM      4  C   UNL     1       5.301   4.493  19.189  0.00  0.00    +0.000 C 
ATOM      5  C   UNL     1       4.743   3.593  18.092  0.00  0.00    +0.000 C 
ATOM      6  C   UNL     1       4.314   4.381  16.862  0.00  0.00    +0.000 C 
ATOM      7  C   UNL     1       5.494   4.788  16.063  0.00  0.00    +0.000 A 
ATOM      8  C   UNL     1       6.602   5.470  16.546  0.00  0.00    +0.000 A 
ATOM      9  O   UNL     1       7.494   5.673  15.529  0.00  0.00    +0.000 OA
ATOM     10  C   UNL     1       7.024   5.020  14.438  0.00  0.00    +0.000 A 
ATOM     11  C   UNL     1       7.702   4.882  13.225  0.00  0.00    +0.000 A 
ATOM     12  C   UNL     1       7.071   4.113  12.240  0.00  0.00    +0.000 A 
ATOM     13  C   UNL     1       5.821   3.548  12.478  0.00  0.00    +0.000 A 
ATOM     14  C   UNL     1       5.148   3.724  13.690  0.00  0.00    +0.000 A 
ATOM     15  C   UNL     1       5.782   4.464  14.704  0.00  0.00    +0.000 A 
ATOM     16  H   UNL     1       7.017   5.526  19.789  0.00  0.00    +0.000 HD
ENDROOT
BRANCH  13  17
ATOM     17  O   UNL     1       5.206   2.779  11.531  0.00  0.00    +0.000 OA
ATOM     18  H   UNL     1       4.579   3.334  11.038  0.00  0.00    +0.000 HD
ENDBRANCH  13  17
TORSDOF 1
ENDMDL
MODEL 6
REMARK VINA RESULT:      -7.2      1.965      2.682
REMARK  Name = 
REMARK  1 active torsions:
REMARK  status: ('A' for Active; 'I' for Inactive)
REMARK    1  A    between atoms: C_13  and  O_14
REMARK                            x       y       z     vdW  Elec       q    Type
REMARK                         _______ _______ _______ _____ _____    ______ ____
ROOT
ATOM      1  O   UNL     1       6.448   4.003  15.210  0.00  0.00    +0.000 OA
ATOM      2  C   UNL     1       6.346   4.297  16.402  0.00  0.00    +0.000 C 
ATOM      3  N   UNL     1       7.506   4.651  17.055  0.00  0.00    +0.000 N 
ATOM      4  C   UNL     1       7.710   5.561  18.168  0.00  0.00    +0.000 C 
ATOM      5  C   UNL     1       6.802   5.435  19.386  0.00  0.00    +0.000 C 
ATOM      6  C   UNL     1       5.366   5.838  19.080  0.00  0.00    +0.000 C 
ATOM      7  C   UNL     1       4.670   4.766  18.329  0.00  0.00    +0.000 A 
ATOM      8  C   UNL     1       5.124   4.173  17.159  0.00  0.00    +0.000 A 
ATOM      9  O   UNL     1       4.230   3.222  16.751  0.00  0.00    +0.000 OA
ATOM     10  C   UNL     1       3.278   3.118  17.711  0.00  0.00    +0.000 A 
ATOM     11  C   UNL     1       2.249   2.175  17.730  0.00  0.00    +0.000 A 
ATOM     12  C   UNL     1       1.405   2.192  18.847  0.00  0.00    +0.000 A 
ATOM     13  C   UNL     1       1.592   3.129  19.859  0.00  0.00    +0.000 A 
ATOM     14  C   UNL     1       2.612   4.083  19.805  0.00  0.00    +0.000 A 
ATOM     15  C   UNL     1       3.492   4.059  18.707  0.00  0.00    +0.000 A 
ATOM     16  H   UNL     1       8.277   4.598  16.401  0.00  0.00    +0.000 HD
ENDROOT
BRANCH  13  17
ATOM     17  O   UNL     1       0.787   3.141  20.963  0.00  0.00    +0.000 OA
ATOM     18  H   UNL     1       0.349   4.007  21.020  0.00  0.00    +0.000 HD
ENDBRANCH  13  17
TORSDOF 1
ENDMDL
MODEL 7
REMARK VINA RESULT:      -7.0      2.713      4.959
REMARK  Name = 
REMARK  1 active torsions:
REMARK  status: ('A' for Active; 'I' for Inactive)
REMARK    1  A    between atoms: C_13  and  O_14
REMARK                            x       y       z     vdW  Elec       q    Type
REMARK                         _______ _______ _______ _____ _____    ______ ____
ROOT
ATOM      1  O   UNL     1       1.731   6.789  20.511  0.00  0.00    +0.000 OA
ATOM      2  C   UNL     1       2.231   5.686  20.282  0.00  0.00    +0.000 C 
ATOM      3  N   UNL     1       2.276   4.795  21.331  0.00  0.00    +0.000 N 
ATOM      4  C   UNL     1       2.220   3.344  21.327  0.00  0.00    +0.000 C 
ATOM      5  C   UNL     1       3.119   2.585  20.356  0.00  0.00    +0.000 C 
ATOM      6  C   UNL     1       2.704   2.790  18.905  0.00  0.00    +0.000 C 
ATOM      7  C   UNL     1       3.138   4.121  18.419  0.00  0.00    +0.000 A 
ATOM      8  C   UNL     1       2.866   5.335  19.035  0.00  0.00    +0.000 A 
ATOM      9  O   UNL     1       3.426   6.351  18.311  0.00  0.00    +0.000 OA
ATOM     10  C   UNL     1       4.152   5.789  17.313  0.00  0.00    +0.000 A 
ATOM     11  C   UNL     1       4.974   6.482  16.423  0.00  0.00    +0.000 A 
ATOM     12  C   UNL     1       5.693   5.709  15.504  0.00  0.00    +0.000 A 
ATOM     13  C   UNL     1       5.557   4.324  15.486  0.00  0.00    +0.000 A 
ATOM     14  C   UNL     1       4.706   3.654  16.368  0.00  0.00    +0.000 A 
ATOM     15  C   UNL     1       4.001   4.411  17.323  0.00  0.00    +0.000 A 
ATOM     16  H   UNL     1       1.871   5.234  22.149  0.00  0.00    +0.000 HD
ENDROOT
BRANCH  13  17
ATOM     17  O   UNL     1       6.269   3.559  14.607  0.00  0.00    +0.000 OA
ATOM     18  H   UNL     1       6.491   4.100  13.831  0.00  0.00    +0.000 HD
ENDBRANCH  13  17
TORSDOF 1
ENDMDL
MODEL 8
REMARK VINA RESULT:      -7.0      2.235      2.757
REMARK  Name = 
REMARK  1 active torsions:
REMARK  status: ('A' for Active; 'I' for Inactive)
REMARK    1  A    between atoms: C_13  and  O_14
REMARK                            x       y       z     vdW  Elec       q    Type
REMARK                         _______ _______ _______ _____ _____    ______ ____
ROOT
ATOM      1  O   UNL     1       6.360   3.627  14.727  0.00  0.00    +0.000 OA
ATOM      2  C   UNL     1       6.146   4.329  15.717  0.00  0.00    +0.000 C 
ATOM      3  N   UNL     1       7.200   5.082  16.184  0.00  0.00    +0.000 N 
ATOM      4  C   UNL     1       7.202   6.365  16.865  0.00  0.00    +0.000 C 
ATOM      5  C   UNL     1       6.253   6.564  18.041  0.00  0.00    +0.000 C 
ATOM      6  C   UNL     1       4.792   6.588  17.607  0.00  0.00    +0.000 C 
ATOM      7  C   UNL     1       4.309   5.216  17.323  0.00  0.00    +0.000 A 
ATOM      8  C   UNL     1       4.913   4.306  16.467  0.00  0.00    +0.000 A 
ATOM      9  O   UNL     1       4.195   3.142  16.454  0.00  0.00    +0.000 OA
ATOM     10  C   UNL     1       3.215   3.258  17.383  0.00  0.00    +0.000 A 
ATOM     11  C   UNL     1       2.337   2.240  17.762  0.00  0.00    +0.000 A 
ATOM     12  C   UNL     1       1.436   2.542  18.790  0.00  0.00    +0.000 A 
ATOM     13  C   UNL     1       1.422   3.809  19.368  0.00  0.00    +0.000 A 
ATOM     14  C   UNL     1       2.291   4.821  18.952  0.00  0.00    +0.000 A 
ATOM     15  C   UNL     1       3.228   4.526  17.945  0.00  0.00    +0.000 A 
ATOM     16  H   UNL     1       8.008   4.910  15.597  0.00  0.00    +0.000 HD
ENDROOT
BRANCH  13  17
ATOM     17  O   UNL     1       0.561   4.107  20.385  0.00  0.00    +0.000 OA
ATOM     18  H   UNL     1       0.368   5.059  20.361  0.00  0.00    +0.000 HD
ENDBRANCH  13  17
TORSDOF 1
ENDMDL
MODEL 9
REMARK VINA RESULT:      -7.0      3.916      4.286
REMARK  Name = 
REMARK  1 active torsions:
REMARK  status: ('A' for Active; 'I' for Inactive)
REMARK    1  A    between atoms: C_13  and  O_14
REMARK                            x       y       z     vdW  Elec       q    Type
REMARK                         _______ _______ _______ _____ _____    ______ ____
ROOT
ATOM      1  O   UNL     1       1.321   8.583  22.024  0.00  0.00    +0.000 OA
ATOM      2  C   UNL     1       1.447   8.348  20.820  0.00  0.00    +0.000 C 
ATOM      3  N   UNL     1       1.146   9.375  19.953  0.00  0.00    +0.000 N 
ATOM      4  C   UNL     1       1.693   9.680  18.643  0.00  0.00    +0.000 C 
ATOM      5  C   UNL     1       1.802   8.555  17.621  0.00  0.00    +0.000 C 
ATOM      6  C   UNL     1       2.842   7.515  18.016  0.00  0.00    +0.000 C 
ATOM      7  C   UNL     1       2.317   6.628  19.081  0.00  0.00    +0.000 A 
ATOM      8  C   UNL     1       1.767   7.047  20.285  0.00  0.00    +0.000 A 
ATOM      9  O   UNL     1       1.386   5.958  21.018  0.00  0.00    +0.000 OA
ATOM     10  C   UNL     1       1.573   4.860  20.246  0.00  0.00    +0.000 A 
ATOM     11  C   UNL     1       1.194   3.559  20.584  0.00  0.00    +0.000 A 
ATOM     12  C   UNL     1       1.417   2.571  19.617  0.00  0.00    +0.000 A 
ATOM     13  C   UNL     1       2.010   2.895  18.400  0.00  0.00    +0.000 A 
ATOM     14  C   UNL     1       2.407   4.199  18.095  0.00  0.00    +0.000 A 
ATOM     15  C   UNL     1       2.160   5.212  19.039  0.00  0.00    +0.000 A 
ATOM     16  H   UNL     1       0.855  10.181  20.492  0.00  0.00    +0.000 HD
ENDROOT
BRANCH  13  17
ATOM     17  O   UNL     1       2.213   1.942  17.443  0.00  0.00    +0.000 OA
ATOM     18  H   UNL     1       2.636   2.358  16.673  0.00  0.00    +0.000 HD
ENDBRANCH  13  17
TORSDOF 1
ENDMDL
