MODEL 1
REMARK VINA RESULT:      -7.0      0.000      0.000
REMARK  Name = 
REMARK  4 active torsions:
REMARK  status: ('A' for Active; 'I' for Inactive)
REMARK    1  A    between atoms: C_1  and  C_2
REMARK    2  A    between atoms: C_2  and  C_11
REMARK    3  A    between atoms: N_3  and  N_4
REMARK    4  A    between atoms: C_7  and  C_8
REMARK                            x       y       z     vdW  Elec       q    Type
REMARK                         _______ _______ _______ _____ _____    ______ ____
ROOT
ATOM      1  C   UNL     1       1.532   5.027  20.549  0.00  0.00    +0.000 C 
ATOM      2  C   UNL     1       2.359   6.095  19.876  0.00  0.00    +0.000 C 
ATOM      3  N   UNL     1       2.205   7.379  20.008  0.00  0.00    +0.000 NA
ENDROOT
BRANCH   2   4
ATOM      4  C   UNL     1       3.426   5.675  18.995  0.00  0.00    +0.000 A 
ATOM      5  C   UNL     1       3.380   5.277  17.669  0.00  0.00    +0.000 A 
ATOM      6  C   UNL     1       4.706   4.985  17.275  0.00  0.00    +0.000 A 
ATOM      7  C   UNL     1       5.321   4.545  16.092  0.00  0.00    +0.000 A 
ATOM      8  C   UNL     1       6.710   4.356  16.089  0.00  0.00    +0.000 A 
ATOM      9  C   UNL     1       7.470   4.601  17.236  0.00  0.00    +0.000 A 
ATOM     10  C   UNL     1       6.873   5.044  18.423  0.00  0.00    +0.000 A 
ATOM     11  C   UNL     1       5.492   5.221  18.397  0.00  0.00    +0.000 A 
ATOM     12  O   UNL     1       4.720   5.644  19.439  0.00  0.00    +0.000 OA
ENDBRANCH   2   4
BRANCH   3  13
ATOM     13  N   UNL     1       1.277   7.892  20.864  0.00  0.00    +0.000 N 
ATOM     14  C   UNL     1       0.766   9.141  20.662  0.00  0.00    +0.000 A 
ATOM     15  N   UNL     1       0.358   9.913  21.649  0.00  0.00    +0.000 NA
ATOM     16  C   UNL     1      -0.027  11.157  21.170  0.00  0.00    +0.000 A 
ATOM     17  C   UNL     1      -0.445  12.205  22.134  0.00  0.00    +0.000 C 
ATOM     18  C   UNL     1       0.037  11.294  19.798  0.00  0.00    +0.000 A 
ATOM     19  S   UNL     1       0.618   9.852  19.092  0.00  0.00    +0.000 S 
ATOM     20  H   UNL     1       1.373   7.678  21.854  0.00  0.00    +0.000 HD
ENDBRANCH   3  13
TORSDOF 2
ENDMDL
MODEL 2
REMARK VINA RESULT:      -6.9      1.187      1.355
REMARK  Name = 
REMARK  4 active torsions:
REMARK  status: ('A' for Active; 'I' for Inactive)
REMARK    1  A    between atoms: C_1  and  C_2
REMARK    2  A    between atoms: C_2  and  C_11
REMARK    3  A    between atoms: N_3  and  N_4
REMARK    4  A    between atoms: C_7  and  C_8
REMARK                            x       y       z     vdW  Elec       q    Type
REMARK                         _______ _______ _______ _____ _____    ______ ____
ROOT
ATOM      1  C   UNL     1       1.732   5.432  20.714  0.00  0.00    +0.000 C 
ATOM      2  C   UNL     1       2.229   6.552  19.833  0.00  0.00    +0.000 C 
ATOM      3  N   UNL     1       1.952   7.814  19.972  0.00  0.00    +0.000 NA
ENDROOT
BRANCH   2   4
ATOM      4  C   UNL     1       3.093   6.214  18.723  0.00  0.00    +0.000 A 
ATOM      5  C   UNL     1       3.692   7.035  17.783  0.00  0.00    +0.000 A 
ATOM      6  C   UNL     1       4.446   6.202  16.924  0.00  0.00    +0.000 A 
ATOM      7  C   UNL     1       5.264   6.406  15.801  0.00  0.00    +0.000 A 
ATOM      8  C   UNL     1       5.858   5.292  15.193  0.00  0.00    +0.000 A 
ATOM      9  C   UNL     1       5.644   4.003  15.690  0.00  0.00    +0.000 A 
ATOM     10  C   UNL     1       4.835   3.782  16.811  0.00  0.00    +0.000 A 
ATOM     11  C   UNL     1       4.257   4.908  17.394  0.00  0.00    +0.000 A 
ATOM     12  O   UNL     1       3.441   4.912  18.487  0.00  0.00    +0.000 OA
ENDBRANCH   2   4
BRANCH   3  13
ATOM     13  N   UNL     1       1.204   8.260  21.020  0.00  0.00    +0.000 N 
ATOM     14  C   UNL     1       0.482   9.413  20.915  0.00  0.00    +0.000 A 
ATOM     15  N   UNL     1       0.228  10.192  21.946  0.00  0.00    +0.000 NA
ATOM     16  C   UNL     1      -0.442  11.337  21.541  0.00  0.00    +0.000 A 
ATOM     17  C   UNL     1      -0.753  12.386  22.543  0.00  0.00    +0.000 C 
ATOM     18  C   UNL     1      -0.745  11.384  20.195  0.00  0.00    +0.000 A 
ATOM     19  S   UNL     1      -0.157   9.986  19.413  0.00  0.00    +0.000 S 
ATOM     20  H   UNL     1       1.576   8.130  21.958  0.00  0.00    +0.000 HD
ENDBRANCH   3  13
TORSDOF 2
ENDMDL
MODEL 3
REMARK VINA RESULT:      -6.9      5.371      7.628
REMARK  Name = 
REMARK  4 active torsions:
REMARK  status: ('A' for Active; 'I' for Inactive)
REMARK    1  A    between atoms: C_1  and  C_2
REMARK    2  A    between atoms: C_2  and  C_11
REMARK    3  A    between atoms: N_3  and  N_4
REMARK    4  A    between atoms: C_7  and  C_8
REMARK                            x       y       z     vdW  Elec       q    Type
REMARK                         _______ _______ _______ _____ _____    ______ ____
ROOT
ATOM      1  C   UNL     1       7.977   6.326  19.024  0.00  0.00    +0.000 C 
ATOM      2  C   UNL     1       7.939   7.328  17.896  0.00  0.00    +0.000 C 
ATOM      3  N   UNL     1       7.566   7.090  16.673  0.00  0.00    +0.000 NA
ENDROOT
BRANCH   2   4
ATOM      4  C   UNL     1       8.355   8.685  18.175  0.00  0.00    +0.000 A 
ATOM      5  C   UNL     1       8.148   9.845  17.447  0.00  0.00    +0.000 A 
ATOM      6  C   UNL     1       8.749  10.901  18.169  0.00  0.00    +0.000 A 
ATOM      7  C   UNL     1       8.888  12.286  17.980  0.00  0.00    +0.000 A 
ATOM      8  C   UNL     1       9.581  13.028  18.946  0.00  0.00    +0.000 A 
ATOM      9  C   UNL     1      10.122  12.408  20.076  0.00  0.00    +0.000 A 
ATOM     10  C   UNL     1       9.989  11.029  20.282  0.00  0.00    +0.000 A 
ATOM     11  C   UNL     1       9.297  10.318  19.305  0.00  0.00    +0.000 A 
ATOM     12  O   UNL     1       9.056   8.975  19.313  0.00  0.00    +0.000 OA
ENDBRANCH   2   4
BRANCH   3  13
ATOM     13  N   UNL     1       7.089   5.866  16.308  0.00  0.00    +0.000 N 
ATOM     14  C   UNL     1       5.852   5.457  16.711  0.00  0.00    +0.000 A 
ATOM     15  N   UNL     1       5.550   4.191  16.915  0.00  0.00    +0.000 NA
ATOM     16  C   UNL     1       4.258   4.069  17.404  0.00  0.00    +0.000 A 
ATOM     17  C   UNL     1       3.749   2.726  17.776  0.00  0.00    +0.000 C 
ATOM     18  C   UNL     1       3.565   5.258  17.511  0.00  0.00    +0.000 A 
ATOM     19  S   UNL     1       4.554   6.559  17.018  0.00  0.00    +0.000 S 
ATOM     20  H   UNL     1       7.749   5.092  16.267  0.00  0.00    +0.000 HD
ENDBRANCH   3  13
TORSDOF 2
ENDMDL
MODEL 4
REMARK VINA RESULT:      -6.8      0.783      1.387
REMARK  Name = 
REMARK  4 active torsions:
REMARK  status: ('A' for Active; 'I' for Inactive)
REMARK    1  A    between atoms: C_1  and  C_2
REMARK    2  A    between atoms: C_2  and  C_11
REMARK    3  A    between atoms: N_3  and  N_4
REMARK    4  A    between atoms: C_7  and  C_8
REMARK                            x       y       z     vdW  Elec       q    Type
REMARK                         _______ _______ _______ _____ _____    ______ ____
ROOT
ATOM      1  C   UNL     1       2.013   4.796  20.606  0.00  0.00    +0.000 C 
ATOM      2  C   UNL     1       2.693   5.955  19.921  0.00  0.00    +0.000 C 
ATOM      3  N   UNL     1       2.378   7.210  20.047  0.00  0.00    +0.000 NA
ENDROOT
BRANCH   2   4
ATOM      4  C   UNL     1       3.799   5.669  19.034  0.00  0.00    +0.000 A 
ATOM      5  C   UNL     1       5.058   5.167  19.318  0.00  0.00    +0.000 A 
ATOM      6  C   UNL     1       5.752   5.064  18.090  0.00  0.00    +0.000 A 
ATOM      7  C   UNL     1       7.031   4.638  17.699  0.00  0.00    +0.000 A 
ATOM      8  C   UNL     1       7.370   4.692  16.341  0.00  0.00    +0.000 A 
ATOM      9  C   UNL     1       6.456   5.157  15.391  0.00  0.00    +0.000 A 
ATOM     10  C   UNL     1       5.175   5.581  15.762  0.00  0.00    +0.000 A 
ATOM     11  C   UNL     1       4.867   5.518  17.119  0.00  0.00    +0.000 A 
ATOM     12  O   UNL     1       3.681   5.881  17.688  0.00  0.00    +0.000 OA
ENDBRANCH   2   4
BRANCH   3  13
ATOM     13  N   UNL     1       1.398   7.607  20.907  0.00  0.00    +0.000 N 
ATOM     14  C   UNL     1       0.826   8.839  20.782  0.00  0.00    +0.000 A 
ATOM     15  N   UNL     1       0.347   9.511  21.809  0.00  0.00    +0.000 NA
ATOM     16  C   UNL     1      -0.091  10.766  21.412  0.00  0.00    +0.000 A 
ATOM     17  C   UNL     1      -0.594  11.714  22.437  0.00  0.00    +0.000 C 
ATOM     18  C   UNL     1       0.007  11.011  20.057  0.00  0.00    +0.000 A 
ATOM     19  S   UNL     1       0.687   9.660  19.265  0.00  0.00    +0.000 S 
ATOM     20  H   UNL     1       1.476   7.323  21.880  0.00  0.00    +0.000 HD
ENDBRANCH   3  13
TORSDOF 2
ENDMDL
MODEL 5
REMARK VINA RESULT:      -6.8      3.169      8.007
REMARK  Name = 
REMARK  4 active torsions:
REMARK  status: ('A' for Active; 'I' for Inactive)
REMARK    1  A    between atoms: C_1  and  C_2
REMARK    2  A    between atoms: C_2  and  C_11
REMARK    3  A    between atoms: N_3  and  N_4
REMARK    4  A    between atoms: C_7  and  C_8
REMARK                            x       y       z     vdW  Elec       q    Type
REMARK                         _______ _______ _______ _____ _____    ______ ____
ROOT
ATOM      1  C   UNL     1       2.400   8.246  17.896  0.00  0.00    +0.000 C 
ATOM      2  C   UNL     1       2.132   7.732  19.289  0.00  0.00    +0.000 C 
ATOM      3  N   UNL     1       2.561   6.611  19.787  0.00  0.00    +0.000 NA
ENDROOT
BRANCH   2   4
ATOM      4  C   UNL     1       1.321   8.543  20.170  0.00  0.00    +0.000 A 
ATOM      5  C   UNL     1       1.014   8.366  21.508  0.00  0.00    +0.000 A 
ATOM      6  C   UNL     1       0.196   9.453  21.895  0.00  0.00    +0.000 A 
ATOM      7  C   UNL     1      -0.434   9.854  23.084  0.00  0.00    +0.000 A 
ATOM      8  C   UNL     1      -1.195  11.030  23.076  0.00  0.00    +0.000 A 
ATOM      9  C   UNL     1      -1.326  11.792  21.911  0.00  0.00    +0.000 A 
ATOM     10  C   UNL     1      -0.702  11.409  20.718  0.00  0.00    +0.000 A 
ATOM     11  C   UNL     1       0.047  10.235  20.756  0.00  0.00    +0.000 A 
ATOM     12  O   UNL     1       0.731   9.689  19.710  0.00  0.00    +0.000 OA
ENDBRANCH   2   4
BRANCH   3  13
ATOM     13  N   UNL     1       3.389   5.795  19.074  0.00  0.00    +0.000 N 
ATOM     14  C   UNL     1       3.023   4.512  18.794  0.00  0.00    +0.000 A 
ATOM     15  N   UNL     1       3.896   3.535  18.653  0.00  0.00    +0.000 NA
ATOM     16  C   UNL     1       3.249   2.323  18.464  0.00  0.00    +0.000 A 
ATOM     17  C   UNL     1       4.054   1.081  18.364  0.00  0.00    +0.000 C 
ATOM     18  C   UNL     1       1.873   2.406  18.402  0.00  0.00    +0.000 A 
ATOM     19  S   UNL     1       1.373   4.025  18.613  0.00  0.00    +0.000 S 
ATOM     20  H   UNL     1       4.391   5.877  19.236  0.00  0.00    +0.000 HD
ENDBRANCH   3  13
TORSDOF 2
ENDMDL
MODEL 6
REMARK VINA RESULT:      -6.7      1.221      1.339
REMARK  Name = 
REMARK  4 active torsions:
REMARK  status: ('A' for Active; 'I' for Inactive)
REMARK    1  A    between atoms: C_1  and  C_2
REMARK    2  A    between atoms: C_2  and  C_11
REMARK    3  A    between atoms: N_3  and  N_4
REMARK    4  A    between atoms: C_7  and  C_8
REMARK                            x       y       z     vdW  Elec       q    Type
REMARK                         _______ _______ _______ _____ _____    ______ ____
ROOT
ATOM      1  C   UNL     1       1.698   5.397  20.656  0.00  0.00    +0.000 C 
ATOM      2  C   UNL     1       2.319   6.370  19.685  0.00  0.00    +0.000 C 
ATOM      3  N   UNL     1       2.155   7.660  19.685  0.00  0.00    +0.000 NA
ENDROOT
BRANCH   2   4
ATOM      4  C   UNL     1       3.178   5.844  18.647  0.00  0.00    +0.000 A 
ATOM      5  C   UNL     1       3.550   4.538  18.379  0.00  0.00    +0.000 A 
ATOM      6  C   UNL     1       4.392   4.569  17.244  0.00  0.00    +0.000 A 
ATOM      7  C   UNL     1       5.083   3.609  16.487  0.00  0.00    +0.000 A 
ATOM      8  C   UNL     1       5.850   4.040  15.396  0.00  0.00    +0.000 A 
ATOM      9  C   UNL     1       5.928   5.395  15.064  0.00  0.00    +0.000 A 
ATOM     10  C   UNL     1       5.242   6.366  15.806  0.00  0.00    +0.000 A 
ATOM     11  C   UNL     1       4.490   5.908  16.885  0.00  0.00    +0.000 A 
ATOM     12  O   UNL     1       3.751   6.683  17.730  0.00  0.00    +0.000 OA
ENDBRANCH   2   4
BRANCH   3  13
ATOM     13  N   UNL     1       1.424   8.277  20.655  0.00  0.00    +0.000 N 
ATOM     14  C   UNL     1       0.848   9.491  20.421  0.00  0.00    +0.000 A 
ATOM     15  N   UNL     1       0.645  10.380  21.372  0.00  0.00    +0.000 NA
ATOM     16  C   UNL     1       0.131  11.555  20.842  0.00  0.00    +0.000 A 
ATOM     17  C   UNL     1      -0.093  12.715  21.739  0.00  0.00    +0.000 C 
ATOM     18  C   UNL     1      -0.110  11.520  19.484  0.00  0.00    +0.000 A 
ATOM     19  S   UNL     1       0.341  10.001  18.848  0.00  0.00    +0.000 S 
ATOM     20  H   UNL     1       1.740   8.187  21.618  0.00  0.00    +0.000 HD
ENDBRANCH   3  13
TORSDOF 2
ENDMDL
MODEL 7
REMARK VINA RESULT:      -6.6      5.135      6.286
REMARK  Name = 
REMARK  4 active torsions:
REMARK  status: ('A' for Active; 'I' for Inactive)
REMARK    1  A    between atoms: C_1  and  C_2
REMARK    2  A    between atoms: C_2  and  C_11
REMARK    3  A    between atoms: N_3  and  N_4
REMARK    4  A    between atoms: C_7  and  C_8
REMARK                            x       y       z     vdW  Elec       q    Type
REMARK                         _______ _______ _______ _____ _____    ______ ____
ROOT
ATOM      1  C   UNL     1       5.854   5.752  18.432  0.00  0.00    +0.000 C 
ATOM      2  C   UNL     1       5.948   4.469  17.642  0.00  0.00    +0.000 C 
ATOM      3  N   UNL     1       5.722   3.272  18.096  0.00  0.00    +0.000 NA
ENDROOT
BRANCH   2   4
ATOM      4  C   UNL     1       6.326   4.554  16.249  0.00  0.00    +0.000 A 
ATOM      5  C   UNL     1       7.231   5.394  15.623  0.00  0.00    +0.000 A 
ATOM      6  C   UNL     1       7.235   5.054  14.250  0.00  0.00    +0.000 A 
ATOM      7  C   UNL     1       7.913   5.514  13.110  0.00  0.00    +0.000 A 
ATOM      8  C   UNL     1       7.636   4.910  11.876  0.00  0.00    +0.000 A 
ATOM      9  C   UNL     1       6.706   3.871  11.778  0.00  0.00    +0.000 A 
ATOM     10  C   UNL     1       6.024   3.398  12.905  0.00  0.00    +0.000 A 
ATOM     11  C   UNL     1       6.319   4.017  14.117  0.00  0.00    +0.000 A 
ATOM     12  O   UNL     1       5.769   3.709  15.328  0.00  0.00    +0.000 OA
ENDBRANCH   2   4
BRANCH   3  13
ATOM     13  N   UNL     1       5.293   3.074  19.375  0.00  0.00    +0.000 N 
ATOM     14  C   UNL     1       4.003   2.708  19.623  0.00  0.00    +0.000 A 
ATOM     15  N   UNL     1       3.367   3.040  20.728  0.00  0.00    +0.000 NA
ATOM     16  C   UNL     1       2.046   2.618  20.679  0.00  0.00    +0.000 A 
ATOM     17  C   UNL     1       1.134   2.965  21.796  0.00  0.00    +0.000 C 
ATOM     18  C   UNL     1       1.709   1.907  19.545  0.00  0.00    +0.000 A 
ATOM     19  S   UNL     1       3.057   1.787  18.505  0.00  0.00    +0.000 S 
ATOM     20  H   UNL     1       5.659   3.688  20.099  0.00  0.00    +0.000 HD
ENDBRANCH   3  13
TORSDOF 2
ENDMDL
MODEL 8
REMARK VINA RESULT:      -6.6      2.599      3.382
REMARK  Name = 
REMARK  4 active torsions:
REMARK  status: ('A' for Active; 'I' for Inactive)
REMARK    1  A    between atoms: C_1  and  C_2
REMARK    2  A    between atoms: C_2  and  C_11
REMARK    3  A    between atoms: N_3  and  N_4
REMARK    4  A    between atoms: C_7  and  C_8
REMARK                            x       y       z     vdW  Elec       q    Type
REMARK                         _______ _______ _______ _____ _____    ______ ____
ROOT
ATOM      1  C   UNL     1       2.374   8.692  17.830  0.00  0.00    +0.000 C 
ATOM      2  C   UNL     1       1.979   7.933  19.072  0.00  0.00    +0.000 C 
ATOM      3  N   UNL     1       1.504   8.449  20.166  0.00  0.00    +0.000 NA
ENDROOT
BRANCH   2   4
ATOM      4  C   UNL     1       2.138   6.495  19.071  0.00  0.00    +0.000 A 
ATOM      5  C   UNL     1       2.116   5.598  20.126  0.00  0.00    +0.000 A 
ATOM      6  C   UNL     1       2.307   4.308  19.579  0.00  0.00    +0.000 A 
ATOM      7  C   UNL     1       2.383   3.006  20.099  0.00  0.00    +0.000 A 
ATOM      8  C   UNL     1       2.596   1.942  19.212  0.00  0.00    +0.000 A 
ATOM      9  C   UNL     1       2.728   2.167  17.839  0.00  0.00    +0.000 A 
ATOM     10  C   UNL     1       2.650   3.459  17.304  0.00  0.00    +0.000 A 
ATOM     11  C   UNL     1       2.440   4.496  18.209  0.00  0.00    +0.000 A 
ATOM     12  O   UNL     1       2.334   5.820  17.897  0.00  0.00    +0.000 OA
ENDBRANCH   2   4
BRANCH   3  13
ATOM     13  N   UNL     1       1.247   9.784  20.260  0.00  0.00    +0.000 N 
ATOM     14  C   UNL     1       0.386  10.258  21.206  0.00  0.00    +0.000 A 
ATOM     15  N   UNL     1      -0.340  11.343  21.031  0.00  0.00    +0.000 NA
ATOM     16  C   UNL     1      -1.190  11.543  22.109  0.00  0.00    +0.000 A 
ATOM     17  C   UNL     1      -2.153  12.671  22.072  0.00  0.00    +0.000 C 
ATOM     18  C   UNL     1      -1.053  10.626  23.131  0.00  0.00    +0.000 A 
ATOM     19  S   UNL     1       0.140   9.473  22.728  0.00  0.00    +0.000 S 
ATOM     20  H   UNL     1       1.192  10.320  19.397  0.00  0.00    +0.000 HD
ENDBRANCH   3  13
TORSDOF 2
ENDMDL
MODEL 9
REMARK VINA RESULT:      -6.5      5.102      6.300
REMARK  Name = 
REMARK  4 active torsions:
REMARK  status: ('A' for Active; 'I' for Inactive)
REMARK    1  A    between atoms: C_1  and  C_2
REMARK    2  A    between atoms: C_2  and  C_11
REMARK    3  A    between atoms: N_3  and  N_4
REMARK    4  A    between atoms: C_7  and  C_8
REMARK                            x       y       z     vdW  Elec       q    Type
REMARK                         _______ _______ _______ _____ _____    ______ ____
ROOT
ATOM      1  C   UNL     1       6.141   6.000  17.963  0.00  0.00    +0.000 C 
ATOM      2  C   UNL     1       6.013   4.658  17.284  0.00  0.00    +0.000 C 
ATOM      3  N   UNL     1       5.654   3.545  17.850  0.00  0.00    +0.000 NA
ENDROOT
BRANCH   2   4
ATOM      4  C   UNL     1       6.316   4.578  15.872  0.00  0.00    +0.000 A 
ATOM      5  C   UNL     1       5.803   3.736  14.900  0.00  0.00    +0.000 A 
ATOM      6  C   UNL     1       6.426   4.082  13.678  0.00  0.00    +0.000 A 
ATOM      7  C   UNL     1       6.348   3.623  12.353  0.00  0.00    +0.000 A 
ATOM      8  C   UNL     1       7.157   4.232  11.385  0.00  0.00    +0.000 A 
ATOM      9  C   UNL     1       8.022   5.276  11.724  0.00  0.00    +0.000 A 
ATOM     10  C   UNL     1       8.109   5.748  13.040  0.00  0.00    +0.000 A 
ATOM     11  C   UNL     1       7.296   5.123  13.981  0.00  0.00    +0.000 A 
ATOM     12  O   UNL     1       7.228   5.429  15.309  0.00  0.00    +0.000 OA
ENDBRANCH   2   4
BRANCH   3  13
ATOM     13  N   UNL     1       5.279   3.510  19.160  0.00  0.00    +0.000 N 
ATOM     14  C   UNL     1       4.083   2.964  19.523  0.00  0.00    +0.000 A 
ATOM     15  N   UNL     1       3.403   3.371  20.575  0.00  0.00    +0.000 NA
ATOM     16  C   UNL     1       2.186   2.710  20.657  0.00  0.00    +0.000 A 
ATOM     17  C   UNL     1       1.231   3.083  21.730  0.00  0.00    +0.000 C 
ATOM     18  C   UNL     1       1.982   1.751  19.685  0.00  0.00    +0.000 A 
ATOM     19  S   UNL     1       3.322   1.693  18.629  0.00  0.00    +0.000 S 
ATOM     20  H   UNL     1       5.526   4.305  19.746  0.00  0.00    +0.000 HD
ENDBRANCH   3  13
TORSDOF 2
ENDMDL
