MODEL 1
REMARK VINA RESULT:      -8.0      0.000      0.000
REMARK  Name = 
REMARK  14 active torsions:
REMARK  status: ('A' for Active; 'I' for Inactive)
REMARK    1  A    between atoms: C_1  and  C_2
REMARK    2  A    between atoms: C_2  and  C_3
REMARK    3  A    between atoms: C_3  and  C_4
REMARK    4  A    between atoms: C_3  and  C_5
REMARK    5  A    between atoms: C_5  and  N_6
REMARK    6  A    between atoms: C_5  and  C_13
REMARK    7  A    between atoms: C_7  and  C_9
REMARK    8  A    between atoms: C_9  and  C_10
REMARK    9  A    between atoms: C_9  and  N_11
REMARK   10  A    between atoms: N_11  and  C_12
REMARK   11  A    between atoms: C_19  and  C_20
REMARK   12  A    between atoms: N_22  and  C_23
REMARK   13  A    between atoms: C_23  and  C_24
REMARK   14  A    between atoms: C_23  and  C_30
REMARK                            x       y       z     vdW  Elec       q    Type
REMARK                         _______ _______ _______ _____ _____    ______ ____
ROOT
ATOM      1  C   UNL     1      -0.151  11.157  19.225  0.00  0.00    +0.000 C 
ATOM      2  O   UNL     1       0.732  11.921  18.834  0.00  0.00    +0.000 OA
ATOM      3  N   UNL     1       0.164   9.981  19.884  0.00  0.00    +0.000 N 
ATOM      4  C   UNL     1      -0.720   9.140  20.659  0.00  0.00    +0.000 C 
ATOM      5  C   UNL     1       0.145   8.698  21.831  0.00  0.00    +0.000 C 
ATOM      6  C   UNL     1       1.598   8.764  21.340  0.00  0.00    +0.000 C 
ATOM      7  C   UNL     1       1.542   9.480  19.981  0.00  0.00    +0.000 C 
ENDROOT
BRANCH   7   8
ATOM      8  C   UNL     1       1.851   8.510  18.805  0.00  0.00    +0.000 C 
ATOM      9  O   UNL     1       1.423   8.691  17.669  0.00  0.00    +0.000 OA
ATOM     10  N   UNL     1       2.593   7.399  19.147  0.00  0.00    +0.000 N 
ATOM     11  H   UNL     1       2.888   7.264  20.099  0.00  0.00    +0.000 HD
BRANCH  10  12
ATOM     12  C   UNL     1       2.827   6.270  18.267  0.00  0.00    +0.000 C 
BRANCH  12  13
ATOM     13  C   UNL     1       4.349   6.136  18.102  0.00  0.00    +0.000 A 
ATOM     14  C   UNL     1       5.172   5.397  18.968  0.00  0.00    +0.000 A 
ATOM     15  C   UNL     1       6.565   5.507  18.920  0.00  0.00    +0.000 A 
ATOM     16  C   UNL     1       7.169   6.341  17.985  0.00  0.00    +0.000 A 
ATOM     17  C   UNL     1       6.380   7.039  17.077  0.00  0.00    +0.000 A 
ATOM     18  C   UNL     1       4.986   6.940  17.135  0.00  0.00    +0.000 A 
ENDBRANCH  12  13
BRANCH  12  19
ATOM     19  C   UNL     1       2.061   5.062  18.797  0.00  0.00    +0.000 A 
ATOM     20  C   UNL     1       1.775   4.973  20.168  0.00  0.00    +0.000 A 
ATOM     21  C   UNL     1       1.108   3.861  20.690  0.00  0.00    +0.000 A 
ATOM     22  C   UNL     1       0.706   2.829  19.848  0.00  0.00    +0.000 A 
ATOM     23  C   UNL     1       1.017   2.878  18.493  0.00  0.00    +0.000 A 
ATOM     24  C   UNL     1       1.716   3.970  17.981  0.00  0.00    +0.000 A 
ENDBRANCH  12  19
ENDBRANCH  10  12
ENDBRANCH   7   8
BRANCH   1  25
ATOM     25  C   UNL     1      -1.660  11.535  19.055  0.00  0.00    +0.000 C 
BRANCH  25  26
ATOM     26  N   UNL     1      -1.884  12.921  19.496  0.00  0.00    +0.000 N 
ATOM     27  C   UNL     1      -2.502  13.173  20.707  0.00  0.00    +0.000 C 
ATOM     28  O   UNL     1      -2.619  12.298  21.565  0.00  0.00    +0.000 OA
ATOM     29  H   UNL     1      -1.927  13.660  18.806  0.00  0.00    +0.000 HD
BRANCH  27  30
ATOM     30  C   UNL     1      -2.974  14.632  20.943  0.00  0.00    +0.000 C 
ATOM     31  C   UNL     1      -1.854  15.399  21.657  0.00  0.00    +0.000 C 
BRANCH  30  32
ATOM     32  N   UNL     1      -4.249  14.647  21.708  0.00  0.00    +0.000 NA
ATOM     33  C   UNL     1      -5.414  14.754  20.830  0.00  0.00    +0.000 C 
ATOM     34  H   UNL     1      -4.244  15.459  22.331  0.00  0.00    +0.000 HD
ENDBRANCH  30  32
ENDBRANCH  27  30
ENDBRANCH  25  26
BRANCH  25  35
ATOM     35  C   UNL     1      -2.161  11.348  17.581  0.00  0.00    +0.000 C 
ATOM     36  C   UNL     1      -3.664  11.637  17.411  0.00  0.00    +0.000 C 
BRANCH  35  38
ATOM     37  C   UNL     1      -2.691   9.557  15.803  0.00  0.00    +0.000 C 
ATOM     38  C   UNL     1      -1.854   9.943  17.014  0.00  0.00    +0.000 C 
ENDBRANCH  35  38
ENDBRANCH  25  35
ENDBRANCH   1  25
TORSDOF 10
ENDMDL
MODEL 2
REMARK VINA RESULT:      -8.0      0.522      1.125
REMARK  Name = 
REMARK  14 active torsions:
REMARK  status: ('A' for Active; 'I' for Inactive)
REMARK    1  A    between atoms: C_1  and  C_2
REMARK    2  A    between atoms: C_2  and  C_3
REMARK    3  A    between atoms: C_3  and  C_4
REMARK    4  A    between atoms: C_3  and  C_5
REMARK    5  A    between atoms: C_5  and  N_6
REMARK    6  A    between atoms: C_5  and  C_13
REMARK    7  A    between atoms: C_7  and  C_9
REMARK    8  A    between atoms: C_9  and  C_10
REMARK    9  A    between atoms: C_9  and  N_11
REMARK   10  A    between atoms: N_11  and  C_12
REMARK   11  A    between atoms: C_19  and  C_20
REMARK   12  A    between atoms: N_22  and  C_23
REMARK   13  A    between atoms: C_23  and  C_24
REMARK   14  A    between atoms: C_23  and  C_30
REMARK                            x       y       z     vdW  Elec       q    Type
REMARK                         _______ _______ _______ _____ _____    ______ ____
ROOT
ATOM      1  C   UNL     1      -0.151  11.110  19.341  0.00  0.00    +0.000 C 
ATOM      2  O   UNL     1       0.743  11.865  18.957  0.00  0.00    +0.000 OA
ATOM      3  N   UNL     1       0.146   9.924  19.992  0.00  0.00    +0.000 N 
ATOM      4  C   UNL     1      -0.752   9.090  20.759  0.00  0.00    +0.000 C 
ATOM      5  C   UNL     1       0.105   8.627  21.929  0.00  0.00    +0.000 C 
ATOM      6  C   UNL     1       1.560   8.677  21.442  0.00  0.00    +0.000 C 
ATOM      7  C   UNL     1       1.516   9.404  20.088  0.00  0.00    +0.000 C 
ENDROOT
BRANCH   7   8
ATOM      8  C   UNL     1       1.814   8.438  18.905  0.00  0.00    +0.000 C 
ATOM      9  O   UNL     1       1.357   8.611  17.779  0.00  0.00    +0.000 OA
ATOM     10  N   UNL     1       2.583   7.341  19.230  0.00  0.00    +0.000 N 
ATOM     11  H   UNL     1       2.903   7.212  20.175  0.00  0.00    +0.000 HD
BRANCH  10  12
ATOM     12  C   UNL     1       2.816   6.215  18.345  0.00  0.00    +0.000 C 
BRANCH  12  13
ATOM     13  C   UNL     1       4.334   6.116  18.132  0.00  0.00    +0.000 A 
ATOM     14  C   UNL     1       5.201   5.395  18.970  0.00  0.00    +0.000 A 
ATOM     15  C   UNL     1       6.589   5.537  18.879  0.00  0.00    +0.000 A 
ATOM     16  C   UNL     1       7.144   6.386  17.928  0.00  0.00    +0.000 A 
ATOM     17  C   UNL     1       6.311   7.069  17.047  0.00  0.00    +0.000 A 
ATOM     18  C   UNL     1       4.923   6.937  17.149  0.00  0.00    +0.000 A 
ENDBRANCH  12  13
BRANCH  12  19
ATOM     19  C   UNL     1       2.096   4.991  18.902  0.00  0.00    +0.000 A 
ATOM     20  C   UNL     1       1.671   3.980  18.026  0.00  0.00    +0.000 A 
ATOM     21  C   UNL     1       0.976   2.865  18.501  0.00  0.00    +0.000 A 
ATOM     22  C   UNL     1       0.708   2.736  19.861  0.00  0.00    +0.000 A 
ATOM     23  C   UNL     1       1.083   3.746  20.740  0.00  0.00    +0.000 A 
ATOM     24  C   UNL     1       1.743   4.876  20.258  0.00  0.00    +0.000 A 
ENDBRANCH  12  19
ENDBRANCH  10  12
ENDBRANCH   7   8
BRANCH   1  25
ATOM     25  C   UNL     1      -1.655  11.510  19.171  0.00  0.00    +0.000 C 
BRANCH  25  26
ATOM     26  N   UNL     1      -1.864  12.889  19.640  0.00  0.00    +0.000 N 
ATOM     27  C   UNL     1      -2.570  13.127  20.805  0.00  0.00    +0.000 C 
ATOM     28  O   UNL     1      -2.788  12.231  21.620  0.00  0.00    +0.000 OA
ATOM     29  H   UNL     1      -1.824  13.650  18.974  0.00  0.00    +0.000 HD
BRANCH  27  30
ATOM     30  C   UNL     1      -3.007  14.595  21.052  0.00  0.00    +0.000 C 
ATOM     31  C   UNL     1      -1.953  15.528  20.443  0.00  0.00    +0.000 C 
BRANCH  30  32
ATOM     32  N   UNL     1      -3.210  14.838  22.504  0.00  0.00    +0.000 NA
ATOM     33  C   UNL     1      -1.979  15.268  23.166  0.00  0.00    +0.000 C 
ATOM     34  H   UNL     1      -3.516  13.963  22.939  0.00  0.00    +0.000 HD
ENDBRANCH  30  32
ENDBRANCH  27  30
ENDBRANCH  25  26
BRANCH  25  35
ATOM     35  C   UNL     1      -2.149  11.360  17.690  0.00  0.00    +0.000 C 
ATOM     36  C   UNL     1      -3.650  11.662  17.520  0.00  0.00    +0.000 C 
BRANCH  35  38
ATOM     37  C   UNL     1      -2.687   9.612  15.874  0.00  0.00    +0.000 C 
ATOM     38  C   UNL     1      -1.848   9.968  17.092  0.00  0.00    +0.000 C 
ENDBRANCH  35  38
ENDBRANCH  25  35
ENDBRANCH   1  25
TORSDOF 10
ENDMDL
MODEL 3
REMARK VINA RESULT:      -7.9      0.695      1.366
REMARK  Name = 
REMARK  14 active torsions:
REMARK  status: ('A' for Active; 'I' for Inactive)
REMARK    1  A    between atoms: C_1  and  C_2
REMARK    2  A    between atoms: C_2  and  C_3
REMARK    3  A    between atoms: C_3  and  C_4
REMARK    4  A    between atoms: C_3  and  C_5
REMARK    5  A    between atoms: C_5  and  N_6
REMARK    6  A    between atoms: C_5  and  C_13
REMARK    7  A    between atoms: C_7  and  C_9
REMARK    8  A    between atoms: C_9  and  C_10
REMARK    9  A    between atoms: C_9  and  N_11
REMARK   10  A    between atoms: N_11  and  C_12
REMARK   11  A    between atoms: C_19  and  C_20
REMARK   12  A    between atoms: N_22  and  C_23
REMARK   13  A    between atoms: C_23  and  C_24
REMARK   14  A    between atoms: C_23  and  C_30
REMARK                            x       y       z     vdW  Elec       q    Type
REMARK                         _______ _______ _______ _____ _____    ______ ____
ROOT
ATOM      1  C   UNL     1      -0.257  11.102  19.509  0.00  0.00    +0.000 C 
ATOM      2  O   UNL     1       0.596  11.906  19.131  0.00  0.00    +0.000 OA
ATOM      3  N   UNL     1       0.104   9.903  20.100  0.00  0.00    +0.000 N 
ATOM      4  C   UNL     1      -0.737   9.005  20.858  0.00  0.00    +0.000 C 
ATOM      5  C   UNL     1       0.174   8.527  21.982  0.00  0.00    +0.000 C 
ATOM      6  C   UNL     1       1.609   8.653  21.453  0.00  0.00    +0.000 C 
ATOM      7  C   UNL     1       1.496   9.432  20.133  0.00  0.00    +0.000 C 
ENDROOT
BRANCH   7   8
ATOM      8  C   UNL     1       1.791   8.528  18.902  0.00  0.00    +0.000 C 
ATOM      9  O   UNL     1       1.401   8.802  17.771  0.00  0.00    +0.000 OA
ATOM     10  N   UNL     1       2.476   7.365  19.186  0.00  0.00    +0.000 N 
ATOM     11  H   UNL     1       2.741   7.155  20.133  0.00  0.00    +0.000 HD
BRANCH  10  12
ATOM     12  C   UNL     1       2.683   6.287  18.238  0.00  0.00    +0.000 C 
BRANCH  12  13
ATOM     13  C   UNL     1       4.189   6.227  17.945  0.00  0.00    +0.000 A 
ATOM     14  C   UNL     1       4.761   6.515  16.694  0.00  0.00    +0.000 A 
ATOM     15  C   UNL     1       6.097   6.209  16.415  0.00  0.00    +0.000 A 
ATOM     16  C   UNL     1       6.901   5.633  17.392  0.00  0.00    +0.000 A 
ATOM     17  C   UNL     1       6.377   5.390  18.658  0.00  0.00    +0.000 A 
ATOM     18  C   UNL     1       5.037   5.682  18.931  0.00  0.00    +0.000 A 
ENDBRANCH  12  13
BRANCH  12  19
ATOM     19  C   UNL     1       2.013   5.024  18.772  0.00  0.00    +0.000 A 
ATOM     20  C   UNL     1       1.658   4.950  20.127  0.00  0.00    +0.000 A 
ATOM     21  C   UNL     1       1.078   3.793  20.654  0.00  0.00    +0.000 A 
ATOM     22  C   UNL     1       0.830   2.698  19.830  0.00  0.00    +0.000 A 
ATOM     23  C   UNL     1       1.213   2.736  18.494  0.00  0.00    +0.000 A 
ATOM     24  C   UNL     1       1.826   3.877  17.979  0.00  0.00    +0.000 A 
ENDBRANCH  12  19
ENDBRANCH  10  12
ENDBRANCH   7   8
BRANCH   1  25
ATOM     25  C   UNL     1      -1.779  11.451  19.402  0.00  0.00    +0.000 C 
BRANCH  25  26
ATOM     26  N   UNL     1      -2.036  12.769  20.004  0.00  0.00    +0.000 N 
ATOM     27  C   UNL     1      -2.348  12.871  21.347  0.00  0.00    +0.000 C 
ATOM     28  O   UNL     1      -2.142  11.941  22.127  0.00  0.00    +0.000 OA
ATOM     29  H   UNL     1      -2.337  13.533  19.413  0.00  0.00    +0.000 HD
BRANCH  27  30
ATOM     30  C   UNL     1      -2.904  14.240  21.819  0.00  0.00    +0.000 C 
ATOM     31  C   UNL     1      -4.115  14.600  20.950  0.00  0.00    +0.000 C 
BRANCH  30  32
ATOM     32  N   UNL     1      -1.841  15.277  21.769  0.00  0.00    +0.000 NA
ATOM     33  C   UNL     1      -0.937  15.190  22.915  0.00  0.00    +0.000 C 
ATOM     34  H   UNL     1      -2.286  16.198  21.783  0.00  0.00    +0.000 HD
ENDBRANCH  30  32
ENDBRANCH  27  30
ENDBRANCH  25  26
BRANCH  25  35
ATOM     35  C   UNL     1      -2.296  11.421  17.922  0.00  0.00    +0.000 C 
ATOM     36  C   UNL     1      -3.819  11.619  17.808  0.00  0.00    +0.000 C 
BRANCH  35  38
ATOM     37  C   UNL     1      -2.713   9.859  15.913  0.00  0.00    +0.000 C 
ATOM     38  C   UNL     1      -1.903  10.128  17.172  0.00  0.00    +0.000 C 
ENDBRANCH  35  38
ENDBRANCH  25  35
ENDBRANCH   1  25
TORSDOF 10
ENDMDL
MODEL 4
REMARK VINA RESULT:      -7.7      0.985      1.460
REMARK  Name = 
REMARK  14 active torsions:
REMARK  status: ('A' for Active; 'I' for Inactive)
REMARK    1  A    between atoms: C_1  and  C_2
REMARK    2  A    between atoms: C_2  and  C_3
REMARK    3  A    between atoms: C_3  and  C_4
REMARK    4  A    between atoms: C_3  and  C_5
REMARK    5  A    between atoms: C_5  and  N_6
REMARK    6  A    between atoms: C_5  and  C_13
REMARK    7  A    between atoms: C_7  and  C_9
REMARK    8  A    between atoms: C_9  and  C_10
REMARK    9  A    between atoms: C_9  and  N_11
REMARK   10  A    between atoms: N_11  and  C_12
REMARK   11  A    between atoms: C_19  and  C_20
REMARK   12  A    between atoms: N_22  and  C_23
REMARK   13  A    between atoms: C_23  and  C_24
REMARK   14  A    between atoms: C_23  and  C_30
REMARK                            x       y       z     vdW  Elec       q    Type
REMARK                         _______ _______ _______ _____ _____    ______ ____
ROOT
ATOM      1  C   UNL     1      -0.207  11.147  19.219  0.00  0.00    +0.000 C 
ATOM      2  O   UNL     1       0.646  11.829  18.649  0.00  0.00    +0.000 OA
ATOM      3  N   UNL     1       0.149  10.031  19.957  0.00  0.00    +0.000 N 
ATOM      4  C   UNL     1      -0.660   9.312  20.914  0.00  0.00    +0.000 C 
ATOM      5  C   UNL     1       0.327   8.953  22.017  0.00  0.00    +0.000 C 
ATOM      6  C   UNL     1       1.711   8.906  21.355  0.00  0.00    +0.000 C 
ATOM      7  C   UNL     1       1.512   9.483  19.944  0.00  0.00    +0.000 C 
ENDROOT
BRANCH   7   8
ATOM      8  C   UNL     1       1.647   8.387  18.849  0.00  0.00    +0.000 C 
ATOM      9  O   UNL     1       1.179   8.518  17.721  0.00  0.00    +0.000 OA
ATOM     10  N   UNL     1       2.280   7.232  19.257  0.00  0.00    +0.000 N 
ATOM     11  H   UNL     1       2.611   7.147  20.202  0.00  0.00    +0.000 HD
BRANCH  10  12
ATOM     12  C   UNL     1       2.339   6.013  18.473  0.00  0.00    +0.000 C 
BRANCH  12  13
ATOM     13  C   UNL     1       3.726   5.967  17.815  0.00  0.00    +0.000 A 
ATOM     14  C   UNL     1       4.421   7.102  17.364  0.00  0.00    +0.000 A 
ATOM     15  C   UNL     1       5.557   6.989  16.556  0.00  0.00    +0.000 A 
ATOM     16  C   UNL     1       6.041   5.734  16.203  0.00  0.00    +0.000 A 
ATOM     17  C   UNL     1       5.407   4.593  16.682  0.00  0.00    +0.000 A 
ATOM     18  C   UNL     1       4.262   4.707  17.478  0.00  0.00    +0.000 A 
ENDBRANCH  12  13
BRANCH  12  19
ATOM     19  C   UNL     1       1.935   4.837  19.358  0.00  0.00    +0.000 A 
ATOM     20  C   UNL     1       2.355   4.802  20.696  0.00  0.00    +0.000 A 
ATOM     21  C   UNL     1       2.033   3.721  21.521  0.00  0.00    +0.000 A 
ATOM     22  C   UNL     1       1.274   2.665  21.023  0.00  0.00    +0.000 A 
ATOM     23  C   UNL     1       0.884   2.660  19.689  0.00  0.00    +0.000 A 
ATOM     24  C   UNL     1       1.239   3.722  18.858  0.00  0.00    +0.000 A 
ENDBRANCH  12  19
ENDBRANCH  10  12
ENDBRANCH   7   8
BRANCH   1  25
ATOM     25  C   UNL     1      -1.713  11.571  19.189  0.00  0.00    +0.000 C 
BRANCH  25  26
ATOM     26  N   UNL     1      -1.853  12.963  19.644  0.00  0.00    +0.000 N 
ATOM     27  C   UNL     1      -2.438  13.238  20.866  0.00  0.00    +0.000 C 
ATOM     28  O   UNL     1      -2.590  12.363  21.719  0.00  0.00    +0.000 OA
ATOM     29  H   UNL     1      -1.866  13.709  18.961  0.00  0.00    +0.000 HD
BRANCH  27  30
ATOM     30  C   UNL     1      -2.825  14.719  21.122  0.00  0.00    +0.000 C 
ATOM     31  C   UNL     1      -4.352  14.813  21.231  0.00  0.00    +0.000 C 
BRANCH  30  32
ATOM     32  N   UNL     1      -2.277  15.590  20.050  0.00  0.00    +0.000 NA
ATOM     33  C   UNL     1      -1.513  16.713  20.592  0.00  0.00    +0.000 C 
ATOM     34  H   UNL     1      -3.059  15.969  19.509  0.00  0.00    +0.000 HD
ENDBRANCH  30  32
ENDBRANCH  27  30
ENDBRANCH  25  26
BRANCH  25  35
ATOM     35  C   UNL     1      -2.353  11.399  17.767  0.00  0.00    +0.000 C 
ATOM     36  C   UNL     1      -3.886  11.552  17.771  0.00  0.00    +0.000 C 
BRANCH  35  38
ATOM     37  C   UNL     1      -2.823   9.711  15.876  0.00  0.00    +0.000 C 
ATOM     38  C   UNL     1      -1.987  10.054  17.099  0.00  0.00    +0.000 C 
ENDBRANCH  35  38
ENDBRANCH  25  35
ENDBRANCH   1  25
TORSDOF 10
ENDMDL
MODEL 5
REMARK VINA RESULT:      -7.7      0.763      1.237
REMARK  Name = 
REMARK  14 active torsions:
REMARK  status: ('A' for Active; 'I' for Inactive)
REMARK    1  A    between atoms: C_1  and  C_2
REMARK    2  A    between atoms: C_2  and  C_3
REMARK    3  A    between atoms: C_3  and  C_4
REMARK    4  A    between atoms: C_3  and  C_5
REMARK    5  A    between atoms: C_5  and  N_6
REMARK    6  A    between atoms: C_5  and  C_13
REMARK    7  A    between atoms: C_7  and  C_9
REMARK    8  A    between atoms: C_9  and  C_10
REMARK    9  A    between atoms: C_9  and  N_11
REMARK   10  A    between atoms: N_11  and  C_12
REMARK   11  A    between atoms: C_19  and  C_20
REMARK   12  A    between atoms: N_22  and  C_23
REMARK   13  A    between atoms: C_23  and  C_24
REMARK   14  A    between atoms: C_23  and  C_30
REMARK                            x       y       z     vdW  Elec       q    Type
REMARK                         _______ _______ _______ _____ _____    ______ ____
ROOT
ATOM      1  C   UNL     1      -0.522  11.022  19.373  0.00  0.00    +0.000 C 
ATOM      2  O   UNL     1       0.256  11.878  18.948  0.00  0.00    +0.000 OA
ATOM      3  N   UNL     1      -0.054   9.888  20.015  0.00  0.00    +0.000 N 
ATOM      4  C   UNL     1      -0.809   8.957  20.822  0.00  0.00    +0.000 C 
ATOM      5  C   UNL     1       0.147   8.613  21.957  0.00  0.00    +0.000 C 
ATOM      6  C   UNL     1       1.563   8.836  21.407  0.00  0.00    +0.000 C 
ATOM      7  C   UNL     1       1.373   9.540  20.053  0.00  0.00    +0.000 C 
ENDROOT
BRANCH   7   8
ATOM      8  C   UNL     1       1.736   8.608  18.862  0.00  0.00    +0.000 C 
ATOM      9  O   UNL     1       1.418   8.860  17.704  0.00  0.00    +0.000 OA
ATOM     10  N   UNL     1       2.393   7.447  19.212  0.00  0.00    +0.000 N 
ATOM     11  H   UNL     1       2.599   7.256  20.178  0.00  0.00    +0.000 HD
BRANCH  10  12
ATOM     12  C   UNL     1       2.650   6.347  18.301  0.00  0.00    +0.000 C 
BRANCH  12  13
ATOM     13  C   UNL     1       4.167   6.299  18.069  0.00  0.00    +0.000 A 
ATOM     14  C   UNL     1       4.798   6.735  16.891  0.00  0.00    +0.000 A 
ATOM     15  C   UNL     1       6.141   6.445  16.633  0.00  0.00    +0.000 A 
ATOM     16  C   UNL     1       6.894   5.733  17.561  0.00  0.00    +0.000 A 
ATOM     17  C   UNL     1       6.311   5.339  18.761  0.00  0.00    +0.000 A 
ATOM     18  C   UNL     1       4.963   5.617  19.012  0.00  0.00    +0.000 A 
ENDBRANCH  12  13
BRANCH  12  19
ATOM     19  C   UNL     1       1.975   5.090  18.842  0.00  0.00    +0.000 A 
ATOM     20  C   UNL     1       1.720   4.979  20.217  0.00  0.00    +0.000 A 
ATOM     21  C   UNL     1       1.138   3.825  20.748  0.00  0.00    +0.000 A 
ATOM     22  C   UNL     1       0.788   2.770  19.909  0.00  0.00    +0.000 A 
ATOM     23  C   UNL     1       1.070   2.843  18.549  0.00  0.00    +0.000 A 
ATOM     24  C   UNL     1       1.686   3.980  18.028  0.00  0.00    +0.000 A 
ENDBRANCH  12  19
ENDBRANCH  10  12
ENDBRANCH   7   8
BRANCH   1  25
ATOM     25  C   UNL     1      -2.069  11.233  19.267  0.00  0.00    +0.000 C 
BRANCH  25  26
ATOM     26  N   UNL     1      -2.397  12.655  19.468  0.00  0.00    +0.000 N 
ATOM     27  C   UNL     1      -2.753  13.114  20.722  0.00  0.00    +0.000 C 
ATOM     28  O   UNL     1      -2.535  12.452  21.736  0.00  0.00    +0.000 OA
ATOM     29  H   UNL     1      -2.710  13.207  18.680  0.00  0.00    +0.000 HD
BRANCH  27  30
ATOM     30  C   UNL     1      -3.378  14.533  20.778  0.00  0.00    +0.000 C 
ATOM     31  C   UNL     1      -3.573  14.923  22.249  0.00  0.00    +0.000 C 
BRANCH  30  32
ATOM     32  N   UNL     1      -4.648  14.571  20.008  0.00  0.00    +0.000 NA
ATOM     33  C   UNL     1      -5.735  13.887  20.708  0.00  0.00    +0.000 C 
ATOM     34  H   UNL     1      -4.499  14.097  19.113  0.00  0.00    +0.000 HD
ENDBRANCH  30  32
ENDBRANCH  27  30
ENDBRANCH  25  26
BRANCH  25  35
ATOM     35  C   UNL     1      -2.647  10.732  17.898  0.00  0.00    +0.000 C 
ATOM     36  C   UNL     1      -2.205  11.596  16.702  0.00  0.00    +0.000 C 
BRANCH  35  38
ATOM     37  C   UNL     1      -4.881  11.558  16.910  0.00  0.00    +0.000 C 
ATOM     38  C   UNL     1      -4.189  10.629  17.897  0.00  0.00    +0.000 C 
ENDBRANCH  35  38
ENDBRANCH  25  35
ENDBRANCH   1  25
TORSDOF 10
ENDMDL
MODEL 6
REMARK VINA RESULT:      -7.7      0.635      1.319
REMARK  Name = 
REMARK  14 active torsions:
REMARK  status: ('A' for Active; 'I' for Inactive)
REMARK    1  A    between atoms: C_1  and  C_2
REMARK    2  A    between atoms: C_2  and  C_3
REMARK    3  A    between atoms: C_3  and  C_4
REMARK    4  A    between atoms: C_3  and  C_5
REMARK    5  A    between atoms: C_5  and  N_6
REMARK    6  A    between atoms: C_5  and  C_13
REMARK    7  A    between atoms: C_7  and  C_9
REMARK    8  A    between atoms: C_9  and  C_10
REMARK    9  A    between atoms: C_9  and  N_11
REMARK   10  A    between atoms: N_11  and  C_12
REMARK   11  A    between atoms: C_19  and  C_20
REMARK   12  A    between atoms: N_22  and  C_23
REMARK   13  A    between atoms: C_23  and  C_24
REMARK   14  A    between atoms: C_23  and  C_30
REMARK                            x       y       z     vdW  Elec       q    Type
REMARK                         _______ _______ _______ _____ _____    ______ ____
ROOT
ATOM      1  C   UNL     1      -0.500  10.869  19.403  0.00  0.00    +0.000 C 
ATOM      2  O   UNL     1       0.237  11.725  18.912  0.00  0.00    +0.000 OA
ATOM      3  N   UNL     1       0.024   9.762  20.051  0.00  0.00    +0.000 N 
ATOM      4  C   UNL     1      -0.668   8.842  20.925  0.00  0.00    +0.000 C 
ATOM      5  C   UNL     1       0.354   8.549  22.015  0.00  0.00    +0.000 C 
ATOM      6  C   UNL     1       1.733   8.782  21.383  0.00  0.00    +0.000 C 
ATOM      7  C   UNL     1       1.457   9.442  20.022  0.00  0.00    +0.000 C 
ENDROOT
BRANCH   7   8
ATOM      8  C   UNL     1       1.775   8.482  18.840  0.00  0.00    +0.000 C 
ATOM      9  O   UNL     1       1.352   8.669  17.704  0.00  0.00    +0.000 OA
ATOM     10  N   UNL     1       2.520   7.371  19.178  0.00  0.00    +0.000 N 
ATOM     11  H   UNL     1       2.812   7.231  20.130  0.00  0.00    +0.000 HD
BRANCH  10  12
ATOM     12  C   UNL     1       2.763   6.249  18.290  0.00  0.00    +0.000 C 
BRANCH  12  13
ATOM     13  C   UNL     1       4.284   6.142  18.105  0.00  0.00    +0.000 A 
ATOM     14  C   UNL     1       5.129   5.404  18.950  0.00  0.00    +0.000 A 
ATOM     15  C   UNL     1       6.520   5.537  18.887  0.00  0.00    +0.000 A 
ATOM     16  C   UNL     1       7.099   6.394  17.957  0.00  0.00    +0.000 A 
ATOM     17  C   UNL     1       6.288   7.094  17.070  0.00  0.00    +0.000 A 
ATOM     18  C   UNL     1       4.897   6.971  17.143  0.00  0.00    +0.000 A 
ENDBRANCH  12  13
BRANCH  12  19
ATOM     19  C   UNL     1       2.025   5.026  18.826  0.00  0.00    +0.000 A 
ATOM     20  C   UNL     1       1.766   4.923  20.202  0.00  0.00    +0.000 A 
ATOM     21  C   UNL     1       1.126   3.798  20.728  0.00  0.00    +0.000 A 
ATOM     22  C   UNL     1       0.722   2.766  19.885  0.00  0.00    +0.000 A 
ATOM     23  C   UNL     1       1.006   2.829  18.526  0.00  0.00    +0.000 A 
ATOM     24  C   UNL     1       1.679   3.936  18.008  0.00  0.00    +0.000 A 
ENDBRANCH  12  19
ENDBRANCH  10  12
ENDBRANCH   7   8
BRANCH   1  25
ATOM     25  C   UNL     1      -2.054  11.048  19.375  0.00  0.00    +0.000 C 
BRANCH  25  26
ATOM     26  N   UNL     1      -2.400  12.464  19.581  0.00  0.00    +0.000 N 
ATOM     27  C   UNL     1      -2.741  12.919  20.841  0.00  0.00    +0.000 C 
ATOM     28  O   UNL     1      -2.495  12.262  21.851  0.00  0.00    +0.000 OA
ATOM     29  H   UNL     1      -2.735  13.011  18.798  0.00  0.00    +0.000 HD
BRANCH  27  30
ATOM     30  C   UNL     1      -3.387  14.329  20.907  0.00  0.00    +0.000 C 
ATOM     31  C   UNL     1      -4.837  14.226  20.417  0.00  0.00    +0.000 C 
BRANCH  30  32
ATOM     32  N   UNL     1      -2.588  15.302  20.118  0.00  0.00    +0.000 NA
ATOM     33  C   UNL     1      -1.802  16.189  20.975  0.00  0.00    +0.000 C 
ATOM     34  H   UNL     1      -3.231  15.878  19.568  0.00  0.00    +0.000 HD
ENDBRANCH  30  32
ENDBRANCH  27  30
ENDBRANCH  25  26
BRANCH  25  35
ATOM     35  C   UNL     1      -2.692  10.523  18.042  0.00  0.00    +0.000 C 
ATOM     36  C   UNL     1      -1.647  10.017  17.029  0.00  0.00    +0.000 C 
BRANCH  35  38
ATOM     37  C   UNL     1      -5.083  11.345  17.539  0.00  0.00    +0.000 C 
ATOM     38  C   UNL     1      -3.591  11.572  17.350  0.00  0.00    +0.000 C 
ENDBRANCH  35  38
ENDBRANCH  25  35
ENDBRANCH   1  25
TORSDOF 10
ENDMDL
MODEL 7
REMARK VINA RESULT:      -7.6      0.612      1.156
REMARK  Name = 
REMARK  14 active torsions:
REMARK  status: ('A' for Active; 'I' for Inactive)
REMARK    1  A    between atoms: C_1  and  C_2
REMARK    2  A    between atoms: C_2  and  C_3
REMARK    3  A    between atoms: C_3  and  C_4
REMARK    4  A    between atoms: C_3  and  C_5
REMARK    5  A    between atoms: C_5  and  N_6
REMARK    6  A    between atoms: C_5  and  C_13
REMARK    7  A    between atoms: C_7  and  C_9
REMARK    8  A    between atoms: C_9  and  C_10
REMARK    9  A    between atoms: C_9  and  N_11
REMARK   10  A    between atoms: N_11  and  C_12
REMARK   11  A    between atoms: C_19  and  C_20
REMARK   12  A    between atoms: N_22  and  C_23
REMARK   13  A    between atoms: C_23  and  C_24
REMARK   14  A    between atoms: C_23  and  C_30
REMARK                            x       y       z     vdW  Elec       q    Type
REMARK                         _______ _______ _______ _____ _____    ______ ____
ROOT
ATOM      1  C   UNL     1      -0.364  10.821  19.176  0.00  0.00    +0.000 C 
ATOM      2  O   UNL     1       0.406  11.661  18.709  0.00  0.00    +0.000 OA
ATOM      3  N   UNL     1       0.113   9.724  19.873  0.00  0.00    +0.000 N 
ATOM      4  C   UNL     1      -0.633   8.828  20.727  0.00  0.00    +0.000 C 
ATOM      5  C   UNL     1       0.325   8.550  21.877  0.00  0.00    +0.000 C 
ATOM      6  C   UNL     1       1.739   8.757  21.316  0.00  0.00    +0.000 C 
ATOM      7  C   UNL     1       1.543   9.391  19.929  0.00  0.00    +0.000 C 
ENDROOT
BRANCH   7   8
ATOM      8  C   UNL     1       1.916   8.404  18.786  0.00  0.00    +0.000 C 
ATOM      9  O   UNL     1       1.570   8.580  17.621  0.00  0.00    +0.000 OA
ATOM     10  N   UNL     1       2.614   7.285  19.189  0.00  0.00    +0.000 N 
ATOM     11  H   UNL     1       2.841   7.156  20.160  0.00  0.00    +0.000 HD
BRANCH  10  12
ATOM     12  C   UNL     1       2.889   6.143  18.337  0.00  0.00    +0.000 C 
BRANCH  12  13
ATOM     13  C   UNL     1       4.414   6.055  18.181  0.00  0.00    +0.000 A 
ATOM     14  C   UNL     1       5.256   5.349  19.058  0.00  0.00    +0.000 A 
ATOM     15  C   UNL     1       6.645   5.502  19.016  0.00  0.00    +0.000 A 
ATOM     16  C   UNL     1       7.228   6.346  18.076  0.00  0.00    +0.000 A 
ATOM     17  C   UNL     1       6.422   7.012  17.159  0.00  0.00    +0.000 A 
ATOM     18  C   UNL     1       5.032   6.870  17.211  0.00  0.00    +0.000 A 
ENDBRANCH  12  13
BRANCH  12  19
ATOM     19  C   UNL     1       2.160   4.924  18.894  0.00  0.00    +0.000 A 
ATOM     20  C   UNL     1       1.792   3.883  18.029  0.00  0.00    +0.000 A 
ATOM     21  C   UNL     1       1.091   2.771  18.502  0.00  0.00    +0.000 A 
ATOM     22  C   UNL     1       0.760   2.676  19.851  0.00  0.00    +0.000 A 
ATOM     23  C   UNL     1       1.078   3.716  20.718  0.00  0.00    +0.000 A 
ATOM     24  C   UNL     1       1.744   4.842  20.235  0.00  0.00    +0.000 A 
ENDBRANCH  12  19
ENDBRANCH  10  12
ENDBRANCH   7   8
BRANCH   1  25
ATOM     25  C   UNL     1      -1.913  11.013  19.059  0.00  0.00    +0.000 C 
BRANCH  25  26
ATOM     26  N   UNL     1      -2.260  12.430  19.256  0.00  0.00    +0.000 N 
ATOM     27  C   UNL     1      -2.572  12.900  20.518  0.00  0.00    +0.000 C 
ATOM     28  O   UNL     1      -2.299  12.256  21.530  0.00  0.00    +0.000 OA
ATOM     29  H   UNL     1      -2.616  12.965  18.474  0.00  0.00    +0.000 HD
BRANCH  27  30
ATOM     30  C   UNL     1      -3.222  14.307  20.582  0.00  0.00    +0.000 C 
ATOM     31  C   UNL     1      -2.224  15.277  21.227  0.00  0.00    +0.000 C 
BRANCH  30  32
ATOM     32  N   UNL     1      -4.513  14.249  21.316  0.00  0.00    +0.000 NA
ATOM     33  C   UNL     1      -5.528  13.495  20.583  0.00  0.00    +0.000 C 
ATOM     34  H   UNL     1      -4.856  15.205  21.444  0.00  0.00    +0.000 HD
ENDBRANCH  30  32
ENDBRANCH  27  30
ENDBRANCH  25  26
BRANCH  25  35
ATOM     35  C   UNL     1      -2.477  10.502  17.688  0.00  0.00    +0.000 C 
ATOM     36  C   UNL     1      -2.367  11.547  16.562  0.00  0.00    +0.000 C 
BRANCH  35  38
ATOM     37  C   UNL     1      -4.979  11.114  17.585  0.00  0.00    +0.000 C 
ATOM     38  C   UNL     1      -3.942  10.019  17.781  0.00  0.00    +0.000 C 
ENDBRANCH  35  38
ENDBRANCH  25  35
ENDBRANCH   1  25
TORSDOF 10
ENDMDL
MODEL 8
REMARK VINA RESULT:      -7.6      0.685      1.719
REMARK  Name = 
REMARK  14 active torsions:
REMARK  status: ('A' for Active; 'I' for Inactive)
REMARK    1  A    between atoms: C_1  and  C_2
REMARK    2  A    between atoms: C_2  and  C_3
REMARK    3  A    between atoms: C_3  and  C_4
REMARK    4  A    between atoms: C_3  and  C_5
REMARK    5  A    between atoms: C_5  and  N_6
REMARK    6  A    between atoms: C_5  and  C_13
REMARK    7  A    between atoms: C_7  and  C_9
REMARK    8  A    between atoms: C_9  and  C_10
REMARK    9  A    between atoms: C_9  and  N_11
REMARK   10  A    between atoms: N_11  and  C_12
REMARK   11  A    between atoms: C_19  and  C_20
REMARK   12  A    between atoms: N_22  and  C_23
REMARK   13  A    between atoms: C_23  and  C_24
REMARK   14  A    between atoms: C_23  and  C_30
REMARK                            x       y       z     vdW  Elec       q    Type
REMARK                         _______ _______ _______ _____ _____    ______ ____
ROOT
ATOM      1  C   UNL     1      -0.547  10.941  19.450  0.00  0.00    +0.000 C 
ATOM      2  O   UNL     1       0.178  11.805  18.957  0.00  0.00    +0.000 OA
ATOM      3  N   UNL     1      -0.009   9.834  20.085  0.00  0.00    +0.000 N 
ATOM      4  C   UNL     1      -0.684   8.903  20.960  0.00  0.00    +0.000 C 
ATOM      5  C   UNL     1       0.352   8.611  22.037  0.00  0.00    +0.000 C 
ATOM      6  C   UNL     1       1.722   8.858  21.392  0.00  0.00    +0.000 C 
ATOM      7  C   UNL     1       1.427   9.525  20.039  0.00  0.00    +0.000 C 
ENDROOT
BRANCH   7   8
ATOM      8  C   UNL     1       1.739   8.574  18.847  0.00  0.00    +0.000 C 
ATOM      9  O   UNL     1       1.348   8.795  17.705  0.00  0.00    +0.000 OA
ATOM     10  N   UNL     1       2.439   7.434  19.182  0.00  0.00    +0.000 N 
ATOM     11  H   UNL     1       2.704   7.267  20.137  0.00  0.00    +0.000 HD
BRANCH  10  12
ATOM     12  C   UNL     1       2.663   6.320  18.280  0.00  0.00    +0.000 C 
BRANCH  12  13
ATOM     13  C   UNL     1       4.166   6.294  17.961  0.00  0.00    +0.000 A 
ATOM     14  C   UNL     1       4.720   6.721  16.742  0.00  0.00    +0.000 A 
ATOM     15  C   UNL     1       6.051   6.450  16.412  0.00  0.00    +0.000 A 
ATOM     16  C   UNL     1       6.869   5.767  17.307  0.00  0.00    +0.000 A 
ATOM     17  C   UNL     1       6.363   5.384  18.544  0.00  0.00    +0.000 A 
ATOM     18  C   UNL     1       5.027   5.642  18.868  0.00  0.00    +0.000 A 
ENDBRANCH  12  13
BRANCH  12  19
ATOM     19  C   UNL     1       2.044   5.062  18.883  0.00  0.00    +0.000 A 
ATOM     20  C   UNL     1       1.689   3.995  18.044  0.00  0.00    +0.000 A 
ATOM     21  C   UNL     1       1.085   2.847  18.562  0.00  0.00    +0.000 A 
ATOM     22  C   UNL     1       0.842   2.741  19.928  0.00  0.00    +0.000 A 
ATOM     23  C   UNL     1       1.148   3.804  20.772  0.00  0.00    +0.000 A 
ATOM     24  C   UNL     1       1.715   4.964  20.247  0.00  0.00    +0.000 A 
ENDBRANCH  12  19
ENDBRANCH  10  12
ENDBRANCH   7   8
BRANCH   1  25
ATOM     25  C   UNL     1      -2.103  11.109  19.439  0.00  0.00    +0.000 C 
BRANCH  25  26
ATOM     26  N   UNL     1      -2.457  12.525  19.630  0.00  0.00    +0.000 N 
ATOM     27  C   UNL     1      -2.813  12.989  20.883  0.00  0.00    +0.000 C 
ATOM     28  O   UNL     1      -2.575  12.340  21.901  0.00  0.00    +0.000 OA
ATOM     29  H   UNL     1      -2.786  13.064  18.840  0.00  0.00    +0.000 HD
BRANCH  27  30
ATOM     30  C   UNL     1      -3.465  14.396  20.932  0.00  0.00    +0.000 C 
ATOM     31  C   UNL     1      -4.913  14.281  20.441  0.00  0.00    +0.000 C 
BRANCH  30  32
ATOM     32  N   UNL     1      -2.669  15.363  20.132  0.00  0.00    +0.000 NA
ATOM     33  C   UNL     1      -1.538  15.900  20.887  0.00  0.00    +0.000 C 
ATOM     34  H   UNL     1      -3.277  16.144  19.870  0.00  0.00    +0.000 HD
ENDBRANCH  30  32
ENDBRANCH  27  30
ENDBRANCH  25  26
BRANCH  25  35
ATOM     35  C   UNL     1      -2.754  10.561  18.122  0.00  0.00    +0.000 C 
ATOM     36  C   UNL     1      -1.718  10.063  17.097  0.00  0.00    +0.000 C 
BRANCH  35  38
ATOM     37  C   UNL     1      -4.179  11.167  16.061  0.00  0.00    +0.000 C 
ATOM     38  C   UNL     1      -3.682  11.588  17.436  0.00  0.00    +0.000 C 
ENDBRANCH  35  38
ENDBRANCH  25  35
ENDBRANCH   1  25
TORSDOF 10
ENDMDL
MODEL 9
REMARK VINA RESULT:      -7.6      1.506      3.195
REMARK  Name = 
REMARK  14 active torsions:
REMARK  status: ('A' for Active; 'I' for Inactive)
REMARK    1  A    between atoms: C_1  and  C_2
REMARK    2  A    between atoms: C_2  and  C_3
REMARK    3  A    between atoms: C_3  and  C_4
REMARK    4  A    between atoms: C_3  and  C_5
REMARK    5  A    between atoms: C_5  and  N_6
REMARK    6  A    between atoms: C_5  and  C_13
REMARK    7  A    between atoms: C_7  and  C_9
REMARK    8  A    between atoms: C_9  and  C_10
REMARK    9  A    between atoms: C_9  and  N_11
REMARK   10  A    between atoms: N_11  and  C_12
REMARK   11  A    between atoms: C_19  and  C_20
REMARK   12  A    between atoms: N_22  and  C_23
REMARK   13  A    between atoms: C_23  and  C_24
REMARK   14  A    between atoms: C_23  and  C_30
REMARK                            x       y       z     vdW  Elec       q    Type
REMARK                         _______ _______ _______ _____ _____    ______ ____
ROOT
ATOM      1  C   UNL     1       0.116  11.307  19.575  0.00  0.00    +0.000 C 
ATOM      2  O   UNL     1       1.108  11.997  19.338  0.00  0.00    +0.000 OA
ATOM      3  N   UNL     1       0.240  10.039  20.117  0.00  0.00    +0.000 N 
ATOM      4  C   UNL     1      -0.795   9.234  20.724  0.00  0.00    +0.000 C 
ATOM      5  C   UNL     1      -0.088   8.571  21.898  0.00  0.00    +0.000 C 
ATOM      6  C   UNL     1       1.400   8.513  21.525  0.00  0.00    +0.000 C 
ATOM      7  C   UNL     1       1.540   9.369  20.256  0.00  0.00    +0.000 C 
ENDROOT
BRANCH   7   8
ATOM      8  C   UNL     1       1.839   8.498  19.002  0.00  0.00    +0.000 C 
ATOM      9  O   UNL     1       1.448   8.800  17.879  0.00  0.00    +0.000 OA
ATOM     10  N   UNL     1       2.526   7.329  19.257  0.00  0.00    +0.000 N 
ATOM     11  H   UNL     1       2.791   7.096  20.199  0.00  0.00    +0.000 HD
BRANCH  10  12
ATOM     12  C   UNL     1       2.736   6.276  18.282  0.00  0.00    +0.000 C 
BRANCH  12  13
ATOM     13  C   UNL     1       4.245   6.214  18.005  0.00  0.00    +0.000 A 
ATOM     14  C   UNL     1       4.837   6.567  16.780  0.00  0.00    +0.000 A 
ATOM     15  C   UNL     1       6.172   6.260  16.500  0.00  0.00    +0.000 A 
ATOM     16  C   UNL     1       6.956   5.616  17.451  0.00  0.00    +0.000 A 
ATOM     17  C   UNL     1       6.413   5.306  18.693  0.00  0.00    +0.000 A 
ATOM     18  C   UNL     1       5.073   5.599  18.967  0.00  0.00    +0.000 A 
ENDBRANCH  12  13
BRANCH  12  19
ATOM     19  C   UNL     1       2.051   5.004  18.773  0.00  0.00    +0.000 A 
ATOM     20  C   UNL     1       1.675   4.897  20.121  0.00  0.00    +0.000 A 
ATOM     21  C   UNL     1       1.081   3.731  20.609  0.00  0.00    +0.000 A 
ATOM     22  C   UNL     1       0.840   2.659  19.754  0.00  0.00    +0.000 A 
ATOM     23  C   UNL     1       1.243   2.728  18.424  0.00  0.00    +0.000 A 
ATOM     24  C   UNL     1       1.870   3.879  17.949  0.00  0.00    +0.000 A 
ENDBRANCH  12  19
ENDBRANCH  10  12
ENDBRANCH   7   8
BRANCH   1  25
ATOM     25  C   UNL     1      -1.323  11.879  19.340  0.00  0.00    +0.000 C 
BRANCH  25  26
ATOM     26  N   UNL     1      -2.123  10.919  18.562  0.00  0.00    +0.000 N 
ATOM     27  C   UNL     1      -2.419  11.176  17.236  0.00  0.00    +0.000 C 
ATOM     28  O   UNL     1      -1.807  12.029  16.593  0.00  0.00    +0.000 OA
ATOM     29  H   UNL     1      -2.744  10.284  19.047  0.00  0.00    +0.000 HD
BRANCH  27  30
ATOM     30  C   UNL     1      -3.513  10.283  16.594  0.00  0.00    +0.000 C 
ATOM     31  C   UNL     1      -3.451  10.453  15.071  0.00  0.00    +0.000 C 
BRANCH  30  32
ATOM     32  N   UNL     1      -4.850  10.622  17.149  0.00  0.00    +0.000 NA
ATOM     33  C   UNL     1      -5.198  12.024  16.923  0.00  0.00    +0.000 C 
ATOM     34  H   UNL     1      -4.833  10.456  18.158  0.00  0.00    +0.000 HD
ENDBRANCH  30  32
ENDBRANCH  27  30
ENDBRANCH  25  26
BRANCH  25  35
ATOM     35  C   UNL     1      -2.052  12.230  20.683  0.00  0.00    +0.000 C 
ATOM     36  C   UNL     1      -3.222  13.214  20.496  0.00  0.00    +0.000 C 
BRANCH  35  38
ATOM     37  C   UNL     1      -1.225  12.125  23.122  0.00  0.00    +0.000 C 
ATOM     38  C   UNL     1      -1.096  12.789  21.760  0.00  0.00    +0.000 C 
ENDBRANCH  35  38
ENDBRANCH  25  35
ENDBRANCH   1  25
TORSDOF 10
ENDMDL
