MODEL 1
REMARK VINA RESULT:      -8.8      0.000      0.000
REMARK  Name = 
REMARK  5 active torsions:
REMARK  status: ('A' for Active; 'I' for Inactive)
REMARK    1  A    between atoms: C_2  and  C_3
REMARK    2  A    between atoms: C_3  and  C_4
REMARK    3  A    between atoms: C_4  and  C_5
REMARK    4  A    between atoms: N_14  and  S_15
REMARK    5  A    between atoms: S_15  and  C_18
REMARK                            x       y       z     vdW  Elec       q    Type
REMARK                         _______ _______ _______ _____ _____    ______ ____
ROOT
ATOM      1  O   UNL     1       1.888   8.342  18.966  0.00  0.00    +0.000 OA
ATOM      2  C   UNL     1       1.826   7.569  19.923  0.00  0.00    +0.000 C 
ATOM      3  N   UNL     1       2.022   6.207  19.777  0.00  0.00    +0.000 N 
ATOM      4  C   UNL     1       1.965   5.215  20.865  0.00  0.00    +0.000 C 
ATOM      5  C   UNL     1       1.085   4.008  20.489  0.00  0.00    +0.000 C 
ATOM      6  N   UNL     1       1.500   3.405  19.184  0.00  0.00    +0.000 NA
ATOM      7  C   UNL     1       1.404   4.478  18.118  0.00  0.00    +0.000 C 
ATOM      8  C   UNL     1       2.318   5.669  18.435  0.00  0.00    +0.000 C 
ENDROOT
BRANCH   6   9
ATOM      9  S   UNL     1       2.976   2.513  19.234  0.00  0.00    +0.000 S 
ATOM     10  O   UNL     1       3.381   2.388  20.626  0.00  0.00    +0.000 OA
ATOM     11  O   UNL     1       2.825   1.339  18.409  0.00  0.00    +0.000 OA
BRANCH   9  12
ATOM     12  C   UNL     1       4.171   3.565  18.428  0.00  0.00    +0.000 A 
ATOM     13  C   UNL     1       4.230   3.618  17.032  0.00  0.00    +0.000 A 
ATOM     14  C   UNL     1       5.213   4.394  16.410  0.00  0.00    +0.000 A 
ATOM     15  C   UNL     1       6.111   5.158  17.173  0.00  0.00    +0.000 A 
ATOM     16  C   UNL     1       6.057   5.089  18.580  0.00  0.00    +0.000 A 
ATOM     17  C   UNL     1       5.101   4.264  19.200  0.00  0.00    +0.000 A 
ATOM     18  C   UNL     1       6.942   5.954  19.444  0.00  0.00    +0.000 C 
ATOM     19  C   UNL     1       8.152   6.525  18.709  0.00  0.00    +0.000 C 
ATOM     20  C   UNL     1       7.741   7.087  17.355  0.00  0.00    +0.000 C 
ATOM     21  C   UNL     1       7.164   5.984  16.471  0.00  0.00    +0.000 C 
ENDBRANCH   9  12
ENDBRANCH   6   9
BRANCH   2  22
ATOM     22  C   UNL     1       1.559   8.094  21.322  0.00  0.00    +0.000 C 
BRANCH  22  23
ATOM     23  C   UNL     1       0.080   8.414  21.500  0.00  0.00    +0.000 C 
BRANCH  23  24
ATOM     24  C   UNL     1      -0.147   9.881  21.735  0.00  0.00    +0.000 A 
ATOM     25  C   UNL     1      -0.921  10.332  22.811  0.00  0.00    +0.000 A 
ATOM     26  C   UNL     1      -1.109  11.692  23.008  0.00  0.00    +0.000 A 
ATOM     27  C   UNL     1      -0.526  12.574  22.115  0.00  0.00    +0.000 A 
ATOM     28  N   UNL     1       0.225  12.181  21.068  0.00  0.00    +0.000 NA
ATOM     29  C   UNL     1       0.391  10.854  20.892  0.00  0.00    +0.000 A 
ENDBRANCH  23  24
ENDBRANCH  22  23
ENDBRANCH   2  22
TORSDOF 5
ENDMDL
MODEL 2
REMARK VINA RESULT:      -8.7      3.215     10.062
REMARK  Name = 
REMARK  5 active torsions:
REMARK  status: ('A' for Active; 'I' for Inactive)
REMARK    1  A    between atoms: C_2  and  C_3
REMARK    2  A    between atoms: C_3  and  C_4
REMARK    3  A    between atoms: C_4  and  C_5
REMARK    4  A    between atoms: N_14  and  S_15
REMARK    5  A    between atoms: S_15  and  C_18
REMARK                            x       y       z     vdW  Elec       q    Type
REMARK                         _______ _______ _______ _____ _____    ______ ____
ROOT
ATOM      1  O   UNL     1       2.434   6.449  20.137  0.00  0.00    +0.000 OA
ATOM      2  C   UNL     1       2.366   7.262  19.214  0.00  0.00    +0.000 C 
ATOM      3  N   UNL     1       1.752   8.493  19.367  0.00  0.00    +0.000 N 
ATOM      4  C   UNL     1       1.627   9.519  18.319  0.00  0.00    +0.000 C 
ATOM      5  C   UNL     1       0.186  10.054  18.215  0.00  0.00    +0.000 C 
ATOM      6  N   UNL     1      -0.327  10.522  19.541  0.00  0.00    +0.000 NA
ATOM      7  C   UNL     1      -0.267   9.356  20.508  0.00  0.00    +0.000 C 
ATOM      8  C   UNL     1       1.168   8.840  20.677  0.00  0.00    +0.000 C 
ENDROOT
BRANCH   6   9
ATOM      9  S   UNL     1       0.351  12.007  20.098  0.00  0.00    +0.000 S 
ATOM     10  O   UNL     1       1.333  11.697  21.126  0.00  0.00    +0.000 OA
ATOM     11  O   UNL     1       0.721  12.797  18.950  0.00  0.00    +0.000 OA
BRANCH   9  12
ATOM     12  C   UNL     1      -1.001  12.854  20.898  0.00  0.00    +0.000 A 
ATOM     13  C   UNL     1      -1.400  14.118  20.452  0.00  0.00    +0.000 A 
ATOM     14  C   UNL     1      -2.416  14.801  21.127  0.00  0.00    +0.000 A 
ATOM     15  C   UNL     1      -3.072  14.211  22.219  0.00  0.00    +0.000 A 
ATOM     16  C   UNL     1      -2.656  12.944  22.674  0.00  0.00    +0.000 A 
ATOM     17  C   UNL     1      -1.597  12.284  22.025  0.00  0.00    +0.000 A 
ATOM     18  C   UNL     1      -3.384  12.231  23.788  0.00  0.00    +0.000 C 
ATOM     19  C   UNL     1      -4.258  13.149  24.640  0.00  0.00    +0.000 C 
ATOM     20  C   UNL     1      -5.080  14.078  23.756  0.00  0.00    +0.000 C 
ATOM     21  C   UNL     1      -4.164  14.978  22.929  0.00  0.00    +0.000 C 
ENDBRANCH   9  12
ENDBRANCH   6   9
BRANCH   2  22
ATOM     22  C   UNL     1       2.988   6.949  17.866  0.00  0.00    +0.000 C 
BRANCH  22  23
ATOM     23  C   UNL     1       3.736   5.623  17.915  0.00  0.00    +0.000 C 
BRANCH  23  24
ATOM     24  C   UNL     1       5.191   5.816  18.238  0.00  0.00    +0.000 A 
ATOM     25  C   UNL     1       6.006   6.632  17.445  0.00  0.00    +0.000 A 
ATOM     26  C   UNL     1       7.346   6.798  17.769  0.00  0.00    +0.000 A 
ATOM     27  C   UNL     1       7.842   6.135  18.878  0.00  0.00    +0.000 A 
ATOM     28  N   UNL     1       7.090   5.342  19.666  0.00  0.00    +0.000 NA
ATOM     29  C   UNL     1       5.793   5.190  19.329  0.00  0.00    +0.000 A 
ENDBRANCH  23  24
ENDBRANCH  22  23
ENDBRANCH   2  22
TORSDOF 5
ENDMDL
MODEL 3
REMARK VINA RESULT:      -8.7      3.357     10.161
REMARK  Name = 
REMARK  5 active torsions:
REMARK  status: ('A' for Active; 'I' for Inactive)
REMARK    1  A    between atoms: C_2  and  C_3
REMARK    2  A    between atoms: C_3  and  C_4
REMARK    3  A    between atoms: C_4  and  C_5
REMARK    4  A    between atoms: N_14  and  S_15
REMARK    5  A    between atoms: S_15  and  C_18
REMARK                            x       y       z     vdW  Elec       q    Type
REMARK                         _______ _______ _______ _____ _____    ______ ____
ROOT
ATOM      1  O   UNL     1       2.382   6.050  20.065  0.00  0.00    +0.000 OA
ATOM      2  C   UNL     1       2.274   7.135  19.492  0.00  0.00    +0.000 C 
ATOM      3  N   UNL     1       1.588   8.196  20.057  0.00  0.00    +0.000 N 
ATOM      4  C   UNL     1       1.412   9.522  19.442  0.00  0.00    +0.000 C 
ATOM      5  C   UNL     1      -0.057   9.984  19.495  0.00  0.00    +0.000 C 
ATOM      6  N   UNL     1      -0.608   9.918  20.885  0.00  0.00    +0.000 NA
ATOM      7  C   UNL     1      -0.488   8.487  21.372  0.00  0.00    +0.000 C 
ATOM      8  C   UNL     1       0.973   8.020  21.387  0.00  0.00    +0.000 C 
ENDROOT
BRANCH   6   9
ATOM      9  S   UNL     1      -0.023  11.137  21.956  0.00  0.00    +0.000 S 
ATOM     10  O   UNL     1       0.165  10.533  23.267  0.00  0.00    +0.000 OA
ATOM     11  O   UNL     1       1.064  11.828  21.307  0.00  0.00    +0.000 OA
BRANCH   9  12
ATOM     12  C   UNL     1      -1.368  12.301  22.100  0.00  0.00    +0.000 A 
ATOM     13  C   UNL     1      -2.233  12.511  21.021  0.00  0.00    +0.000 A 
ATOM     14  C   UNL     1      -3.243  13.473  21.120  0.00  0.00    +0.000 A 
ATOM     15  C   UNL     1      -3.427  14.197  22.309  0.00  0.00    +0.000 A 
ATOM     16  C   UNL     1      -2.543  13.993  23.387  0.00  0.00    +0.000 A 
ATOM     17  C   UNL     1      -1.496  13.063  23.263  0.00  0.00    +0.000 A 
ATOM     18  C   UNL     1      -2.750  14.683  24.715  0.00  0.00    +0.000 C 
ATOM     19  C   UNL     1      -3.664  15.904  24.638  0.00  0.00    +0.000 C 
ATOM     20  C   UNL     1      -4.908  15.591  23.817  0.00  0.00    +0.000 C 
ATOM     21  C   UNL     1      -4.526  15.232  22.383  0.00  0.00    +0.000 C 
ENDBRANCH   9  12
ENDBRANCH   6   9
BRANCH   2  22
ATOM     22  C   UNL     1       2.925   7.360  18.140  0.00  0.00    +0.000 C 
BRANCH  22  23
ATOM     23  C   UNL     1       3.615   6.089  17.660  0.00  0.00    +0.000 C 
BRANCH  23  24
ATOM     24  C   UNL     1       5.078   6.087  18.004  0.00  0.00    +0.000 A 
ATOM     25  C   UNL     1       5.996   6.848  17.271  0.00  0.00    +0.000 A 
ATOM     26  C   UNL     1       7.341   6.833  17.613  0.00  0.00    +0.000 A 
ATOM     27  C   UNL     1       7.739   6.045  18.680  0.00  0.00    +0.000 A 
ATOM     28  N   UNL     1       6.888   5.300  19.410  0.00  0.00    +0.000 NA
ATOM     29  C   UNL     1       5.586   5.325  19.056  0.00  0.00    +0.000 A 
ENDBRANCH  23  24
ENDBRANCH  22  23
ENDBRANCH   2  22
TORSDOF 5
ENDMDL
MODEL 4
REMARK VINA RESULT:      -8.7      3.256     10.056
REMARK  Name = 
REMARK  5 active torsions:
REMARK  status: ('A' for Active; 'I' for Inactive)
REMARK    1  A    between atoms: C_2  and  C_3
REMARK    2  A    between atoms: C_3  and  C_4
REMARK    3  A    between atoms: C_4  and  C_5
REMARK    4  A    between atoms: N_14  and  S_15
REMARK    5  A    between atoms: S_15  and  C_18
REMARK                            x       y       z     vdW  Elec       q    Type
REMARK                         _______ _______ _______ _____ _____    ______ ____
ROOT
ATOM      1  O   UNL     1       2.411   5.886  20.010  0.00  0.00    +0.000 OA
ATOM      2  C   UNL     1       2.338   6.982  19.453  0.00  0.00    +0.000 C 
ATOM      3  N   UNL     1       1.666   8.049  20.022  0.00  0.00    +0.000 N 
ATOM      4  C   UNL     1       1.529   9.388  19.426  0.00  0.00    +0.000 C 
ATOM      5  C   UNL     1       0.071   9.881  19.459  0.00  0.00    +0.000 C 
ATOM      6  N   UNL     1      -0.508   9.806  20.837  0.00  0.00    +0.000 NA
ATOM      7  C   UNL     1      -0.428   8.365  21.303  0.00  0.00    +0.000 C 
ATOM      8  C   UNL     1       1.022   7.865  21.338  0.00  0.00    +0.000 C 
ENDROOT
BRANCH   6   9
ATOM      9  S   UNL     1       0.084  10.994  21.939  0.00  0.00    +0.000 S 
ATOM     10  O   UNL     1       0.418  10.326  23.187  0.00  0.00    +0.000 OA
ATOM     11  O   UNL     1       1.067  11.798  21.254  0.00  0.00    +0.000 OA
BRANCH   9  12
ATOM     12  C   UNL     1      -1.316  12.051  22.264  0.00  0.00    +0.000 A 
ATOM     13  C   UNL     1      -2.231  11.714  23.267  0.00  0.00    +0.000 A 
ATOM     14  C   UNL     1      -3.361  12.514  23.470  0.00  0.00    +0.000 A 
ATOM     15  C   UNL     1      -3.561  13.677  22.709  0.00  0.00    +0.000 A 
ATOM     16  C   UNL     1      -2.644  14.003  21.690  0.00  0.00    +0.000 A 
ATOM     17  C   UNL     1      -1.539  13.166  21.454  0.00  0.00    +0.000 A 
ATOM     18  C   UNL     1      -2.768  15.285  20.902  0.00  0.00    +0.000 C 
ATOM     19  C   UNL     1      -4.153  15.924  20.979  0.00  0.00    +0.000 C 
ATOM     20  C   UNL     1      -4.657  15.941  22.416  0.00  0.00    +0.000 C 
ATOM     21  C   UNL     1      -4.794  14.517  22.951  0.00  0.00    +0.000 C 
ENDBRANCH   9  12
ENDBRANCH   6   9
BRANCH   2  22
ATOM     22  C   UNL     1       3.019   7.213  18.116  0.00  0.00    +0.000 C 
BRANCH  22  23
ATOM     23  C   UNL     1       3.774   5.965  17.677  0.00  0.00    +0.000 C 
BRANCH  23  24
ATOM     24  C   UNL     1       5.217   6.012  18.096  0.00  0.00    +0.000 A 
ATOM     25  C   UNL     1       6.159   6.749  17.369  0.00  0.00    +0.000 A 
ATOM     26  C   UNL     1       7.484   6.780  17.781  0.00  0.00    +0.000 A 
ATOM     27  C   UNL     1       7.839   6.062  18.909  0.00  0.00    +0.000 A 
ATOM     28  N   UNL     1       6.963   5.341  19.636  0.00  0.00    +0.000 NA
ATOM     29  C   UNL     1       5.682   5.321  19.214  0.00  0.00    +0.000 A 
ENDBRANCH  23  24
ENDBRANCH  22  23
ENDBRANCH   2  22
TORSDOF 5
ENDMDL
MODEL 5
REMARK VINA RESULT:      -8.6      0.867      1.953
REMARK  Name = 
REMARK  5 active torsions:
REMARK  status: ('A' for Active; 'I' for Inactive)
REMARK    1  A    between atoms: C_2  and  C_3
REMARK    2  A    between atoms: C_3  and  C_4
REMARK    3  A    between atoms: C_4  and  C_5
REMARK    4  A    between atoms: N_14  and  S_15
REMARK    5  A    between atoms: S_15  and  C_18
REMARK                            x       y       z     vdW  Elec       q    Type
REMARK                         _______ _______ _______ _____ _____    ______ ____
ROOT
ATOM      1  O   UNL     1       2.112   8.408  19.011  0.00  0.00    +0.000 OA
ATOM      2  C   UNL     1       1.911   7.641  19.954  0.00  0.00    +0.000 C 
ATOM      3  N   UNL     1       2.079   6.273  19.832  0.00  0.00    +0.000 N 
ATOM      4  C   UNL     1       1.861   5.288  20.905  0.00  0.00    +0.000 C 
ATOM      5  C   UNL     1       0.993   4.108  20.428  0.00  0.00    +0.000 C 
ATOM      6  N   UNL     1       1.541   3.487  19.182  0.00  0.00    +0.000 NA
ATOM      7  C   UNL     1       1.608   4.559  18.111  0.00  0.00    +0.000 C 
ATOM      8  C   UNL     1       2.515   5.721  18.535  0.00  0.00    +0.000 C 
ENDROOT
BRANCH   6   9
ATOM      9  S   UNL     1       2.970   2.548  19.407  0.00  0.00    +0.000 S 
ATOM     10  O   UNL     1       3.320   2.590  20.819  0.00  0.00    +0.000 OA
ATOM     11  O   UNL     1       2.794   1.284  18.736  0.00  0.00    +0.000 OA
BRANCH   9  12
ATOM     12  C   UNL     1       4.241   3.434  18.522  0.00  0.00    +0.000 A 
ATOM     13  C   UNL     1       5.127   4.267  19.212  0.00  0.00    +0.000 A 
ATOM     14  C   UNL     1       6.077   5.008  18.502  0.00  0.00    +0.000 A 
ATOM     15  C   UNL     1       6.181   4.888  17.107  0.00  0.00    +0.000 A 
ATOM     16  C   UNL     1       5.276   4.060  16.414  0.00  0.00    +0.000 A 
ATOM     17  C   UNL     1       4.288   3.358  17.128  0.00  0.00    +0.000 A 
ATOM     18  C   UNL     1       5.399   3.831  14.926  0.00  0.00    +0.000 C 
ATOM     19  C   UNL     1       6.245   4.882  14.210  0.00  0.00    +0.000 C 
ATOM     20  C   UNL     1       7.531   5.152  14.981  0.00  0.00    +0.000 C 
ATOM     21  C   UNL     1       7.216   5.706  16.369  0.00  0.00    +0.000 C 
ENDBRANCH   9  12
ENDBRANCH   6   9
BRANCH   2  22
ATOM     22  C   UNL     1       1.496   8.180  21.310  0.00  0.00    +0.000 C 
BRANCH  22  23
ATOM     23  C   UNL     1       0.002   8.476  21.335  0.00  0.00    +0.000 C 
BRANCH  23  24
ATOM     24  C   UNL     1      -0.276   9.909  21.690  0.00  0.00    +0.000 A 
ATOM     25  C   UNL     1      -0.013  10.944  20.785  0.00  0.00    +0.000 A 
ATOM     26  C   UNL     1      -0.285  12.259  21.135  0.00  0.00    +0.000 A 
ATOM     27  C   UNL     1      -0.805  12.510  22.393  0.00  0.00    +0.000 A 
ATOM     28  N   UNL     1      -1.071  11.544  23.293  0.00  0.00    +0.000 NA
ATOM     29  C   UNL     1      -0.795  10.273  22.932  0.00  0.00    +0.000 A 
ENDBRANCH  23  24
ENDBRANCH  22  23
ENDBRANCH   2  22
TORSDOF 5
ENDMDL
MODEL 6
REMARK VINA RESULT:      -8.5      3.206     10.239
REMARK  Name = 
REMARK  5 active torsions:
REMARK  status: ('A' for Active; 'I' for Inactive)
REMARK    1  A    between atoms: C_2  and  C_3
REMARK    2  A    between atoms: C_3  and  C_4
REMARK    3  A    between atoms: C_4  and  C_5
REMARK    4  A    between atoms: N_14  and  S_15
REMARK    5  A    between atoms: S_15  and  C_18
REMARK                            x       y       z     vdW  Elec       q    Type
REMARK                         _______ _______ _______ _____ _____    ______ ____
ROOT
ATOM      1  O   UNL     1       2.337   6.421  20.417  0.00  0.00    +0.000 OA
ATOM      2  C   UNL     1       2.221   7.231  19.496  0.00  0.00    +0.000 C 
ATOM      3  N   UNL     1       1.619   8.463  19.677  0.00  0.00    +0.000 N 
ATOM      4  C   UNL     1       1.440   9.486  18.633  0.00  0.00    +0.000 C 
ATOM      5  C   UNL     1      -0.003  10.024  18.603  0.00  0.00    +0.000 C 
ATOM      6  N   UNL     1      -0.445  10.498  19.952  0.00  0.00    +0.000 NA
ATOM      7  C   UNL     1      -0.336   9.334  20.919  0.00  0.00    +0.000 C 
ATOM      8  C   UNL     1       1.105   8.816  21.014  0.00  0.00    +0.000 C 
ENDROOT
BRANCH   6   9
ATOM      9  S   UNL     1       0.265  11.983  20.468  0.00  0.00    +0.000 S 
ATOM     10  O   UNL     1       1.432  11.668  21.278  0.00  0.00    +0.000 OA
ATOM     11  O   UNL     1       0.383  12.852  19.323  0.00  0.00    +0.000 OA
BRANCH   9  12
ATOM     12  C   UNL     1      -0.949  12.715  21.552  0.00  0.00    +0.000 A 
ATOM     13  C   UNL     1      -0.539  13.490  22.642  0.00  0.00    +0.000 A 
ATOM     14  C   UNL     1      -1.495  14.005  23.524  0.00  0.00    +0.000 A 
ATOM     15  C   UNL     1      -2.864  13.790  23.300  0.00  0.00    +0.000 A 
ATOM     16  C   UNL     1      -3.271  12.995  22.209  0.00  0.00    +0.000 A 
ATOM     17  C   UNL     1      -2.303  12.436  21.357  0.00  0.00    +0.000 A 
ATOM     18  C   UNL     1      -4.732  12.805  21.876  0.00  0.00    +0.000 C 
ATOM     19  C   UNL     1      -5.675  13.139  23.030  0.00  0.00    +0.000 C 
ATOM     20  C   UNL     1      -5.277  14.455  23.684  0.00  0.00    +0.000 C 
ATOM     21  C   UNL     1      -3.872  14.356  24.274  0.00  0.00    +0.000 C 
ENDBRANCH   9  12
ENDBRANCH   6   9
BRANCH   2  22
ATOM     22  C   UNL     1       2.771   6.912  18.118  0.00  0.00    +0.000 C 
BRANCH  22  23
ATOM     23  C   UNL     1       4.031   6.062  18.227  0.00  0.00    +0.000 C 
BRANCH  23  24
ATOM     24  C   UNL     1       3.707   4.596  18.293  0.00  0.00    +0.000 A 
ATOM     25  C   UNL     1       2.718   4.035  17.477  0.00  0.00    +0.000 A 
ATOM     26  C   UNL     1       2.443   2.677  17.554  0.00  0.00    +0.000 A 
ATOM     27  C   UNL     1       3.161   1.910  18.455  0.00  0.00    +0.000 A 
ATOM     28  N   UNL     1       4.121   2.411  19.256  0.00  0.00    +0.000 NA
ATOM     29  C   UNL     1       4.367   3.735  19.169  0.00  0.00    +0.000 A 
ENDBRANCH  23  24
ENDBRANCH  22  23
ENDBRANCH   2  22
TORSDOF 5
ENDMDL
MODEL 7
REMARK VINA RESULT:      -8.5      3.323     10.301
REMARK  Name = 
REMARK  5 active torsions:
REMARK  status: ('A' for Active; 'I' for Inactive)
REMARK    1  A    between atoms: C_2  and  C_3
REMARK    2  A    between atoms: C_3  and  C_4
REMARK    3  A    between atoms: C_4  and  C_5
REMARK    4  A    between atoms: N_14  and  S_15
REMARK    5  A    between atoms: S_15  and  C_18
REMARK                            x       y       z     vdW  Elec       q    Type
REMARK                         _______ _______ _______ _____ _____    ______ ____
ROOT
ATOM      1  O   UNL     1       2.746   6.182  20.110  0.00  0.00    +0.000 OA
ATOM      2  C   UNL     1       2.633   7.078  19.272  0.00  0.00    +0.000 C 
ATOM      3  N   UNL     1       1.910   8.230  19.526  0.00  0.00    +0.000 N 
ATOM      4  C   UNL     1       1.726   9.346  18.583  0.00  0.00    +0.000 C 
ATOM      5  C   UNL     1       0.247   9.766  18.481  0.00  0.00    +0.000 C 
ATOM      6  N   UNL     1      -0.343  10.049  19.826  0.00  0.00    +0.000 NA
ATOM      7  C   UNL     1      -0.209   8.797  20.671  0.00  0.00    +0.000 C 
ATOM      8  C   UNL     1       1.260   8.389  20.842  0.00  0.00    +0.000 C 
ENDROOT
BRANCH   6   9
ATOM      9  S   UNL     1       0.186  11.519  20.557  0.00  0.00    +0.000 S 
ATOM     10  O   UNL     1       1.239  11.196  21.509  0.00  0.00    +0.000 OA
ATOM     11  O   UNL     1       0.417  12.487  19.513  0.00  0.00    +0.000 OA
BRANCH   9  12
ATOM     12  C   UNL     1      -1.218  12.092  21.497  0.00  0.00    +0.000 A 
ATOM     13  C   UNL     1      -1.463  11.579  22.775  0.00  0.00    +0.000 A 
ATOM     14  C   UNL     1      -2.603  11.985  23.477  0.00  0.00    +0.000 A 
ATOM     15  C   UNL     1      -3.478  12.938  22.931  0.00  0.00    +0.000 A 
ATOM     16  C   UNL     1      -3.234  13.440  21.637  0.00  0.00    +0.000 A 
ATOM     17  C   UNL     1      -2.117  12.987  20.914  0.00  0.00    +0.000 A 
ATOM     18  C   UNL     1      -4.096  14.527  21.040  0.00  0.00    +0.000 C 
ATOM     19  C   UNL     1      -5.450  14.687  21.728  0.00  0.00    +0.000 C 
ATOM     20  C   UNL     1      -5.286  14.683  23.243  0.00  0.00    +0.000 C 
ATOM     21  C   UNL     1      -4.702  13.353  23.714  0.00  0.00    +0.000 C 
ENDBRANCH   9  12
ENDBRANCH   6   9
BRANCH   2  22
ATOM     22  C   UNL     1       3.319   6.962  17.923  0.00  0.00    +0.000 C 
BRANCH  22  23
ATOM     23  C   UNL     1       3.522   5.498  17.550  0.00  0.00    +0.000 C 
BRANCH  23  24
ATOM     24  C   UNL     1       4.797   5.293  16.781  0.00  0.00    +0.000 A 
ATOM     25  C   UNL     1       4.968   4.182  15.947  0.00  0.00    +0.000 A 
ATOM     26  C   UNL     1       6.153   4.019  15.243  0.00  0.00    +0.000 A 
ATOM     27  C   UNL     1       7.146   4.971  15.397  0.00  0.00    +0.000 A 
ATOM     28  N   UNL     1       7.020   6.053  16.188  0.00  0.00    +0.000 NA
ATOM     29  C   UNL     1       5.862   6.188  16.868  0.00  0.00    +0.000 A 
ENDBRANCH  23  24
ENDBRANCH  22  23
ENDBRANCH   2  22
TORSDOF 5
ENDMDL
MODEL 8
REMARK VINA RESULT:      -8.3      1.029      2.059
REMARK  Name = 
REMARK  5 active torsions:
REMARK  status: ('A' for Active; 'I' for Inactive)
REMARK    1  A    between atoms: C_2  and  C_3
REMARK    2  A    between atoms: C_3  and  C_4
REMARK    3  A    between atoms: C_4  and  C_5
REMARK    4  A    between atoms: N_14  and  S_15
REMARK    5  A    between atoms: S_15  and  C_18
REMARK                            x       y       z     vdW  Elec       q    Type
REMARK                         _______ _______ _______ _____ _____    ______ ____
ROOT
ATOM      1  O   UNL     1       2.091   8.408  18.918  0.00  0.00    +0.000 OA
ATOM      2  C   UNL     1       1.888   7.657  19.873  0.00  0.00    +0.000 C 
ATOM      3  N   UNL     1       2.061   6.287  19.776  0.00  0.00    +0.000 N 
ATOM      4  C   UNL     1       1.840   5.320  20.865  0.00  0.00    +0.000 C 
ATOM      5  C   UNL     1       0.979   4.130  20.403  0.00  0.00    +0.000 C 
ATOM      6  N   UNL     1       1.536   3.488  19.171  0.00  0.00    +0.000 NA
ATOM      7  C   UNL     1       1.604   4.542  18.082  0.00  0.00    +0.000 C 
ATOM      8  C   UNL     1       2.506   5.714  18.491  0.00  0.00    +0.000 C 
ENDROOT
BRANCH   6   9
ATOM      9  S   UNL     1       2.967   2.559  19.420  0.00  0.00    +0.000 S 
ATOM     10  O   UNL     1       3.302   2.616  20.835  0.00  0.00    +0.000 OA
ATOM     11  O   UNL     1       2.803   1.287  18.759  0.00  0.00    +0.000 OA
BRANCH   9  12
ATOM     12  C   UNL     1       4.243   3.442  18.539  0.00  0.00    +0.000 A 
ATOM     13  C   UNL     1       5.123   4.279  19.232  0.00  0.00    +0.000 A 
ATOM     14  C   UNL     1       6.077   5.019  18.525  0.00  0.00    +0.000 A 
ATOM     15  C   UNL     1       6.191   4.892  17.131  0.00  0.00    +0.000 A 
ATOM     16  C   UNL     1       5.292   4.059  16.436  0.00  0.00    +0.000 A 
ATOM     17  C   UNL     1       4.299   3.360  17.146  0.00  0.00    +0.000 A 
ATOM     18  C   UNL     1       5.426   3.824  14.950  0.00  0.00    +0.000 C 
ATOM     19  C   UNL     1       6.275   4.872  14.235  0.00  0.00    +0.000 C 
ATOM     20  C   UNL     1       7.555   5.148  15.014  0.00  0.00    +0.000 C 
ATOM     21  C   UNL     1       7.230   5.708  16.397  0.00  0.00    +0.000 C 
ENDBRANCH   9  12
ENDBRANCH   6   9
BRANCH   2  22
ATOM     22  C   UNL     1       1.464   8.218  21.218  0.00  0.00    +0.000 C 
BRANCH  22  23
ATOM     23  C   UNL     1       0.007   8.662  21.178  0.00  0.00    +0.000 C 
BRANCH  23  24
ATOM     24  C   UNL     1      -0.138  10.041  20.598  0.00  0.00    +0.000 A 
ATOM     25  C   UNL     1      -0.918  10.269  19.458  0.00  0.00    +0.000 A 
ATOM     26  C   UNL     1      -1.040  11.553  18.947  0.00  0.00    +0.000 A 
ATOM     27  C   UNL     1      -0.369  12.582  19.584  0.00  0.00    +0.000 A 
ATOM     28  N   UNL     1       0.391  12.404  20.682  0.00  0.00    +0.000 NA
ATOM     29  C   UNL     1       0.500  11.147  21.159  0.00  0.00    +0.000 A 
ENDBRANCH  23  24
ENDBRANCH  22  23
ENDBRANCH   2  22
TORSDOF 5
ENDMDL
MODEL 9
REMARK VINA RESULT:      -8.3      3.142     10.126
REMARK  Name = 
REMARK  5 active torsions:
REMARK  status: ('A' for Active; 'I' for Inactive)
REMARK    1  A    between atoms: C_2  and  C_3
REMARK    2  A    between atoms: C_3  and  C_4
REMARK    3  A    between atoms: C_4  and  C_5
REMARK    4  A    between atoms: N_14  and  S_15
REMARK    5  A    between atoms: S_15  and  C_18
REMARK                            x       y       z     vdW  Elec       q    Type
REMARK                         _______ _______ _______ _____ _____    ______ ____
ROOT
ATOM      1  O   UNL     1       2.408   6.382  20.270  0.00  0.00    +0.000 OA
ATOM      2  C   UNL     1       2.330   7.173  19.329  0.00  0.00    +0.000 C 
ATOM      3  N   UNL     1       1.740   8.417  19.466  0.00  0.00    +0.000 N 
ATOM      4  C   UNL     1       1.605   9.420  18.396  0.00  0.00    +0.000 C 
ATOM      5  C   UNL     1       0.171   9.975  18.313  0.00  0.00    +0.000 C 
ATOM      6  N   UNL     1      -0.304  10.483  19.638  0.00  0.00    +0.000 NA
ATOM      7  C   UNL     1      -0.239   9.339  20.632  0.00  0.00    +0.000 C 
ATOM      8  C   UNL     1       1.192   8.805  20.780  0.00  0.00    +0.000 C 
ENDROOT
BRANCH   6   9
ATOM      9  S   UNL     1       0.410  11.970  20.144  0.00  0.00    +0.000 S 
ATOM     10  O   UNL     1       1.384  11.672  21.183  0.00  0.00    +0.000 OA
ATOM     11  O   UNL     1       0.799  12.709  18.968  0.00  0.00    +0.000 OA
BRANCH   9  12
ATOM     12  C   UNL     1      -0.921  12.876  20.912  0.00  0.00    +0.000 A 
ATOM     13  C   UNL     1      -1.231  14.170  20.479  0.00  0.00    +0.000 A 
ATOM     14  C   UNL     1      -2.232  14.897  21.131  0.00  0.00    +0.000 A 
ATOM     15  C   UNL     1      -2.960  14.324  22.186  0.00  0.00    +0.000 A 
ATOM     16  C   UNL     1      -2.634  13.027  22.629  0.00  0.00    +0.000 A 
ATOM     17  C   UNL     1      -1.590  12.320  22.005  0.00  0.00    +0.000 A 
ATOM     18  C   UNL     1      -3.441  12.334  23.701  0.00  0.00    +0.000 C 
ATOM     19  C   UNL     1      -4.293  13.284  24.540  0.00  0.00    +0.000 C 
ATOM     20  C   UNL     1      -5.028  14.276  23.647  0.00  0.00    +0.000 C 
ATOM     21  C   UNL     1      -4.033  15.137  22.873  0.00  0.00    +0.000 C 
ENDBRANCH   9  12
ENDBRANCH   6   9
BRANCH   2  22
ATOM     22  C   UNL     1       2.916   6.819  17.974  0.00  0.00    +0.000 C 
BRANCH  22  23
ATOM     23  C   UNL     1       4.153   5.944  18.137  0.00  0.00    +0.000 C 
BRANCH  23  24
ATOM     24  C   UNL     1       3.793   4.489  18.253  0.00  0.00    +0.000 A 
ATOM     25  C   UNL     1       2.791   3.925  17.455  0.00  0.00    +0.000 A 
ATOM     26  C   UNL     1       2.484   2.577  17.577  0.00  0.00    +0.000 A 
ATOM     27  C   UNL     1       3.181   1.825  18.506  0.00  0.00    +0.000 A 
ATOM     28  N   UNL     1       4.151   2.330  19.292  0.00  0.00    +0.000 NA
ATOM     29  C   UNL     1       4.430   3.643  19.160  0.00  0.00    +0.000 A 
ENDBRANCH  23  24
ENDBRANCH  22  23
ENDBRANCH   2  22
TORSDOF 5
ENDMDL
