MODEL 1
REMARK VINA RESULT:      -7.5      0.000      0.000
REMARK  Name = 
REMARK  1 active torsions:
REMARK  status: ('A' for Active; 'I' for Inactive)
REMARK    1  A    between atoms: C_3  and  N_4
REMARK                            x       y       z     vdW  Elec       q    Type
REMARK                         _______ _______ _______ _____ _____    ______ ____
ROOT
ATOM      1  O   UNL     1       5.673   3.500  19.273  0.00  0.00    +0.000 OA
ATOM      2  C   UNL     1       4.631   4.075  18.984  0.00  0.00    +0.000 A 
ATOM      3  C   UNL     1       4.554   5.123  17.920  0.00  0.00    +0.000 A 
ATOM      4  C   UNL     1       3.318   5.608  17.690  0.00  0.00    +0.000 A 
ATOM      5  O   UNL     1       2.142   5.252  18.305  0.00  0.00    +0.000 OA
ATOM      6  C   UNL     1       2.203   4.338  19.320  0.00  0.00    +0.000 A 
ATOM      7  C   UNL     1       1.014   4.021  19.976  0.00  0.00    +0.000 A 
ATOM      8  C   UNL     1       1.025   3.109  21.034  0.00  0.00    +0.000 A 
ATOM      9  C   UNL     1       2.223   2.516  21.433  0.00  0.00    +0.000 A 
ATOM     10  C   UNL     1       3.410   2.825  20.768  0.00  0.00    +0.000 A 
ATOM     11  C   UNL     1       3.393   3.736  19.707  0.00  0.00    +0.000 A 
ENDROOT
BRANCH   3  12
ATOM     12  N   UNL     1       5.694   5.559  17.218  0.00  0.00    +0.000 N 
ATOM     13  C   UNL     1       6.513   6.643  17.456  0.00  0.00    +0.000 A 
ATOM     14  N   UNL     1       7.484   6.708  16.574  0.00  0.00    +0.000 NA
ATOM     15  N   UNL     1       7.330   5.661  15.713  0.00  0.00    +0.000 NA
ATOM     16  C   UNL     1       6.271   4.991  16.098  0.00  0.00    +0.000 A 
ENDBRANCH   3  12
TORSDOF 1
ENDMDL
MODEL 2
REMARK VINA RESULT:      -7.2      1.071      1.409
REMARK  Name = 
REMARK  1 active torsions:
REMARK  status: ('A' for Active; 'I' for Inactive)
REMARK    1  A    between atoms: C_3  and  N_4
REMARK                            x       y       z     vdW  Elec       q    Type
REMARK                         _______ _______ _______ _____ _____    ______ ____
ROOT
ATOM      1  O   UNL     1       5.574   3.997  19.462  0.00  0.00    +0.000 OA
ATOM      2  C   UNL     1       4.564   3.902  18.775  0.00  0.00    +0.000 A 
ATOM      3  C   UNL     1       4.553   4.196  17.309  0.00  0.00    +0.000 A 
ATOM      4  C   UNL     1       3.372   3.980  16.696  0.00  0.00    +0.000 A 
ATOM      5  O   UNL     1       2.202   3.523  17.252  0.00  0.00    +0.000 OA
ATOM      6  C   UNL     1       2.178   3.307  18.602  0.00  0.00    +0.000 A 
ATOM      7  C   UNL     1       0.972   2.895  19.169  0.00  0.00    +0.000 A 
ATOM      8  C   UNL     1       0.889   2.681  20.546  0.00  0.00    +0.000 A 
ATOM      9  C   UNL     1       2.010   2.876  21.354  0.00  0.00    +0.000 A 
ATOM     10  C   UNL     1       3.219   3.276  20.783  0.00  0.00    +0.000 A 
ATOM     11  C   UNL     1       3.298   3.487  19.403  0.00  0.00    +0.000 A 
ENDROOT
BRANCH   3  12
ATOM     12  N   UNL     1       5.697   4.659  16.631  0.00  0.00    +0.000 N 
ATOM     13  C   UNL     1       6.457   4.040  15.661  0.00  0.00    +0.000 A 
ATOM     14  N   UNL     1       7.449   4.808  15.271  0.00  0.00    +0.000 NA
ATOM     15  N   UNL     1       7.376   5.969  15.985  0.00  0.00    +0.000 NA
ATOM     16  C   UNL     1       6.343   5.871  16.786  0.00  0.00    +0.000 A 
ENDBRANCH   3  12
TORSDOF 1
ENDMDL
MODEL 3
REMARK VINA RESULT:      -7.1      1.614      1.878
REMARK  Name = 
REMARK  1 active torsions:
REMARK  status: ('A' for Active; 'I' for Inactive)
REMARK    1  A    between atoms: C_3  and  N_4
REMARK                            x       y       z     vdW  Elec       q    Type
REMARK                         _______ _______ _______ _____ _____    ______ ____
ROOT
ATOM      1  O   UNL     1       3.426   3.274  16.530  0.00  0.00    +0.000 OA
ATOM      2  C   UNL     1       3.659   3.930  17.538  0.00  0.00    +0.000 A 
ATOM      3  C   UNL     1       4.827   4.859  17.645  0.00  0.00    +0.000 A 
ATOM      4  C   UNL     1       4.898   5.549  18.800  0.00  0.00    +0.000 A 
ATOM      5  O   UNL     1       4.034   5.503  19.868  0.00  0.00    +0.000 OA
ATOM      6  C   UNL     1       2.995   4.615  19.811  0.00  0.00    +0.000 A 
ATOM      7  C   UNL     1       2.154   4.534  20.920  0.00  0.00    +0.000 A 
ATOM      8  C   UNL     1       1.091   3.628  20.920  0.00  0.00    +0.000 A 
ATOM      9  C   UNL     1       0.870   2.807  19.814  0.00  0.00    +0.000 A 
ATOM     10  C   UNL     1       1.705   2.899  18.700  0.00  0.00    +0.000 A 
ATOM     11  C   UNL     1       2.767   3.809  18.703  0.00  0.00    +0.000 A 
ENDROOT
BRANCH   3  12
ATOM     12  N   UNL     1       5.770   4.996  16.608  0.00  0.00    +0.000 N 
ATOM     13  C   UNL     1       7.073   4.548  16.540  0.00  0.00    +0.000 A 
ATOM     14  N   UNL     1       7.627   4.871  15.394  0.00  0.00    +0.000 NA
ATOM     15  N   UNL     1       6.698   5.556  14.665  0.00  0.00    +0.000 NA
ATOM     16  C   UNL     1       5.608   5.627  15.390  0.00  0.00    +0.000 A 
ENDBRANCH   3  12
TORSDOF 1
ENDMDL
MODEL 4
REMARK VINA RESULT:      -7.1      0.796      2.066
REMARK  Name = 
REMARK  1 active torsions:
REMARK  status: ('A' for Active; 'I' for Inactive)
REMARK    1  A    between atoms: C_3  and  N_4
REMARK                            x       y       z     vdW  Elec       q    Type
REMARK                         _______ _______ _______ _____ _____    ______ ____
ROOT
ATOM      1  O   UNL     1       3.256   5.743  17.553  0.00  0.00    +0.000 OA
ATOM      2  C   UNL     1       3.750   4.884  18.273  0.00  0.00    +0.000 A 
ATOM      3  C   UNL     1       5.196   4.507  18.206  0.00  0.00    +0.000 A 
ATOM      4  C   UNL     1       5.584   3.588  19.112  0.00  0.00    +0.000 A 
ATOM      5  O   UNL     1       4.821   2.975  20.076  0.00  0.00    +0.000 OA
ATOM      6  C   UNL     1       3.485   3.264  20.113  0.00  0.00    +0.000 A 
ATOM      7  C   UNL     1       2.705   2.599  21.058  0.00  0.00    +0.000 A 
ATOM      8  C   UNL     1       1.332   2.843  21.123  0.00  0.00    +0.000 A 
ATOM      9  C   UNL     1       0.740   3.752  20.244  0.00  0.00    +0.000 A 
ATOM     10  C   UNL     1       1.524   4.426  19.307  0.00  0.00    +0.000 A 
ATOM     11  C   UNL     1       2.899   4.181  19.248  0.00  0.00    +0.000 A 
ENDROOT
BRANCH   3  12
ATOM     12  N   UNL     1       6.073   5.077  17.265  0.00  0.00    +0.000 N 
ATOM     13  C   UNL     1       6.796   6.250  17.333  0.00  0.00    +0.000 A 
ATOM     14  N   UNL     1       7.510   6.433  16.246  0.00  0.00    +0.000 NA
ATOM     15  N   UNL     1       7.273   5.377  15.414  0.00  0.00    +0.000 NA
ATOM     16  C   UNL     1       6.422   4.585  16.021  0.00  0.00    +0.000 A 
ENDBRANCH   3  12
TORSDOF 1
ENDMDL
MODEL 5
REMARK VINA RESULT:      -7.1      1.212      1.302
REMARK  Name = 
REMARK  1 active torsions:
REMARK  status: ('A' for Active; 'I' for Inactive)
REMARK    1  A    between atoms: C_3  and  N_4
REMARK                            x       y       z     vdW  Elec       q    Type
REMARK                         _______ _______ _______ _____ _____    ______ ____
ROOT
ATOM      1  O   UNL     1       4.997   5.488  19.661  0.00  0.00    +0.000 OA
ATOM      2  C   UNL     1       4.307   4.847  18.879  0.00  0.00    +0.000 A 
ATOM      3  C   UNL     1       4.672   4.668  17.439  0.00  0.00    +0.000 A 
ATOM      4  C   UNL     1       3.834   3.883  16.735  0.00  0.00    +0.000 A 
ATOM      5  O   UNL     1       2.707   3.234  17.181  0.00  0.00    +0.000 OA
ATOM      6  C   UNL     1       2.326   3.435  18.479  0.00  0.00    +0.000 A 
ATOM      7  C   UNL     1       1.153   2.818  18.911  0.00  0.00    +0.000 A 
ATOM      8  C   UNL     1       0.709   3.009  20.221  0.00  0.00    +0.000 A 
ATOM      9  C   UNL     1       1.438   3.813  21.097  0.00  0.00    +0.000 A 
ATOM     10  C   UNL     1       2.619   4.420  20.667  0.00  0.00    +0.000 A 
ATOM     11  C   UNL     1       3.061   4.224  19.355  0.00  0.00    +0.000 A 
ENDROOT
BRANCH   3  12
ATOM     12  N   UNL     1       5.810   5.277  16.876  0.00  0.00    +0.000 N 
ATOM     13  C   UNL     1       6.425   6.467  17.205  0.00  0.00    +0.000 A 
ATOM     14  N   UNL     1       7.473   6.687  16.445  0.00  0.00    +0.000 NA
ATOM     15  N   UNL     1       7.580   5.640  15.575  0.00  0.00    +0.000 NA
ATOM     16  C   UNL     1       6.593   4.816  15.835  0.00  0.00    +0.000 A 
ENDBRANCH   3  12
TORSDOF 1
ENDMDL
MODEL 6
REMARK VINA RESULT:      -7.1      1.528      2.184
REMARK  Name = 
REMARK  1 active torsions:
REMARK  status: ('A' for Active; 'I' for Inactive)
REMARK    1  A    between atoms: C_3  and  N_4
REMARK                            x       y       z     vdW  Elec       q    Type
REMARK                         _______ _______ _______ _____ _____    ______ ____
ROOT
ATOM      1  O   UNL     1       4.279   6.295  18.163  0.00  0.00    +0.000 OA
ATOM      2  C   UNL     1       4.006   5.104  18.089  0.00  0.00    +0.000 A 
ATOM      3  C   UNL     1       4.692   4.176  17.137  0.00  0.00    +0.000 A 
ATOM      4  C   UNL     1       4.313   2.886  17.231  0.00  0.00    +0.000 A 
ATOM      5  O   UNL     1       3.392   2.335  18.088  0.00  0.00    +0.000 OA
ATOM      6  C   UNL     1       2.712   3.178  18.923  0.00  0.00    +0.000 A 
ATOM      7  C   UNL     1       1.740   2.621  19.753  0.00  0.00    +0.000 A 
ATOM      8  C   UNL     1       1.004   3.441  20.610  0.00  0.00    +0.000 A 
ATOM      9  C   UNL     1       1.241   4.816  20.637  0.00  0.00    +0.000 A 
ATOM     10  C   UNL     1       2.223   5.371  19.815  0.00  0.00    +0.000 A 
ATOM     11  C   UNL     1       2.960   4.545  18.961  0.00  0.00    +0.000 A 
ENDROOT
BRANCH   3  12
ATOM     12  N   UNL     1       5.660   4.628  16.220  0.00  0.00    +0.000 N 
ATOM     13  C   UNL     1       5.546   4.868  14.867  0.00  0.00    +0.000 A 
ATOM     14  N   UNL     1       6.683   5.292  14.362  0.00  0.00    +0.000 NA
ATOM     15  N   UNL     1       7.594   5.338  15.377  0.00  0.00    +0.000 NA
ATOM     16  C   UNL     1       6.983   4.942  16.468  0.00  0.00    +0.000 A 
ENDBRANCH   3  12
TORSDOF 1
ENDMDL
MODEL 7
REMARK VINA RESULT:      -7.1      1.547      1.605
REMARK  Name = 
REMARK  1 active torsions:
REMARK  status: ('A' for Active; 'I' for Inactive)
REMARK    1  A    between atoms: C_3  and  N_4
REMARK                            x       y       z     vdW  Elec       q    Type
REMARK                         _______ _______ _______ _____ _____    ______ ____
ROOT
ATOM      1  O   UNL     1       4.041   2.663  17.110  0.00  0.00    +0.000 OA
ATOM      2  C   UNL     1       3.991   3.612  17.882  0.00  0.00    +0.000 A 
ATOM      3  C   UNL     1       4.810   4.850  17.696  0.00  0.00    +0.000 A 
ATOM      4  C   UNL     1       4.585   5.820  18.604  0.00  0.00    +0.000 A 
ATOM      5  O   UNL     1       3.702   5.806  19.657  0.00  0.00    +0.000 OA
ATOM      6  C   UNL     1       2.988   4.660  19.876  0.00  0.00    +0.000 A 
ATOM      7  C   UNL     1       2.133   4.632  20.977  0.00  0.00    +0.000 A 
ATOM      8  C   UNL     1       1.399   3.478  21.258  0.00  0.00    +0.000 A 
ATOM      9  C   UNL     1       1.518   2.356  20.437  0.00  0.00    +0.000 A 
ATOM     10  C   UNL     1       2.364   2.390  19.328  0.00  0.00    +0.000 A 
ATOM     11  C   UNL     1       3.096   3.548  19.050  0.00  0.00    +0.000 A 
ENDROOT
BRANCH   3  12
ATOM     12  N   UNL     1       5.739   4.980  16.647  0.00  0.00    +0.000 N 
ATOM     13  C   UNL     1       5.574   5.513  15.386  0.00  0.00    +0.000 A 
ATOM     14  N   UNL     1       6.691   5.457  14.696  0.00  0.00    +0.000 NA
ATOM     15  N   UNL     1       7.636   4.872  15.487  0.00  0.00    +0.000 NA
ATOM     16  C   UNL     1       7.065   4.591  16.634  0.00  0.00    +0.000 A 
ENDBRANCH   3  12
TORSDOF 1
ENDMDL
MODEL 8
REMARK VINA RESULT:      -6.8      1.673      2.292
REMARK  Name = 
REMARK  1 active torsions:
REMARK  status: ('A' for Active; 'I' for Inactive)
REMARK    1  A    between atoms: C_3  and  N_4
REMARK                            x       y       z     vdW  Elec       q    Type
REMARK                         _______ _______ _______ _____ _____    ______ ____
ROOT
ATOM      1  O   UNL     1       4.658   6.630  17.736  0.00  0.00    +0.000 OA
ATOM      2  C   UNL     1       4.246   5.478  17.801  0.00  0.00    +0.000 A 
ATOM      3  C   UNL     1       4.764   4.385  16.921  0.00  0.00    +0.000 A 
ATOM      4  C   UNL     1       4.245   3.166  17.168  0.00  0.00    +0.000 A 
ATOM      5  O   UNL     1       3.319   2.817  18.121  0.00  0.00    +0.000 OA
ATOM      6  C   UNL     1       2.792   3.815  18.894  0.00  0.00    +0.000 A 
ATOM      7  C   UNL     1       1.813   3.463  19.823  0.00  0.00    +0.000 A 
ATOM      8  C   UNL     1       1.228   4.448  20.622  0.00  0.00    +0.000 A 
ATOM      9  C   UNL     1       1.623   5.780  20.493  0.00  0.00    +0.000 A 
ATOM     10  C   UNL     1       2.611   6.128  19.572  0.00  0.00    +0.000 A 
ATOM     11  C   UNL     1       3.197   5.139  18.775  0.00  0.00    +0.000 A 
ENDROOT
BRANCH   3  12
ATOM     12  N   UNL     1       5.721   4.624  15.917  0.00  0.00    +0.000 N 
ATOM     13  C   UNL     1       6.969   5.204  16.011  0.00  0.00    +0.000 A 
ATOM     14  N   UNL     1       7.565   5.242  14.841  0.00  0.00    +0.000 NA
ATOM     15  N   UNL     1       6.717   4.687  13.927  0.00  0.00    +0.000 NA
ATOM     16  C   UNL     1       5.631   4.329  14.570  0.00  0.00    +0.000 A 
ENDBRANCH   3  12
TORSDOF 1
ENDMDL
MODEL 9
REMARK VINA RESULT:      -6.8      2.859      5.587
REMARK  Name = 
REMARK  1 active torsions:
REMARK  status: ('A' for Active; 'I' for Inactive)
REMARK    1  A    between atoms: C_3  and  N_4
REMARK                            x       y       z     vdW  Elec       q    Type
REMARK                         _______ _______ _______ _____ _____    ______ ____
ROOT
ATOM      1  O   UNL     1       5.996   4.440  19.552  0.00  0.00    +0.000 OA
ATOM      2  C   UNL     1       5.265   4.205  18.598  0.00  0.00    +0.000 A 
ATOM      3  C   UNL     1       3.859   3.719  18.758  0.00  0.00    +0.000 A 
ATOM      4  C   UNL     1       3.176   3.571  17.606  0.00  0.00    +0.000 A 
ATOM      5  O   UNL     1       3.612   3.815  16.326  0.00  0.00    +0.000 OA
ATOM      6  C   UNL     1       4.913   4.203  16.158  0.00  0.00    +0.000 A 
ATOM      7  C   UNL     1       5.366   4.398  14.854  0.00  0.00    +0.000 A 
ATOM      8  C   UNL     1       6.691   4.773  14.627  0.00  0.00    +0.000 A 
ATOM      9  C   UNL     1       7.561   4.954  15.703  0.00  0.00    +0.000 A 
ATOM     10  C   UNL     1       7.104   4.771  17.008  0.00  0.00    +0.000 A 
ATOM     11  C   UNL     1       5.774   4.398  17.230  0.00  0.00    +0.000 A 
ENDROOT
BRANCH   3  12
ATOM     12  N   UNL     1       3.303   3.445  20.022  0.00  0.00    +0.000 N 
ATOM     13  C   UNL     1       3.452   2.335  20.827  0.00  0.00    +0.000 A 
ATOM     14  N   UNL     1       2.771   2.461  21.943  0.00  0.00    +0.000 NA
ATOM     15  N   UNL     1       2.139   3.671  21.906  0.00  0.00    +0.000 NA
ATOM     16  C   UNL     1       2.456   4.242  20.769  0.00  0.00    +0.000 A 
ENDBRANCH   3  12
TORSDOF 1
ENDMDL
