MODEL 1
REMARK VINA RESULT:      -8.2      0.000      0.000
REMARK  Name = 
REMARK  10 active torsions:
REMARK  status: ('A' for Active; 'I' for Inactive)
REMARK    1  A    between atoms: C_1  and  O_2
REMARK    2  A    between atoms: O_2  and  C_3
REMARK    3  A    between atoms: C_8  and  N_9
REMARK    4  A    between atoms: N_9  and  S_10
REMARK    5  A    between atoms: S_10  and  C_13
REMARK    6  A    between atoms: C_16  and  N_17
REMARK    7  A    between atoms: C_18  and  C_20
REMARK    8  A    between atoms: C_20  and  S_21
REMARK    9  A    between atoms: S_21  and  C_22
REMARK   10  A    between atoms: C_25  and  C_26
REMARK                            x       y       z     vdW  Elec       q    Type
REMARK                         _______ _______ _______ _____ _____    ______ ____
ROOT
ATOM      1  C   UNL     1       0.759   9.631  19.697  0.00  0.00    +0.000 A 
ATOM      2  C   UNL     1       0.823   8.892  20.873  0.00  0.00    +0.000 A 
ATOM      3  C   UNL     1       1.578   7.715  20.910  0.00  0.00    +0.000 A 
ATOM      4  C   UNL     1       2.275   7.284  19.775  0.00  0.00    +0.000 A 
ATOM      5  C   UNL     1       2.253   8.068  18.615  0.00  0.00    +0.000 A 
ATOM      6  C   UNL     1       1.483   9.230  18.568  0.00  0.00    +0.000 A 
ENDROOT
BRANCH   4   7
ATOM      7  N   UNL     1       2.995   6.081  19.732  0.00  0.00    +0.000 N 
ATOM      8  C   UNL     1       2.564   4.865  19.225  0.00  0.00    +0.000 C 
ATOM      9  O   UNL     1       1.518   4.677  18.611  0.00  0.00    +0.000 OA
ATOM     10  H   UNL     1       3.949   6.102  20.079  0.00  0.00    +0.000 HD
BRANCH   8  11
ATOM     11  C   UNL     1       3.574   3.733  19.371  0.00  0.00    +0.000 C 
BRANCH  11  12
ATOM     12  S   UNL     1       4.574   3.540  17.857  0.00  0.00    +0.000 S 
BRANCH  12  13
ATOM     13  C   UNL     1       5.679   4.932  17.900  0.00  0.00    +0.000 A 
ATOM     14  C   UNL     1       6.845   5.022  18.660  0.00  0.00    +0.000 A 
ATOM     15  C   UNL     1       7.642   6.173  18.605  0.00  0.00    +0.000 A 
ATOM     16  C   UNL     1       7.287   7.248  17.781  0.00  0.00    +0.000 A 
ATOM     17  C   UNL     1       8.140   8.474  17.687  0.00  0.00    +0.000 C 
ATOM     18  C   UNL     1       6.114   7.159  17.026  0.00  0.00    +0.000 A 
ATOM     19  C   UNL     1       5.322   6.016  17.087  0.00  0.00    +0.000 A 
ENDBRANCH  12  13
ENDBRANCH  11  12
ENDBRANCH   8  11
ENDBRANCH   4   7
BRANCH   1  20
ATOM     20  S   UNL     1      -0.376  10.991  19.534  0.00  0.00    +0.000 S 
ATOM     21  O   UNL     1       0.023  11.770  18.379  0.00  0.00    +0.000 OA
ATOM     22  O   UNL     1      -0.468  11.601  20.844  0.00  0.00    +0.000 OA
BRANCH  20  23
ATOM     23  N   UNL     1      -1.872  10.270  19.236  0.00  0.00    +0.000 N 
ATOM     24  H   UNL     1      -1.961   9.337  19.636  0.00  0.00    +0.000 HD
BRANCH  23  30
ATOM     25  C   UNL     1      -3.587  11.391  17.861  0.00  0.00    +0.000 A 
ATOM     26  C   UNL     1      -4.245  11.473  16.617  0.00  0.00    +0.000 A 
ATOM     27  C   UNL     1      -3.760  10.789  15.503  0.00  0.00    +0.000 A 
ATOM     28  C   UNL     1      -2.634   9.980  15.623  0.00  0.00    +0.000 A 
ATOM     29  C   UNL     1      -2.031   9.820  16.861  0.00  0.00    +0.000 A 
ATOM     30  C   UNL     1      -2.511  10.509  17.985  0.00  0.00    +0.000 A 
BRANCH  25  32
ATOM     31  C   UNL     1      -5.353  12.065  19.284  0.00  0.00    +0.000 C 
ATOM     32  O   UNL     1      -3.965  12.145  18.944  0.00  0.00    +0.000 OA
ENDBRANCH  25  32
ENDBRANCH  23  30
ENDBRANCH  20  23
ENDBRANCH   1  20
TORSDOF 8
ENDMDL
MODEL 2
REMARK VINA RESULT:      -8.2      2.281      9.064
REMARK  Name = 
REMARK  10 active torsions:
REMARK  status: ('A' for Active; 'I' for Inactive)
REMARK    1  A    between atoms: C_1  and  O_2
REMARK    2  A    between atoms: O_2  and  C_3
REMARK    3  A    between atoms: C_8  and  N_9
REMARK    4  A    between atoms: N_9  and  S_10
REMARK    5  A    between atoms: S_10  and  C_13
REMARK    6  A    between atoms: C_16  and  N_17
REMARK    7  A    between atoms: C_18  and  C_20
REMARK    8  A    between atoms: C_20  and  S_21
REMARK    9  A    between atoms: S_21  and  C_22
REMARK   10  A    between atoms: C_25  and  C_26
REMARK                            x       y       z     vdW  Elec       q    Type
REMARK                         _______ _______ _______ _____ _____    ______ ____
ROOT
ATOM      1  C   UNL     1       2.585   4.851  18.839  0.00  0.00    +0.000 A 
ATOM      2  C   UNL     1       2.623   6.026  18.095  0.00  0.00    +0.000 A 
ATOM      3  C   UNL     1       2.289   7.240  18.704  0.00  0.00    +0.000 A 
ATOM      4  C   UNL     1       1.927   7.281  20.055  0.00  0.00    +0.000 A 
ATOM      5  C   UNL     1       1.951   6.101  20.809  0.00  0.00    +0.000 A 
ATOM      6  C   UNL     1       2.262   4.885  20.201  0.00  0.00    +0.000 A 
ENDROOT
BRANCH   4   7
ATOM      7  N   UNL     1       1.519   8.457  20.702  0.00  0.00    +0.000 N 
ATOM      8  C   UNL     1       0.313   8.685  21.345  0.00  0.00    +0.000 C 
ATOM      9  O   UNL     1      -0.550   7.841  21.563  0.00  0.00    +0.000 OA
ATOM     10  H   UNL     1       2.190   9.220  20.735  0.00  0.00    +0.000 HD
BRANCH   8  11
ATOM     11  C   UNL     1       0.160  10.093  21.909  0.00  0.00    +0.000 C 
BRANCH  11  12
ATOM     12  S   UNL     1       0.568  11.354  20.657  0.00  0.00    +0.000 S 
BRANCH  12  13
ATOM     13  C   UNL     1      -0.648  11.096  19.385  0.00  0.00    +0.000 A 
ATOM     14  C   UNL     1      -0.522  10.225  18.303  0.00  0.00    +0.000 A 
ATOM     15  C   UNL     1      -1.555  10.102  17.365  0.00  0.00    +0.000 A 
ATOM     16  C   UNL     1      -2.734  10.846  17.501  0.00  0.00    +0.000 A 
ATOM     17  C   UNL     1      -3.860  10.708  16.525  0.00  0.00    +0.000 C 
ATOM     18  C   UNL     1      -2.856  11.724  18.581  0.00  0.00    +0.000 A 
ATOM     19  C   UNL     1      -1.825  11.847  19.508  0.00  0.00    +0.000 A 
ENDBRANCH  12  13
ENDBRANCH  11  12
ENDBRANCH   8  11
ENDBRANCH   4   7
BRANCH   1  20
ATOM     20  S   UNL     1       2.763   3.266  18.053  0.00  0.00    +0.000 S 
ATOM     21  O   UNL     1       2.262   3.380  16.698  0.00  0.00    +0.000 OA
ATOM     22  O   UNL     1       2.205   2.294  18.971  0.00  0.00    +0.000 OA
BRANCH  20  23
ATOM     23  N   UNL     1       4.427   2.988  18.015  0.00  0.00    +0.000 N 
ATOM     24  H   UNL     1       4.718   2.189  18.575  0.00  0.00    +0.000 HD
BRANCH  23  30
ATOM     25  C   UNL     1       5.695   4.689  16.754  0.00  0.00    +0.000 A 
ATOM     26  C   UNL     1       6.669   5.707  16.783  0.00  0.00    +0.000 A 
ATOM     27  C   UNL     1       7.143   6.212  17.994  0.00  0.00    +0.000 A 
ATOM     28  C   UNL     1       6.682   5.680  19.194  0.00  0.00    +0.000 A 
ATOM     29  C   UNL     1       5.793   4.616  19.178  0.00  0.00    +0.000 A 
ATOM     30  C   UNL     1       5.308   4.107  17.964  0.00  0.00    +0.000 A 
BRANCH  25  32
ATOM     31  C   UNL     1       6.040   3.910  14.548  0.00  0.00    +0.000 C 
ATOM     32  O   UNL     1       5.118   4.255  15.587  0.00  0.00    +0.000 OA
ENDBRANCH  25  32
ENDBRANCH  23  30
ENDBRANCH  20  23
ENDBRANCH   1  20
TORSDOF 8
ENDMDL
MODEL 3
REMARK VINA RESULT:      -7.9      0.667      1.435
REMARK  Name = 
REMARK  10 active torsions:
REMARK  status: ('A' for Active; 'I' for Inactive)
REMARK    1  A    between atoms: C_1  and  O_2
REMARK    2  A    between atoms: O_2  and  C_3
REMARK    3  A    between atoms: C_8  and  N_9
REMARK    4  A    between atoms: N_9  and  S_10
REMARK    5  A    between atoms: S_10  and  C_13
REMARK    6  A    between atoms: C_16  and  N_17
REMARK    7  A    between atoms: C_18  and  C_20
REMARK    8  A    between atoms: C_20  and  S_21
REMARK    9  A    between atoms: S_21  and  C_22
REMARK   10  A    between atoms: C_25  and  C_26
REMARK                            x       y       z     vdW  Elec       q    Type
REMARK                         _______ _______ _______ _____ _____    ______ ____
ROOT
ATOM      1  C   UNL     1       1.004   9.704  19.724  0.00  0.00    +0.000 A 
ATOM      2  C   UNL     1       1.654   9.253  18.580  0.00  0.00    +0.000 A 
ATOM      3  C   UNL     1       2.283   8.004  18.589  0.00  0.00    +0.000 A 
ATOM      4  C   UNL     1       2.255   7.204  19.738  0.00  0.00    +0.000 A 
ATOM      5  C   UNL     1       1.546   7.642  20.863  0.00  0.00    +0.000 A 
ATOM      6  C   UNL     1       0.936   8.896  20.865  0.00  0.00    +0.000 A 
ENDROOT
BRANCH   4   7
ATOM      7  N   UNL     1       2.923   5.974  19.828  0.00  0.00    +0.000 N 
ATOM      8  C   UNL     1       2.518   4.760  19.295  0.00  0.00    +0.000 C 
ATOM      9  O   UNL     1       1.563   4.594  18.543  0.00  0.00    +0.000 OA
ATOM     10  H   UNL     1       3.819   5.970  20.307  0.00  0.00    +0.000 HD
BRANCH   8  11
ATOM     11  C   UNL     1       3.449   3.596  19.612  0.00  0.00    +0.000 C 
BRANCH  11  12
ATOM     12  S   UNL     1       4.510   3.192  18.185  0.00  0.00    +0.000 S 
BRANCH  12  13
ATOM     13  C   UNL     1       5.437   4.685  17.909  0.00  0.00    +0.000 A 
ATOM     14  C   UNL     1       5.143   5.660  16.956  0.00  0.00    +0.000 A 
ATOM     15  C   UNL     1       5.946   6.802  16.838  0.00  0.00    +0.000 A 
ATOM     16  C   UNL     1       7.052   6.987  17.677  0.00  0.00    +0.000 A 
ATOM     17  C   UNL     1       7.905   8.212  17.584  0.00  0.00    +0.000 C 
ATOM     18  C   UNL     1       7.349   6.005  18.626  0.00  0.00    +0.000 A 
ATOM     19  C   UNL     1       6.552   4.869  18.738  0.00  0.00    +0.000 A 
ENDBRANCH  12  13
ENDBRANCH  11  12
ENDBRANCH   8  11
ENDBRANCH   4   7
BRANCH   1  20
ATOM     20  S   UNL     1       0.404  11.374  19.836  0.00  0.00    +0.000 S 
ATOM     21  O   UNL     1       0.697  12.040  18.582  0.00  0.00    +0.000 OA
ATOM     22  O   UNL     1       0.905  11.901  21.089  0.00  0.00    +0.000 OA
BRANCH  20  23
ATOM     23  N   UNL     1      -1.267  11.222  20.015  0.00  0.00    +0.000 N 
ATOM     24  H   UNL     1      -1.540  10.685  20.836  0.00  0.00    +0.000 HD
BRANCH  23  30
ATOM     25  C   UNL     1      -3.294  11.748  18.710  0.00  0.00    +0.000 A 
ATOM     26  C   UNL     1      -4.089  11.460  17.582  0.00  0.00    +0.000 A 
ATOM     27  C   UNL     1      -3.614  10.635  16.563  0.00  0.00    +0.000 A 
ATOM     28  C   UNL     1      -2.355  10.051  16.673  0.00  0.00    +0.000 A 
ATOM     29  C   UNL     1      -1.602  10.254  17.819  0.00  0.00    +0.000 A 
ATOM     30  C   UNL     1      -2.071  11.087  18.846  0.00  0.00    +0.000 A 
BRANCH  25  32
ATOM     31  C   UNL     1      -5.094  12.811  19.818  0.00  0.00    +0.000 C 
ATOM     32  O   UNL     1      -3.680  12.650  19.670  0.00  0.00    +0.000 OA
ENDBRANCH  25  32
ENDBRANCH  23  30
ENDBRANCH  20  23
ENDBRANCH   1  20
TORSDOF 8
ENDMDL
MODEL 4
REMARK VINA RESULT:      -7.9      2.300      8.991
REMARK  Name = 
REMARK  10 active torsions:
REMARK  status: ('A' for Active; 'I' for Inactive)
REMARK    1  A    between atoms: C_1  and  O_2
REMARK    2  A    between atoms: O_2  and  C_3
REMARK    3  A    between atoms: C_8  and  N_9
REMARK    4  A    between atoms: N_9  and  S_10
REMARK    5  A    between atoms: S_10  and  C_13
REMARK    6  A    between atoms: C_16  and  N_17
REMARK    7  A    between atoms: C_18  and  C_20
REMARK    8  A    between atoms: C_20  and  S_21
REMARK    9  A    between atoms: S_21  and  C_22
REMARK   10  A    between atoms: C_25  and  C_26
REMARK                            x       y       z     vdW  Elec       q    Type
REMARK                         _______ _______ _______ _____ _____    ______ ____
ROOT
ATOM      1  C   UNL     1       2.473   4.385  18.887  0.00  0.00    +0.000 A 
ATOM      2  C   UNL     1       2.321   4.530  20.262  0.00  0.00    +0.000 A 
ATOM      3  C   UNL     1       2.079   5.797  20.801  0.00  0.00    +0.000 A 
ATOM      4  C   UNL     1       1.982   6.917  19.966  0.00  0.00    +0.000 A 
ATOM      5  C   UNL     1       2.076   6.750  18.579  0.00  0.00    +0.000 A 
ATOM      6  C   UNL     1       2.339   5.491  18.039  0.00  0.00    +0.000 A 
ENDROOT
BRANCH   4   7
ATOM      7  N   UNL     1       1.807   8.220  20.454  0.00  0.00    +0.000 N 
ATOM      8  C   UNL     1       0.700   8.725  21.116  0.00  0.00    +0.000 C 
ATOM      9  O   UNL     1      -0.265   8.069  21.498  0.00  0.00    +0.000 OA
ATOM     10  H   UNL     1       2.586   8.862  20.341  0.00  0.00    +0.000 HD
BRANCH   8  11
ATOM     11  C   UNL     1       0.805  10.203  21.476  0.00  0.00    +0.000 C 
BRANCH  11  12
ATOM     12  S   UNL     1       1.001  11.233  19.984  0.00  0.00    +0.000 S 
BRANCH  12  13
ATOM     13  C   UNL     1      -0.618  11.230  19.250  0.00  0.00    +0.000 A 
ATOM     14  C   UNL     1      -1.665  12.089  19.583  0.00  0.00    +0.000 A 
ATOM     15  C   UNL     1      -2.898  11.995  18.927  0.00  0.00    +0.000 A 
ATOM     16  C   UNL     1      -3.101  11.041  17.921  0.00  0.00    +0.000 A 
ATOM     17  C   UNL     1      -4.402  10.942  17.190  0.00  0.00    +0.000 C 
ATOM     18  C   UNL     1      -2.053  10.175  17.594  0.00  0.00    +0.000 A 
ATOM     19  C   UNL     1      -0.830  10.269  18.252  0.00  0.00    +0.000 A 
ENDBRANCH  12  13
ENDBRANCH  11  12
ENDBRANCH   8  11
ENDBRANCH   4   7
BRANCH   1  20
ATOM     20  S   UNL     1       3.018   2.845  18.186  0.00  0.00    +0.000 S 
ATOM     21  O   UNL     1       2.448   2.730  16.858  0.00  0.00    +0.000 OA
ATOM     22  O   UNL     1       2.769   1.831  19.190  0.00  0.00    +0.000 OA
BRANCH  20  23
ATOM     23  N   UNL     1       4.695   2.996  18.065  0.00  0.00    +0.000 N 
ATOM     24  H   UNL     1       5.192   2.678  18.896  0.00  0.00    +0.000 HD
BRANCH  23  30
ATOM     25  C   UNL     1       5.967   5.110  18.019  0.00  0.00    +0.000 A 
ATOM     26  C   UNL     1       6.352   6.248  17.283  0.00  0.00    +0.000 A 
ATOM     27  C   UNL     1       6.119   6.327  15.910  0.00  0.00    +0.000 A 
ATOM     28  C   UNL     1       5.462   5.287  15.258  0.00  0.00    +0.000 A 
ATOM     29  C   UNL     1       4.998   4.203  15.987  0.00  0.00    +0.000 A 
ATOM     30  C   UNL     1       5.233   4.116  17.368  0.00  0.00    +0.000 A 
BRANCH  25  32
ATOM     31  C   UNL     1       7.530   5.538  19.743  0.00  0.00    +0.000 C 
ATOM     32  O   UNL     1       6.289   4.947  19.344  0.00  0.00    +0.000 OA
ENDBRANCH  25  32
ENDBRANCH  23  30
ENDBRANCH  20  23
ENDBRANCH   1  20
TORSDOF 8
ENDMDL
MODEL 5
REMARK VINA RESULT:      -7.8      1.463      2.139
REMARK  Name = 
REMARK  10 active torsions:
REMARK  status: ('A' for Active; 'I' for Inactive)
REMARK    1  A    between atoms: C_1  and  O_2
REMARK    2  A    between atoms: O_2  and  C_3
REMARK    3  A    between atoms: C_8  and  N_9
REMARK    4  A    between atoms: N_9  and  S_10
REMARK    5  A    between atoms: S_10  and  C_13
REMARK    6  A    between atoms: C_16  and  N_17
REMARK    7  A    between atoms: C_18  and  C_20
REMARK    8  A    between atoms: C_20  and  S_21
REMARK    9  A    between atoms: S_21  and  C_22
REMARK   10  A    between atoms: C_25  and  C_26
REMARK                            x       y       z     vdW  Elec       q    Type
REMARK                         _______ _______ _______ _____ _____    ______ ____
ROOT
ATOM      1  C   UNL     1       0.577   9.878  19.499  0.00  0.00    +0.000 A 
ATOM      2  C   UNL     1       1.262   9.514  18.346  0.00  0.00    +0.000 A 
ATOM      3  C   UNL     1       2.090   8.387  18.361  0.00  0.00    +0.000 A 
ATOM      4  C   UNL     1       2.226   7.621  19.525  0.00  0.00    +0.000 A 
ATOM      5  C   UNL     1       1.484   7.963  20.663  0.00  0.00    +0.000 A 
ATOM      6  C   UNL     1       0.674   9.099  20.658  0.00  0.00    +0.000 A 
ENDROOT
BRANCH   4   7
ATOM      7  N   UNL     1       3.091   6.521  19.620  0.00  0.00    +0.000 N 
ATOM      8  C   UNL     1       2.904   5.260  19.076  0.00  0.00    +0.000 C 
ATOM      9  O   UNL     1       2.001   4.939  18.310  0.00  0.00    +0.000 OA
ATOM     10  H   UNL     1       3.968   6.666  20.112  0.00  0.00    +0.000 HD
BRANCH   8  11
ATOM     11  C   UNL     1       4.014   4.268  19.401  0.00  0.00    +0.000 C 
BRANCH  11  12
ATOM     12  S   UNL     1       5.660   5.002  19.119  0.00  0.00    +0.000 S 
BRANCH  12  13
ATOM     13  C   UNL     1       5.948   4.742  17.384  0.00  0.00    +0.000 A 
ATOM     14  C   UNL     1       7.012   5.264  16.648  0.00  0.00    +0.000 A 
ATOM     15  C   UNL     1       7.137   4.982  15.282  0.00  0.00    +0.000 A 
ATOM     16  C   UNL     1       6.202   4.167  14.633  0.00  0.00    +0.000 A 
ATOM     17  C   UNL     1       6.334   3.832  13.181  0.00  0.00    +0.000 C 
ATOM     18  C   UNL     1       5.132   3.651  15.369  0.00  0.00    +0.000 A 
ATOM     19  C   UNL     1       5.008   3.937  16.726  0.00  0.00    +0.000 A 
ENDBRANCH  12  13
ENDBRANCH  11  12
ENDBRANCH   8  11
ENDBRANCH   4   7
BRANCH   1  20
ATOM     20  S   UNL     1      -0.289  11.429  19.596  0.00  0.00    +0.000 S 
ATOM     21  O   UNL     1       0.046  12.203  18.417  0.00  0.00    +0.000 OA
ATOM     22  O   UNL     1      -0.035  11.953  20.922  0.00  0.00    +0.000 OA
BRANCH  20  23
ATOM     23  N   UNL     1      -1.924  11.014  19.551  0.00  0.00    +0.000 N 
ATOM     24  H   UNL     1      -2.178  10.293  20.224  0.00  0.00    +0.000 HD
BRANCH  23  30
ATOM     25  C   UNL     1      -3.825  11.632  18.105  0.00  0.00    +0.000 A 
ATOM     26  C   UNL     1      -4.481  11.463  16.868  0.00  0.00    +0.000 A 
ATOM     27  C   UNL     1      -3.863  10.790  15.814  0.00  0.00    +0.000 A 
ATOM     28  C   UNL     1      -2.596  10.241  15.992  0.00  0.00    +0.000 A 
ATOM     29  C   UNL     1      -1.979  10.322  17.230  0.00  0.00    +0.000 A 
ATOM     30  C   UNL     1      -2.593  11.002  18.293  0.00  0.00    +0.000 A 
BRANCH  25  32
ATOM     31  C   UNL     1      -5.725  12.126  19.424  0.00  0.00    +0.000 C 
ATOM     32  O   UNL     1      -4.352  12.391  19.119  0.00  0.00    +0.000 OA
ENDBRANCH  25  32
ENDBRANCH  23  30
ENDBRANCH  20  23
ENDBRANCH   1  20
TORSDOF 8
ENDMDL
MODEL 6
REMARK VINA RESULT:      -7.7      2.102      9.132
REMARK  Name = 
REMARK  10 active torsions:
REMARK  status: ('A' for Active; 'I' for Inactive)
REMARK    1  A    between atoms: C_1  and  O_2
REMARK    2  A    between atoms: O_2  and  C_3
REMARK    3  A    between atoms: C_8  and  N_9
REMARK    4  A    between atoms: N_9  and  S_10
REMARK    5  A    between atoms: S_10  and  C_13
REMARK    6  A    between atoms: C_16  and  N_17
REMARK    7  A    between atoms: C_18  and  C_20
REMARK    8  A    between atoms: C_20  and  S_21
REMARK    9  A    between atoms: S_21  and  C_22
REMARK   10  A    between atoms: C_25  and  C_26
REMARK                            x       y       z     vdW  Elec       q    Type
REMARK                         _______ _______ _______ _____ _____    ______ ____
ROOT
ATOM      1  C   UNL     1       2.863   4.569  19.168  0.00  0.00    +0.000 A 
ATOM      2  C   UNL     1       2.704   5.176  20.409  0.00  0.00    +0.000 A 
ATOM      3  C   UNL     1       2.320   6.518  20.478  0.00  0.00    +0.000 A 
ATOM      4  C   UNL     1       2.086   7.251  19.308  0.00  0.00    +0.000 A 
ATOM      5  C   UNL     1       2.191   6.612  18.065  0.00  0.00    +0.000 A 
ATOM      6  C   UNL     1       2.595   5.280  17.992  0.00  0.00    +0.000 A 
ENDROOT
BRANCH   4   7
ATOM      7  N   UNL     1       1.763   8.616  19.312  0.00  0.00    +0.000 N 
ATOM      8  C   UNL     1       0.885   9.265  20.165  0.00  0.00    +0.000 C 
ATOM      9  O   UNL     1       0.340   8.766  21.144  0.00  0.00    +0.000 OA
ATOM     10  H   UNL     1       2.247   9.205  18.641  0.00  0.00    +0.000 HD
BRANCH   8  11
ATOM     11  C   UNL     1       0.719  10.753  19.877  0.00  0.00    +0.000 C 
BRANCH  11  12
ATOM     12  S   UNL     1      -0.969  11.318  20.277  0.00  0.00    +0.000 S 
BRANCH  12  13
ATOM     13  C   UNL     1      -1.872  11.059  18.767  0.00  0.00    +0.000 A 
ATOM     14  C   UNL     1      -3.081  11.664  18.428  0.00  0.00    +0.000 A 
ATOM     15  C   UNL     1      -3.697  11.385  17.201  0.00  0.00    +0.000 A 
ATOM     16  C   UNL     1      -3.106  10.499  16.292  0.00  0.00    +0.000 A 
ATOM     17  C   UNL     1      -3.733  10.209  14.965  0.00  0.00    +0.000 C 
ATOM     18  C   UNL     1      -1.897   9.887  16.636  0.00  0.00    +0.000 A 
ATOM     19  C   UNL     1      -1.291  10.163  17.858  0.00  0.00    +0.000 A 
ENDBRANCH  12  13
ENDBRANCH  11  12
ENDBRANCH   8  11
ENDBRANCH   4   7
BRANCH   1  20
ATOM     20  S   UNL     1       3.580   2.948  19.029  0.00  0.00    +0.000 S 
ATOM     21  O   UNL     1       2.935   2.265  17.926  0.00  0.00    +0.000 OA
ATOM     22  O   UNL     1       3.564   2.382  20.363  0.00  0.00    +0.000 OA
BRANCH  20  23
ATOM     23  N   UNL     1       5.201   3.225  18.647  0.00  0.00    +0.000 N 
ATOM     24  H   UNL     1       5.815   3.225  19.460  0.00  0.00    +0.000 HD
BRANCH  23  30
ATOM     25  C   UNL     1       6.058   5.391  17.834  0.00  0.00    +0.000 A 
ATOM     26  C   UNL     1       6.213   6.275  16.747  0.00  0.00    +0.000 A 
ATOM     27  C   UNL     1       5.947   5.859  15.442  0.00  0.00    +0.000 A 
ATOM     28  C   UNL     1       5.483   4.568  15.207  0.00  0.00    +0.000 A 
ATOM     29  C   UNL     1       5.240   3.720  16.276  0.00  0.00    +0.000 A 
ATOM     30  C   UNL     1       5.511   4.129  17.591  0.00  0.00    +0.000 A 
BRANCH  25  32
ATOM     31  C   UNL     1       7.833   5.674  19.372  0.00  0.00    +0.000 C 
ATOM     32  O   UNL     1       6.426   5.727  19.113  0.00  0.00    +0.000 OA
ENDBRANCH  25  32
ENDBRANCH  23  30
ENDBRANCH  20  23
ENDBRANCH   1  20
TORSDOF 8
ENDMDL
MODEL 7
REMARK VINA RESULT:      -7.7      2.734      3.582
REMARK  Name = 
REMARK  10 active torsions:
REMARK  status: ('A' for Active; 'I' for Inactive)
REMARK    1  A    between atoms: C_1  and  O_2
REMARK    2  A    between atoms: O_2  and  C_3
REMARK    3  A    between atoms: C_8  and  N_9
REMARK    4  A    between atoms: N_9  and  S_10
REMARK    5  A    between atoms: S_10  and  C_13
REMARK    6  A    between atoms: C_16  and  N_17
REMARK    7  A    between atoms: C_18  and  C_20
REMARK    8  A    between atoms: C_20  and  S_21
REMARK    9  A    between atoms: S_21  and  C_22
REMARK   10  A    between atoms: C_25  and  C_26
REMARK                            x       y       z     vdW  Elec       q    Type
REMARK                         _______ _______ _______ _____ _____    ______ ____
ROOT
ATOM      1  C   UNL     1       0.842   9.759  19.850  0.00  0.00    +0.000 A 
ATOM      2  C   UNL     1       1.492   9.385  18.679  0.00  0.00    +0.000 A 
ATOM      3  C   UNL     1       2.175   8.166  18.626  0.00  0.00    +0.000 A 
ATOM      4  C   UNL     1       2.201   7.318  19.740  0.00  0.00    +0.000 A 
ATOM      5  C   UNL     1       1.492   7.677  20.893  0.00  0.00    +0.000 A 
ATOM      6  C   UNL     1       0.828   8.902  20.957  0.00  0.00    +0.000 A 
ENDROOT
BRANCH   4   7
ATOM      7  N   UNL     1       2.922   6.116  19.768  0.00  0.00    +0.000 N 
ATOM      8  C   UNL     1       2.576   4.917  19.166  0.00  0.00    +0.000 C 
ATOM      9  O   UNL     1       1.634   4.749  18.398  0.00  0.00    +0.000 OA
ATOM     10  H   UNL     1       3.814   6.126  20.253  0.00  0.00    +0.000 HD
BRANCH   8  11
ATOM     11  C   UNL     1       3.557   3.779  19.426  0.00  0.00    +0.000 C 
BRANCH  11  12
ATOM     12  S   UNL     1       4.638   3.497  17.985  0.00  0.00    +0.000 S 
BRANCH  12  13
ATOM     13  C   UNL     1       5.719   4.909  17.983  0.00  0.00    +0.000 A 
ATOM     14  C   UNL     1       6.877   5.049  18.748  0.00  0.00    +0.000 A 
ATOM     15  C   UNL     1       7.653   6.211  18.656  0.00  0.00    +0.000 A 
ATOM     16  C   UNL     1       7.286   7.248  17.790  0.00  0.00    +0.000 A 
ATOM     17  C   UNL     1       8.117   8.485  17.657  0.00  0.00    +0.000 C 
ATOM     18  C   UNL     1       6.121   7.110  17.030  0.00  0.00    +0.000 A 
ATOM     19  C   UNL     1       5.348   5.956  17.128  0.00  0.00    +0.000 A 
ENDBRANCH  12  13
ENDBRANCH  11  12
ENDBRANCH   8  11
ENDBRANCH   4   7
BRANCH   1  20
ATOM     20  S   UNL     1       0.173  11.395  20.041  0.00  0.00    +0.000 S 
ATOM     21  O   UNL     1       0.909  12.059  21.098  0.00  0.00    +0.000 OA
ATOM     22  O   UNL     1      -1.265  11.238  20.125  0.00  0.00    +0.000 OA
BRANCH  20  23
ATOM     23  N   UNL     1       0.485  12.163  18.571  0.00  0.00    +0.000 N 
ATOM     24  H   UNL     1       0.556  11.520  17.784  0.00  0.00    +0.000 HD
BRANCH  23  30
ATOM     25  C   UNL     1       0.843  14.595  18.784  0.00  0.00    +0.000 A 
ATOM     26  C   UNL     1       1.725  15.684  18.630  0.00  0.00    +0.000 A 
ATOM     27  C   UNL     1       3.082  15.478  18.386  0.00  0.00    +0.000 A 
ATOM     28  C   UNL     1       3.573  14.182  18.252  0.00  0.00    +0.000 A 
ATOM     29  C   UNL     1       2.701  13.106  18.311  0.00  0.00    +0.000 A 
ATOM     30  C   UNL     1       1.335  13.306  18.562  0.00  0.00    +0.000 A 
BRANCH  25  32
ATOM     31  C   UNL     1      -0.702  15.733  20.167  0.00  0.00    +0.000 C 
ATOM     32  O   UNL     1      -0.472  14.758  19.145  0.00  0.00    +0.000 OA
ENDBRANCH  25  32
ENDBRANCH  23  30
ENDBRANCH  20  23
ENDBRANCH   1  20
TORSDOF 8
ENDMDL
MODEL 8
REMARK VINA RESULT:      -7.7      2.779      9.711
REMARK  Name = 
REMARK  10 active torsions:
REMARK  status: ('A' for Active; 'I' for Inactive)
REMARK    1  A    between atoms: C_1  and  O_2
REMARK    2  A    between atoms: O_2  and  C_3
REMARK    3  A    between atoms: C_8  and  N_9
REMARK    4  A    between atoms: N_9  and  S_10
REMARK    5  A    between atoms: S_10  and  C_13
REMARK    6  A    between atoms: C_16  and  N_17
REMARK    7  A    between atoms: C_18  and  C_20
REMARK    8  A    between atoms: C_20  and  S_21
REMARK    9  A    between atoms: S_21  and  C_22
REMARK   10  A    between atoms: C_25  and  C_26
REMARK                            x       y       z     vdW  Elec       q    Type
REMARK                         _______ _______ _______ _____ _____    ______ ____
ROOT
ATOM      1  C   UNL     1       2.683   5.028  18.728  0.00  0.00    +0.000 A 
ATOM      2  C   UNL     1       2.827   6.060  17.807  0.00  0.00    +0.000 A 
ATOM      3  C   UNL     1       2.507   7.369  18.180  0.00  0.00    +0.000 A 
ATOM      4  C   UNL     1       2.053   7.647  19.475  0.00  0.00    +0.000 A 
ATOM      5  C   UNL     1       1.970   6.609  20.412  0.00  0.00    +0.000 A 
ATOM      6  C   UNL     1       2.266   5.299  20.036  0.00  0.00    +0.000 A 
ENDROOT
BRANCH   4   7
ATOM      7  N   UNL     1       1.656   8.928  19.887  0.00  0.00    +0.000 N 
ATOM      8  C   UNL     1       1.011   9.889  19.126  0.00  0.00    +0.000 C 
ATOM      9  O   UNL     1       0.567   9.725  17.994  0.00  0.00    +0.000 OA
ATOM     10  H   UNL     1       1.827   9.173  20.857  0.00  0.00    +0.000 HD
BRANCH   8  11
ATOM     11  C   UNL     1       0.759  11.202  19.858  0.00  0.00    +0.000 C 
BRANCH  11  12
ATOM     12  S   UNL     1      -0.851  11.921  19.390  0.00  0.00    +0.000 S 
BRANCH  12  13
ATOM     13  C   UNL     1      -1.728  12.038  20.932  0.00  0.00    +0.000 A 
ATOM     14  C   UNL     1      -1.277  11.560  22.163  0.00  0.00    +0.000 A 
ATOM     15  C   UNL     1      -2.058  11.717  23.315  0.00  0.00    +0.000 A 
ATOM     16  C   UNL     1      -3.299  12.363  23.254  0.00  0.00    +0.000 A 
ATOM     17  C   UNL     1      -4.135  12.566  24.478  0.00  0.00    +0.000 C 
ATOM     18  C   UNL     1      -3.753  12.835  22.018  0.00  0.00    +0.000 A 
ATOM     19  C   UNL     1      -2.977  12.672  20.874  0.00  0.00    +0.000 A 
ENDBRANCH  12  13
ENDBRANCH  11  12
ENDBRANCH   8  11
ENDBRANCH   4   7
BRANCH   1  20
ATOM     20  S   UNL     1       2.842   3.329  18.228  0.00  0.00    +0.000 S 
ATOM     21  O   UNL     1       2.392   3.222  16.854  0.00  0.00    +0.000 OA
ATOM     22  O   UNL     1       2.225   2.539  19.274  0.00  0.00    +0.000 OA
BRANCH  20  23
ATOM     23  N   UNL     1       4.498   3.011  18.303  0.00  0.00    +0.000 N 
ATOM     24  H   UNL     1       4.746   2.314  19.003  0.00  0.00    +0.000 HD
BRANCH  23  30
ATOM     25  C   UNL     1       5.857   4.439  16.819  0.00  0.00    +0.000 A 
ATOM     26  C   UNL     1       6.858   5.425  16.710  0.00  0.00    +0.000 A 
ATOM     27  C   UNL     1       7.305   6.121  17.833  0.00  0.00    +0.000 A 
ATOM     28  C   UNL     1       6.788   5.814  19.089  0.00  0.00    +0.000 A 
ATOM     29  C   UNL     1       5.869   4.784  19.221  0.00  0.00    +0.000 A 
ATOM     30  C   UNL     1       5.412   4.084  18.094  0.00  0.00    +0.000 A 
BRANCH  25  32
ATOM     31  C   UNL     1       5.739   4.340  14.459  0.00  0.00    +0.000 C 
ATOM     32  O   UNL     1       5.308   3.823  15.721  0.00  0.00    +0.000 OA
ENDBRANCH  25  32
ENDBRANCH  23  30
ENDBRANCH  20  23
ENDBRANCH   1  20
TORSDOF 8
ENDMDL
MODEL 9
REMARK VINA RESULT:      -7.7      3.086      4.063
REMARK  Name = 
REMARK  10 active torsions:
REMARK  status: ('A' for Active; 'I' for Inactive)
REMARK    1  A    between atoms: C_1  and  O_2
REMARK    2  A    between atoms: O_2  and  C_3
REMARK    3  A    between atoms: C_8  and  N_9
REMARK    4  A    between atoms: N_9  and  S_10
REMARK    5  A    between atoms: S_10  and  C_13
REMARK    6  A    between atoms: C_16  and  N_17
REMARK    7  A    between atoms: C_18  and  C_20
REMARK    8  A    between atoms: C_20  and  S_21
REMARK    9  A    between atoms: S_21  and  C_22
REMARK   10  A    between atoms: C_25  and  C_26
REMARK                            x       y       z     vdW  Elec       q    Type
REMARK                         _______ _______ _______ _____ _____    ______ ____
ROOT
ATOM      1  C   UNL     1       0.839   9.733  19.453  0.00  0.00    +0.000 A 
ATOM      2  C   UNL     1       1.384   9.389  18.220  0.00  0.00    +0.000 A 
ATOM      3  C   UNL     1       2.154   8.227  18.105  0.00  0.00    +0.000 A 
ATOM      4  C   UNL     1       2.372   7.407  19.219  0.00  0.00    +0.000 A 
ATOM      5  C   UNL     1       1.769   7.732  20.440  0.00  0.00    +0.000 A 
ATOM      6  C   UNL     1       1.019   8.901  20.564  0.00  0.00    +0.000 A 
ENDROOT
BRANCH   4   7
ATOM      7  N   UNL     1       3.189   6.267  19.179  0.00  0.00    +0.000 N 
ATOM      8  C   UNL     1       2.780   4.943  19.212  0.00  0.00    +0.000 C 
ATOM      9  O   UNL     1       1.619   4.553  19.152  0.00  0.00    +0.000 OA
ATOM     10  H   UNL     1       4.188   6.420  19.084  0.00  0.00    +0.000 HD
BRANCH   8  11
ATOM     11  C   UNL     1       3.924   3.935  19.201  0.00  0.00    +0.000 C 
BRANCH  11  12
ATOM     12  S   UNL     1       5.535   4.766  19.009  0.00  0.00    +0.000 S 
BRANCH  12  13
ATOM     13  C   UNL     1       5.902   4.586  17.278  0.00  0.00    +0.000 A 
ATOM     14  C   UNL     1       7.087   4.974  16.653  0.00  0.00    +0.000 A 
ATOM     15  C   UNL     1       7.263   4.774  15.278  0.00  0.00    +0.000 A 
ATOM     16  C   UNL     1       6.257   4.176  14.509  0.00  0.00    +0.000 A 
ATOM     17  C   UNL     1       6.437   3.929  13.045  0.00  0.00    +0.000 C 
ATOM     18  C   UNL     1       5.066   3.796  15.136  0.00  0.00    +0.000 A 
ATOM     19  C   UNL     1       4.893   4.000  16.502  0.00  0.00    +0.000 A 
ENDBRANCH  12  13
ENDBRANCH  11  12
ENDBRANCH   8  11
ENDBRANCH   4   7
BRANCH   1  20
ATOM     20  S   UNL     1       0.064  11.314  19.699  0.00  0.00    +0.000 S 
ATOM     21  O   UNL     1       0.679  11.939  20.853  0.00  0.00    +0.000 OA
ATOM     22  O   UNL     1      -1.364  11.076  19.658  0.00  0.00    +0.000 OA
BRANCH  20  23
ATOM     23  N   UNL     1       0.442  12.200  18.313  0.00  0.00    +0.000 N 
ATOM     24  H   UNL     1       0.531  11.626  17.476  0.00  0.00    +0.000 HD
BRANCH  23  30
ATOM     25  C   UNL     1       0.826  14.605  18.708  0.00  0.00    +0.000 A 
ATOM     26  C   UNL     1       1.734  15.683  18.682  0.00  0.00    +0.000 A 
ATOM     27  C   UNL     1       3.101  15.465  18.512  0.00  0.00    +0.000 A 
ATOM     28  C   UNL     1       3.578  14.170  18.324  0.00  0.00    +0.000 A 
ATOM     29  C   UNL     1       2.685  13.112  18.257  0.00  0.00    +0.000 A 
ATOM     30  C   UNL     1       1.309  13.324  18.433  0.00  0.00    +0.000 A 
BRANCH  25  32
ATOM     31  C   UNL     1      -0.816  15.927  19.782  0.00  0.00    +0.000 C 
ATOM     32  O   UNL     1      -0.506  14.772  18.995  0.00  0.00    +0.000 OA
ENDBRANCH  25  32
ENDBRANCH  23  30
ENDBRANCH  20  23
ENDBRANCH   1  20
TORSDOF 8
ENDMDL
