MODEL 1
REMARK VINA RESULT:      -7.9      0.000      0.000
REMARK  Name = 
REMARK  9 active torsions:
REMARK  status: ('A' for Active; 'I' for Inactive)
REMARK    1  A    between atoms: C_1  and  C_2
REMARK    2  A    between atoms: C_2  and  C_3
REMARK    3  A    between atoms: C_4  and  C_5
REMARK    4  A    between atoms: C_5  and  C_7
REMARK    5  A    between atoms: N_9  and  C_10
REMARK    6  A    between atoms: C_10  and  C_11
REMARK    7  A    between atoms: C_19  and  O_20
REMARK    8  A    between atoms: C_24  and  C_25
REMARK    9  A    between atoms: C_24  and  C_26
REMARK                            x       y       z     vdW  Elec       q    Type
REMARK                         _______ _______ _______ _____ _____    ______ ____
ROOT
ATOM      1  C   UNL     1       1.597   8.783  18.721  0.00  0.00    +0.000 A 
ATOM      2  C   UNL     1       0.894   9.650  17.913  0.00  0.00    +0.000 A 
ATOM      3  N   UNL     1      -0.002  10.345  18.667  0.00  0.00    +0.000 N 
ATOM      4  C   UNL     1       0.146  10.003  19.997  0.00  0.00    +0.000 A 
ATOM      5  C   UNL     1      -0.504  10.490  21.143  0.00  0.00    +0.000 A 
ATOM      6  C   UNL     1      -0.121   9.968  22.377  0.00  0.00    +0.000 A 
ATOM      7  C   UNL     1       0.867   9.001  22.482  0.00  0.00    +0.000 A 
ATOM      8  C   UNL     1       1.511   8.523  21.336  0.00  0.00    +0.000 A 
ATOM      9  C   UNL     1       1.148   9.019  20.062  0.00  0.00    +0.000 A 
ENDROOT
BRANCH   1  10
ATOM     10  C   UNL     1       2.601   7.887  18.156  0.00  0.00    +0.000 C 
ATOM     11  O   UNL     1       2.972   8.015  16.995  0.00  0.00    +0.000 OA
BRANCH  10  15
ATOM     12  C   UNL     1       4.390   5.612  17.051  0.00  0.00    +0.000 C 
ATOM     13  C   UNL     1       3.978   5.639  18.510  0.00  0.00    +0.000 C 
ATOM     14  C   UNL     1       5.086   5.146  19.414  0.00  0.00    +0.000 C 
ATOM     15  C   UNL     1       3.078   6.762  19.020  0.00  0.00    +0.000 C 
ATOM     16  C   UNL     1       2.516   5.342  18.904  0.00  0.00    +0.000 C 
ATOM     17  C   UNL     1       1.518   4.961  17.829  0.00  0.00    +0.000 C 
ATOM     18  C   UNL     1       2.185   4.653  20.215  0.00  0.00    +0.000 C 
ENDBRANCH  10  15
ENDBRANCH   1  10
BRANCH   6  19
ATOM     19  O   UNL     1      -0.702  10.405  23.532  0.00  0.00    +0.000 OA
ATOM     20  H   UNL     1      -1.596  10.726  23.327  0.00  0.00    +0.000 HD
ENDBRANCH   6  19
BRANCH   3  21
ATOM     21  C   UNL     1      -0.896  11.355  18.129  0.00  0.00    +0.000 C 
BRANCH  21  22
ATOM     22  C   UNL     1      -2.316  10.836  17.796  0.00  0.00    +0.000 C 
ATOM     23  C   UNL     1      -2.576  10.854  16.278  0.00  0.00    +0.000 C 
ATOM     24  C   UNL     1      -4.050  10.873  15.906  0.00  0.00    +0.000 C 
ATOM     25  O   UNL     1      -4.734  11.889  16.630  0.00  0.00    +0.000 OA
ATOM     26  C   UNL     1      -4.754  11.597  18.022  0.00  0.00    +0.000 C 
ATOM     27  C   UNL     1      -3.349  11.652  18.598  0.00  0.00    +0.000 C 
ENDBRANCH  21  22
ENDBRANCH   3  21
TORSDOF 5
ENDMDL
MODEL 2
REMARK VINA RESULT:      -7.8      0.774      1.609
REMARK  Name = 
REMARK  9 active torsions:
REMARK  status: ('A' for Active; 'I' for Inactive)
REMARK    1  A    between atoms: C_1  and  C_2
REMARK    2  A    between atoms: C_2  and  C_3
REMARK    3  A    between atoms: C_4  and  C_5
REMARK    4  A    between atoms: C_5  and  C_7
REMARK    5  A    between atoms: N_9  and  C_10
REMARK    6  A    between atoms: C_10  and  C_11
REMARK    7  A    between atoms: C_19  and  O_20
REMARK    8  A    between atoms: C_24  and  C_25
REMARK    9  A    between atoms: C_24  and  C_26
REMARK                            x       y       z     vdW  Elec       q    Type
REMARK                         _______ _______ _______ _____ _____    ______ ____
ROOT
ATOM      1  C   UNL     1       1.684   8.278  18.746  0.00  0.00    +0.000 A 
ATOM      2  C   UNL     1       1.047   9.106  17.847  0.00  0.00    +0.000 A 
ATOM      3  N   UNL     1       0.226   9.957  18.519  0.00  0.00    +0.000 N 
ATOM      4  C   UNL     1       0.363   9.758  19.879  0.00  0.00    +0.000 A 
ATOM      5  C   UNL     1      -0.228  10.428  20.965  0.00  0.00    +0.000 A 
ATOM      6  C   UNL     1       0.127  10.019  22.249  0.00  0.00    +0.000 A 
ATOM      7  C   UNL     1       1.029   8.988  22.460  0.00  0.00    +0.000 A 
ATOM      8  C   UNL     1       1.612   8.327  21.375  0.00  0.00    +0.000 A 
ATOM      9  C   UNL     1       1.277   8.704  20.053  0.00  0.00    +0.000 A 
ENDROOT
BRANCH   1  10
ATOM     10  C   UNL     1       2.600   7.239  18.285  0.00  0.00    +0.000 C 
ATOM     11  O   UNL     1       3.727   7.526  17.897  0.00  0.00    +0.000 OA
BRANCH  10  15
ATOM     12  C   UNL     1       2.846   5.274  20.666  0.00  0.00    +0.000 C 
ATOM     13  C   UNL     1       2.157   4.857  19.382  0.00  0.00    +0.000 C 
ATOM     14  C   UNL     1       0.968   3.961  19.649  0.00  0.00    +0.000 C 
ATOM     15  C   UNL     1       2.071   5.842  18.217  0.00  0.00    +0.000 C 
ATOM     16  C   UNL     1       2.988   4.620  18.103  0.00  0.00    +0.000 C 
ATOM     17  C   UNL     1       4.497   4.744  18.162  0.00  0.00    +0.000 C 
ATOM     18  C   UNL     1       2.573   3.575  17.084  0.00  0.00    +0.000 C 
ENDBRANCH  10  15
ENDBRANCH   1  10
BRANCH   6  19
ATOM     19  O   UNL     1      -0.399  10.634  23.348  0.00  0.00    +0.000 OA
ATOM     20  H   UNL     1       0.290  10.689  24.031  0.00  0.00    +0.000 HD
ENDBRANCH   6  19
BRANCH   3  21
ATOM     21  C   UNL     1      -0.585  10.974  17.872  0.00  0.00    +0.000 C 
BRANCH  21  22
ATOM     22  C   UNL     1      -2.066  10.572  17.668  0.00  0.00    +0.000 C 
ATOM     23  C   UNL     1      -2.432  10.527  16.173  0.00  0.00    +0.000 C 
ATOM     24  C   UNL     1      -3.921  10.662  15.899  0.00  0.00    +0.000 C 
ATOM     25  O   UNL     1      -4.458  11.778  16.601  0.00  0.00    +0.000 OA
ATOM     26  C   UNL     1      -4.404  11.570  18.007  0.00  0.00    +0.000 C 
ATOM     27  C   UNL     1      -2.961  11.526  18.483  0.00  0.00    +0.000 C 
ENDBRANCH  21  22
ENDBRANCH   3  21
TORSDOF 5
ENDMDL
MODEL 3
REMARK VINA RESULT:      -7.5      6.100      8.736
REMARK  Name = 
REMARK  9 active torsions:
REMARK  status: ('A' for Active; 'I' for Inactive)
REMARK    1  A    between atoms: C_1  and  C_2
REMARK    2  A    between atoms: C_2  and  C_3
REMARK    3  A    between atoms: C_4  and  C_5
REMARK    4  A    between atoms: C_5  and  C_7
REMARK    5  A    between atoms: N_9  and  C_10
REMARK    6  A    between atoms: C_10  and  C_11
REMARK    7  A    between atoms: C_19  and  O_20
REMARK    8  A    between atoms: C_24  and  C_25
REMARK    9  A    between atoms: C_24  and  C_26
REMARK                            x       y       z     vdW  Elec       q    Type
REMARK                         _______ _______ _______ _____ _____    ______ ____
ROOT
ATOM      1  C   UNL     1       4.688   3.763  17.903  0.00  0.00    +0.000 A 
ATOM      2  C   UNL     1       4.616   3.899  16.533  0.00  0.00    +0.000 A 
ATOM      3  N   UNL     1       5.457   4.892  16.133  0.00  0.00    +0.000 N 
ATOM      4  C   UNL     1       6.155   5.377  17.221  0.00  0.00    +0.000 A 
ATOM      5  C   UNL     1       7.163   6.353  17.299  0.00  0.00    +0.000 A 
ATOM      6  C   UNL     1       7.711   6.620  18.552  0.00  0.00    +0.000 A 
ATOM      7  C   UNL     1       7.284   5.952  19.690  0.00  0.00    +0.000 A 
ATOM      8  C   UNL     1       6.281   4.982  19.604  0.00  0.00    +0.000 A 
ATOM      9  C   UNL     1       5.690   4.683  18.353  0.00  0.00    +0.000 A 
ENDROOT
BRANCH   1  10
ATOM     10  C   UNL     1       3.856   2.787  18.600  0.00  0.00    +0.000 C 
ATOM     11  O   UNL     1       3.739   1.645  18.171  0.00  0.00    +0.000 OA
BRANCH  10  15
ATOM     12  C   UNL     1       0.830   2.218  18.940  0.00  0.00    +0.000 C 
ATOM     13  C   UNL     1       1.601   2.986  19.996  0.00  0.00    +0.000 C 
ATOM     14  C   UNL     1       1.126   2.649  21.392  0.00  0.00    +0.000 C 
ATOM     15  C   UNL     1       3.087   3.269  19.789  0.00  0.00    +0.000 C 
ATOM     16  C   UNL     1       2.083   4.423  19.707  0.00  0.00    +0.000 C 
ATOM     17  C   UNL     1       1.722   5.078  18.389  0.00  0.00    +0.000 C 
ATOM     18  C   UNL     1       2.171   5.455  20.815  0.00  0.00    +0.000 C 
ENDBRANCH  10  15
ENDBRANCH   1  10
BRANCH   6  19
ATOM     19  O   UNL     1       8.703   7.546  18.699  0.00  0.00    +0.000 OA
ATOM     20  H   UNL     1       8.580   8.000  19.549  0.00  0.00    +0.000 HD
ENDBRANCH   6  19
BRANCH   3  21
ATOM     21  C   UNL     1       5.635   5.287  14.746  0.00  0.00    +0.000 C 
BRANCH  21  22
ATOM     22  C   UNL     1       6.172   4.163  13.828  0.00  0.00    +0.000 C 
ATOM     23  C   UNL     1       7.286   4.683  12.900  0.00  0.00    +0.000 C 
ATOM     24  C   UNL     1       7.494   3.838  11.654  0.00  0.00    +0.000 C 
ATOM     25  O   UNL     1       6.253   3.597  11.002  0.00  0.00    +0.000 OA
ATOM     26  C   UNL     1       5.404   2.787  11.805  0.00  0.00    +0.000 C 
ATOM     27  C   UNL     1       4.992   3.532  13.064  0.00  0.00    +0.000 C 
ENDBRANCH  21  22
ENDBRANCH   3  21
TORSDOF 5
ENDMDL
MODEL 4
REMARK VINA RESULT:      -7.3      0.774      1.196
REMARK  Name = 
REMARK  9 active torsions:
REMARK  status: ('A' for Active; 'I' for Inactive)
REMARK    1  A    between atoms: C_1  and  C_2
REMARK    2  A    between atoms: C_2  and  C_3
REMARK    3  A    between atoms: C_4  and  C_5
REMARK    4  A    between atoms: C_5  and  C_7
REMARK    5  A    between atoms: N_9  and  C_10
REMARK    6  A    between atoms: C_10  and  C_11
REMARK    7  A    between atoms: C_19  and  O_20
REMARK    8  A    between atoms: C_24  and  C_25
REMARK    9  A    between atoms: C_24  and  C_26
REMARK                            x       y       z     vdW  Elec       q    Type
REMARK                         _______ _______ _______ _____ _____    ______ ____
ROOT
ATOM      1  C   UNL     1       1.685   8.873  18.732  0.00  0.00    +0.000 A 
ATOM      2  C   UNL     1       1.244   9.977  18.035  0.00  0.00    +0.000 A 
ATOM      3  N   UNL     1       0.360  10.673  18.802  0.00  0.00    +0.000 N 
ATOM      4  C   UNL     1       0.259  10.082  20.046  0.00  0.00    +0.000 A 
ATOM      5  C   UNL     1      -0.474  10.464  21.183  0.00  0.00    +0.000 A 
ATOM      6  C   UNL     1      -0.357   9.674  22.325  0.00  0.00    +0.000 A 
ATOM      7  C   UNL     1       0.451   8.548  22.351  0.00  0.00    +0.000 A 
ATOM      8  C   UNL     1       1.178   8.175  21.217  0.00  0.00    +0.000 A 
ATOM      9  C   UNL     1       1.084   8.943  20.032  0.00  0.00    +0.000 A 
ENDROOT
BRANCH   1  10
ATOM     10  C   UNL     1       2.618   7.931  18.123  0.00  0.00    +0.000 C 
ATOM     11  O   UNL     1       2.909   8.017  16.935  0.00  0.00    +0.000 OA
BRANCH  10  15
ATOM     12  C   UNL     1       4.402   5.664  16.990  0.00  0.00    +0.000 C 
ATOM     13  C   UNL     1       4.019   5.694  18.457  0.00  0.00    +0.000 C 
ATOM     14  C   UNL     1       5.149   5.213  19.341  0.00  0.00    +0.000 C 
ATOM     15  C   UNL     1       3.121   6.813  18.981  0.00  0.00    +0.000 C 
ATOM     16  C   UNL     1       2.567   5.389  18.882  0.00  0.00    +0.000 C 
ATOM     17  C   UNL     1       1.551   4.995  17.829  0.00  0.00    +0.000 C 
ATOM     18  C   UNL     1       2.268   4.703  20.202  0.00  0.00    +0.000 C 
ENDBRANCH  10  15
ENDBRANCH   1  10
BRANCH   6  19
ATOM     19  O   UNL     1      -1.031   9.994  23.468  0.00  0.00    +0.000 OA
ATOM     20  H   UNL     1      -1.899  10.357  23.225  0.00  0.00    +0.000 HD
ENDBRANCH   6  19
BRANCH   3  21
ATOM     21  C   UNL     1      -0.286  11.901  18.374  0.00  0.00    +0.000 C 
BRANCH  21  22
ATOM     22  C   UNL     1      -1.665  11.694  17.704  0.00  0.00    +0.000 C 
ATOM     23  C   UNL     1      -2.815  11.980  18.689  0.00  0.00    +0.000 C 
ATOM     24  C   UNL     1      -4.130  11.320  18.308  0.00  0.00    +0.000 C 
ATOM     25  O   UNL     1      -3.932   9.940  18.022  0.00  0.00    +0.000 OA
ATOM     26  C   UNL     1      -3.135   9.770  16.857  0.00  0.00    +0.000 C 
ATOM     27  C   UNL     1      -1.722  10.277  17.100  0.00  0.00    +0.000 C 
ENDBRANCH  21  22
ENDBRANCH   3  21
TORSDOF 5
ENDMDL
MODEL 5
REMARK VINA RESULT:      -7.3      2.944      7.911
REMARK  Name = 
REMARK  9 active torsions:
REMARK  status: ('A' for Active; 'I' for Inactive)
REMARK    1  A    between atoms: C_1  and  C_2
REMARK    2  A    between atoms: C_2  and  C_3
REMARK    3  A    between atoms: C_4  and  C_5
REMARK    4  A    between atoms: C_5  and  C_7
REMARK    5  A    between atoms: N_9  and  C_10
REMARK    6  A    between atoms: C_10  and  C_11
REMARK    7  A    between atoms: C_19  and  O_20
REMARK    8  A    between atoms: C_24  and  C_25
REMARK    9  A    between atoms: C_24  and  C_26
REMARK                            x       y       z     vdW  Elec       q    Type
REMARK                         _______ _______ _______ _____ _____    ______ ____
ROOT
ATOM      1  C   UNL     1       2.001   7.292  19.774  0.00  0.00    +0.000 A 
ATOM      2  C   UNL     1       2.834   7.578  18.714  0.00  0.00    +0.000 A 
ATOM      3  N   UNL     1       3.243   6.416  18.134  0.00  0.00    +0.000 N 
ATOM      4  C   UNL     1       2.628   5.346  18.754  0.00  0.00    +0.000 A 
ATOM      5  C   UNL     1       2.690   3.970  18.474  0.00  0.00    +0.000 A 
ATOM      6  C   UNL     1       1.926   3.114  19.265  0.00  0.00    +0.000 A 
ATOM      7  C   UNL     1       1.130   3.590  20.294  0.00  0.00    +0.000 A 
ATOM      8  C   UNL     1       1.073   4.961  20.565  0.00  0.00    +0.000 A 
ATOM      9  C   UNL     1       1.838   5.868  19.793  0.00  0.00    +0.000 A 
ENDROOT
BRANCH   1  10
ATOM     10  C   UNL     1       1.446   8.362  20.596  0.00  0.00    +0.000 C 
ATOM     11  O   UNL     1       1.880   8.576  21.722  0.00  0.00    +0.000 OA
BRANCH  10  15
ATOM     12  C   UNL     1       1.712  10.269  18.169  0.00  0.00    +0.000 C 
ATOM     13  C   UNL     1       0.370  10.041  18.836  0.00  0.00    +0.000 C 
ATOM     14  C   UNL     1      -0.760  10.022  17.830  0.00  0.00    +0.000 C 
ATOM     15  C   UNL     1       0.275   9.112  20.044  0.00  0.00    +0.000 C 
ATOM     16  C   UNL     1       0.098  10.620  20.241  0.00  0.00    +0.000 C 
ATOM     17  C   UNL     1       1.157  11.470  20.913  0.00  0.00    +0.000 C 
ATOM     18  C   UNL     1      -1.293  11.076  20.641  0.00  0.00    +0.000 C 
ENDBRANCH  10  15
ENDBRANCH   1  10
BRANCH   6  19
ATOM     19  O   UNL     1       1.929   1.767  19.041  0.00  0.00    +0.000 OA
ATOM     20  H   UNL     1       2.590   1.568  18.357  0.00  0.00    +0.000 HD
ENDBRANCH   6  19
BRANCH   3  21
ATOM     21  C   UNL     1       4.121   6.358  16.979  0.00  0.00    +0.000 C 
BRANCH  21  22
ATOM     22  C   UNL     1       5.110   5.168  16.990  0.00  0.00    +0.000 C 
ATOM     23  C   UNL     1       6.312   5.448  17.912  0.00  0.00    +0.000 C 
ATOM     24  C   UNL     1       7.541   4.613  17.592  0.00  0.00    +0.000 C 
ATOM     25  O   UNL     1       7.840   4.678  16.203  0.00  0.00    +0.000 OA
ATOM     26  C   UNL     1       6.818   4.059  15.431  0.00  0.00    +0.000 C 
ATOM     27  C   UNL     1       5.521   4.843  15.541  0.00  0.00    +0.000 C 
ENDBRANCH  21  22
ENDBRANCH   3  21
TORSDOF 5
ENDMDL
MODEL 6
REMARK VINA RESULT:      -7.3      3.215      6.111
REMARK  Name = 
REMARK  9 active torsions:
REMARK  status: ('A' for Active; 'I' for Inactive)
REMARK    1  A    between atoms: C_1  and  C_2
REMARK    2  A    between atoms: C_2  and  C_3
REMARK    3  A    between atoms: C_4  and  C_5
REMARK    4  A    between atoms: C_5  and  C_7
REMARK    5  A    between atoms: N_9  and  C_10
REMARK    6  A    between atoms: C_10  and  C_11
REMARK    7  A    between atoms: C_19  and  O_20
REMARK    8  A    between atoms: C_24  and  C_25
REMARK    9  A    between atoms: C_24  and  C_26
REMARK                            x       y       z     vdW  Elec       q    Type
REMARK                         _______ _______ _______ _____ _____    ______ ____
ROOT
ATOM      1  C   UNL     1       4.554   4.800  18.953  0.00  0.00    +0.000 A 
ATOM      2  C   UNL     1       3.980   5.780  19.735  0.00  0.00    +0.000 A 
ATOM      3  N   UNL     1       2.655   5.512  19.896  0.00  0.00    +0.000 N 
ATOM      4  C   UNL     1       2.347   4.311  19.287  0.00  0.00    +0.000 A 
ATOM      5  C   UNL     1       1.137   3.598  19.234  0.00  0.00    +0.000 A 
ATOM      6  C   UNL     1       1.132   2.380  18.557  0.00  0.00    +0.000 A 
ATOM      7  C   UNL     1       2.275   1.878  17.955  0.00  0.00    +0.000 A 
ATOM      8  C   UNL     1       3.475   2.593  18.014  0.00  0.00    +0.000 A 
ATOM      9  C   UNL     1       3.525   3.839  18.683  0.00  0.00    +0.000 A 
ENDROOT
BRANCH   1  10
ATOM     10  C   UNL     1       5.967   4.866  18.593  0.00  0.00    +0.000 C 
ATOM     11  O   UNL     1       6.819   5.096  19.444  0.00  0.00    +0.000 OA
BRANCH  10  15
ATOM     12  C   UNL     1       7.495   7.086  17.065  0.00  0.00    +0.000 C 
ATOM     13  C   UNL     1       7.081   5.805  16.368  0.00  0.00    +0.000 C 
ATOM     14  C   UNL     1       8.123   5.349  15.370  0.00  0.00    +0.000 C 
ATOM     15  C   UNL     1       6.310   4.738  17.143  0.00  0.00    +0.000 C 
ATOM     16  C   UNL     1       5.593   5.543  16.055  0.00  0.00    +0.000 C 
ATOM     17  C   UNL     1       4.564   6.604  16.389  0.00  0.00    +0.000 C 
ATOM     18  C   UNL     1       5.181   4.763  14.820  0.00  0.00    +0.000 C 
ENDBRANCH  10  15
ENDBRANCH   1  10
BRANCH   6  19
ATOM     19  O   UNL     1      -0.005   1.629  18.477  0.00  0.00    +0.000 OA
ATOM     20  H   UNL     1       0.189   0.826  17.966  0.00  0.00    +0.000 HD
ENDBRANCH   6  19
BRANCH   3  21
ATOM     21  C   UNL     1       1.755   6.340  20.679  0.00  0.00    +0.000 C 
BRANCH  21  22
ATOM     22  C   UNL     1       1.857   7.854  20.377  0.00  0.00    +0.000 C 
ATOM     23  C   UNL     1       0.752   8.645  21.103  0.00  0.00    +0.000 C 
ATOM     24  C   UNL     1       0.451   9.997  20.477  0.00  0.00    +0.000 C 
ATOM     25  O   UNL     1       0.251   9.864  19.075  0.00  0.00    +0.000 OA
ATOM     26  C   UNL     1       1.452   9.466  18.424  0.00  0.00    +0.000 C 
ATOM     27  C   UNL     1       1.847   8.062  18.850  0.00  0.00    +0.000 C 
ENDBRANCH  21  22
ENDBRANCH   3  21
TORSDOF 5
ENDMDL
MODEL 7
REMARK VINA RESULT:      -7.2      3.018      7.963
REMARK  Name = 
REMARK  9 active torsions:
REMARK  status: ('A' for Active; 'I' for Inactive)
REMARK    1  A    between atoms: C_1  and  C_2
REMARK    2  A    between atoms: C_2  and  C_3
REMARK    3  A    between atoms: C_4  and  C_5
REMARK    4  A    between atoms: C_5  and  C_7
REMARK    5  A    between atoms: N_9  and  C_10
REMARK    6  A    between atoms: C_10  and  C_11
REMARK    7  A    between atoms: C_19  and  O_20
REMARK    8  A    between atoms: C_24  and  C_25
REMARK    9  A    between atoms: C_24  and  C_26
REMARK                            x       y       z     vdW  Elec       q    Type
REMARK                         _______ _______ _______ _____ _____    ______ ____
ROOT
ATOM      1  C   UNL     1       1.958   7.240  19.734  0.00  0.00    +0.000 A 
ATOM      2  C   UNL     1       2.804   7.564  18.695  0.00  0.00    +0.000 A 
ATOM      3  N   UNL     1       3.276   6.422  18.124  0.00  0.00    +0.000 N 
ATOM      4  C   UNL     1       2.691   5.325  18.726  0.00  0.00    +0.000 A 
ATOM      5  C   UNL     1       2.816   3.953  18.446  0.00  0.00    +0.000 A 
ATOM      6  C   UNL     1       2.069   3.064  19.217  0.00  0.00    +0.000 A 
ATOM      7  C   UNL     1       1.229   3.505  20.227  0.00  0.00    +0.000 A 
ATOM      8  C   UNL     1       1.109   4.872  20.499  0.00  0.00    +0.000 A 
ATOM      9  C   UNL     1       1.854   5.811  19.747  0.00  0.00    +0.000 A 
ENDROOT
BRANCH   1  10
ATOM     10  C   UNL     1       1.340   8.285  20.545  0.00  0.00    +0.000 C 
ATOM     11  O   UNL     1       0.543   8.000  21.432  0.00  0.00    +0.000 OA
BRANCH  10  15
ATOM     12  C   UNL     1      -0.678  10.581  21.047  0.00  0.00    +0.000 C 
ATOM     13  C   UNL     1       0.681  10.860  20.437  0.00  0.00    +0.000 C 
ATOM     14  C   UNL     1       1.254  12.174  20.921  0.00  0.00    +0.000 C 
ATOM     15  C   UNL     1       1.646   9.703  20.182  0.00  0.00    +0.000 C 
ATOM     16  C   UNL     1       0.986  10.409  18.993  0.00  0.00    +0.000 C 
ATOM     17  C   UNL     1      -0.104   9.747  18.174  0.00  0.00    +0.000 C 
ATOM     18  C   UNL     1       1.915  11.213  18.103  0.00  0.00    +0.000 C 
ENDBRANCH  10  15
ENDBRANCH   1  10
BRANCH   6  19
ATOM     19  O   UNL     1       2.133   1.719  18.990  0.00  0.00    +0.000 OA
ATOM     20  H   UNL     1       1.410   1.472  18.390  0.00  0.00    +0.000 HD
ENDBRANCH   6  19
BRANCH   3  21
ATOM     21  C   UNL     1       4.183   6.403  16.990  0.00  0.00    +0.000 C 
BRANCH  21  22
ATOM     22  C   UNL     1       5.144   5.190  16.964  0.00  0.00    +0.000 C 
ATOM     23  C   UNL     1       6.381   5.437  17.847  0.00  0.00    +0.000 C 
ATOM     24  C   UNL     1       7.580   4.576  17.484  0.00  0.00    +0.000 C 
ATOM     25  O   UNL     1       7.835   4.641  16.085  0.00  0.00    +0.000 OA
ATOM     26  C   UNL     1       6.774   4.050  15.345  0.00  0.00    +0.000 C 
ATOM     27  C   UNL     1       5.499   4.864  15.500  0.00  0.00    +0.000 C 
ENDBRANCH  21  22
ENDBRANCH   3  21
TORSDOF 5
ENDMDL
MODEL 8
REMARK VINA RESULT:      -7.1      2.930      8.069
REMARK  Name = 
REMARK  9 active torsions:
REMARK  status: ('A' for Active; 'I' for Inactive)
REMARK    1  A    between atoms: C_1  and  C_2
REMARK    2  A    between atoms: C_2  and  C_3
REMARK    3  A    between atoms: C_4  and  C_5
REMARK    4  A    between atoms: C_5  and  C_7
REMARK    5  A    between atoms: N_9  and  C_10
REMARK    6  A    between atoms: C_10  and  C_11
REMARK    7  A    between atoms: C_19  and  O_20
REMARK    8  A    between atoms: C_24  and  C_25
REMARK    9  A    between atoms: C_24  and  C_26
REMARK                            x       y       z     vdW  Elec       q    Type
REMARK                         _______ _______ _______ _____ _____    ______ ____
ROOT
ATOM      1  C   UNL     1       2.534   7.231  18.683  0.00  0.00    +0.000 A 
ATOM      2  C   UNL     1       3.446   7.569  17.706  0.00  0.00    +0.000 A 
ATOM      3  N   UNL     1       3.950   6.434  17.147  0.00  0.00    +0.000 N 
ATOM      4  C   UNL     1       3.324   5.330  17.692  0.00  0.00    +0.000 A 
ATOM      5  C   UNL     1       3.463   3.963  17.398  0.00  0.00    +0.000 A 
ATOM      6  C   UNL     1       2.665   3.064  18.104  0.00  0.00    +0.000 A 
ATOM      7  C   UNL     1       1.763   3.491  19.066  0.00  0.00    +0.000 A 
ATOM      8  C   UNL     1       1.631   4.854  19.352  0.00  0.00    +0.000 A 
ATOM      9  C   UNL     1       2.425   5.802  18.665  0.00  0.00    +0.000 A 
ENDROOT
BRANCH   1  10
ATOM     10  C   UNL     1       1.868   8.265  19.470  0.00  0.00    +0.000 C 
ATOM     11  O   UNL     1       1.728   8.138  20.681  0.00  0.00    +0.000 OA
BRANCH  10  15
ATOM     12  C   UNL     1       1.567  11.066  20.760  0.00  0.00    +0.000 C 
ATOM     13  C   UNL     1       1.145  10.821  19.324  0.00  0.00    +0.000 C 
ATOM     14  C   UNL     1       1.447  12.012  18.441  0.00  0.00    +0.000 C 
ATOM     15  C   UNL     1       1.286   9.424  18.723  0.00  0.00    +0.000 C 
ATOM     16  C   UNL     1      -0.111   9.976  19.023  0.00  0.00    +0.000 C 
ATOM     17  C   UNL     1      -0.949   9.454  20.172  0.00  0.00    +0.000 C 
ATOM     18  C   UNL     1      -0.978  10.272  17.813  0.00  0.00    +0.000 C 
ENDBRANCH  10  15
ENDBRANCH   1  10
BRANCH   6  19
ATOM     19  O   UNL     1       2.740   1.723  17.860  0.00  0.00    +0.000 OA
ATOM     20  H   UNL     1       3.554   1.379  18.263  0.00  0.00    +0.000 HD
ENDBRANCH   6  19
BRANCH   3  21
ATOM     21  C   UNL     1       4.928   6.430  16.074  0.00  0.00    +0.000 C 
BRANCH  21  22
ATOM     22  C   UNL     1       6.383   6.184  16.539  0.00  0.00    +0.000 C 
ATOM     23  C   UNL     1       6.675   4.679  16.690  0.00  0.00    +0.000 C 
ATOM     24  C   UNL     1       7.844   4.368  17.611  0.00  0.00    +0.000 C 
ATOM     25  O   UNL     1       7.707   5.065  18.844  0.00  0.00    +0.000 OA
ATOM     26  C   UNL     1       7.812   6.470  18.650  0.00  0.00    +0.000 C 
ATOM     27  C   UNL     1       6.638   6.984  17.832  0.00  0.00    +0.000 C 
ENDBRANCH  21  22
ENDBRANCH   3  21
TORSDOF 5
ENDMDL
MODEL 9
REMARK VINA RESULT:      -7.1      3.188      6.253
REMARK  Name = 
REMARK  9 active torsions:
REMARK  status: ('A' for Active; 'I' for Inactive)
REMARK    1  A    between atoms: C_1  and  C_2
REMARK    2  A    between atoms: C_2  and  C_3
REMARK    3  A    between atoms: C_4  and  C_5
REMARK    4  A    between atoms: C_5  and  C_7
REMARK    5  A    between atoms: N_9  and  C_10
REMARK    6  A    between atoms: C_10  and  C_11
REMARK    7  A    between atoms: C_19  and  O_20
REMARK    8  A    between atoms: C_24  and  C_25
REMARK    9  A    between atoms: C_24  and  C_26
REMARK                            x       y       z     vdW  Elec       q    Type
REMARK                         _______ _______ _______ _____ _____    ______ ____
ROOT
ATOM      1  C   UNL     1       3.530   6.639  18.154  0.00  0.00    +0.000 A 
ATOM      2  C   UNL     1       3.396   5.599  19.048  0.00  0.00    +0.000 A 
ATOM      3  N   UNL     1       2.549   5.969  20.048  0.00  0.00    +0.000 N 
ATOM      4  C   UNL     1       2.050   7.231  19.792  0.00  0.00    +0.000 A 
ATOM      5  C   UNL     1       1.111   8.003  20.497  0.00  0.00    +0.000 A 
ATOM      6  C   UNL     1       0.775   9.250  19.975  0.00  0.00    +0.000 A 
ATOM      7  C   UNL     1       1.341   9.724  18.802  0.00  0.00    +0.000 A 
ATOM      8  C   UNL     1       2.274   8.949  18.106  0.00  0.00    +0.000 A 
ATOM      9  C   UNL     1       2.651   7.679  18.602  0.00  0.00    +0.000 A 
ENDROOT
BRANCH   1  10
ATOM     10  C   UNL     1       4.415   6.520  16.999  0.00  0.00    +0.000 C 
ATOM     11  O   UNL     1       4.310   7.287  16.049  0.00  0.00    +0.000 OA
BRANCH  10  15
ATOM     12  C   UNL     1       7.482   6.946  17.065  0.00  0.00    +0.000 C 
ATOM     13  C   UNL     1       6.891   5.550  17.043  0.00  0.00    +0.000 C 
ATOM     14  C   UNL     1       7.692   4.589  17.893  0.00  0.00    +0.000 C 
ATOM     15  C   UNL     1       5.375   5.373  16.989  0.00  0.00    +0.000 C 
ATOM     16  C   UNL     1       6.218   5.018  15.760  0.00  0.00    +0.000 C 
ATOM     17  C   UNL     1       6.214   5.876  14.511  0.00  0.00    +0.000 C 
ATOM     18  C   UNL     1       6.276   3.545  15.402  0.00  0.00    +0.000 C 
ENDBRANCH  10  15
ENDBRANCH   1  10
BRANCH   6  19
ATOM     19  O   UNL     1      -0.140  10.047  20.601  0.00  0.00    +0.000 OA
ATOM     20  H   UNL     1      -0.034   9.944  21.562  0.00  0.00    +0.000 HD
ENDBRANCH   6  19
BRANCH   3  21
ATOM     21  C   UNL     1       2.178   5.101  21.152  0.00  0.00    +0.000 C 
BRANCH  21  22
ATOM     22  C   UNL     1       1.901   3.634  20.743  0.00  0.00    +0.000 C 
ATOM     23  C   UNL     1       3.186   2.935  20.262  0.00  0.00    +0.000 C 
ATOM     24  C   UNL     1       2.934   1.725  19.377  0.00  0.00    +0.000 C 
ATOM     25  O   UNL     1       2.019   2.050  18.337  0.00  0.00    +0.000 OA
ATOM     26  C   UNL     1       0.730   2.339  18.864  0.00  0.00    +0.000 C 
ATOM     27  C   UNL     1       0.769   3.610  19.697  0.00  0.00    +0.000 C 
ENDBRANCH  21  22
ENDBRANCH   3  21
TORSDOF 5
ENDMDL
