MODEL 1
REMARK VINA RESULT:      -7.8      0.000      0.000
REMARK  Name = 
REMARK  4 active torsions:
REMARK  status: ('A' for Active; 'I' for Inactive)
REMARK    1  A    between atoms: C_1  and  C_2
REMARK    2  A    between atoms: C_2  and  O_3
REMARK    3  A    between atoms: C_2  and  C_4
REMARK    4  A    between atoms: C_10  and  C_11
REMARK                            x       y       z     vdW  Elec       q    Type
REMARK                         _______ _______ _______ _____ _____    ______ ____
ROOT
ATOM      1  C   UNL     1       2.505   6.911  18.549  0.00  0.00    +0.000 A 
ATOM      2  C   UNL     1       2.279   8.041  17.748  0.00  0.00    +0.000 A 
ATOM      3  N   UNL     1       1.698   9.205  18.126  0.00  0.00    +0.000 NA
ATOM      4  C   UNL     1       1.373   9.282  19.418  0.00  0.00    +0.000 A 
ATOM      5  C   UNL     1       1.610   8.276  20.336  0.00  0.00    +0.000 A 
ATOM      6  C   UNL     1       2.156   7.072  19.907  0.00  0.00    +0.000 A 
ATOM      7  C   UNL     1       1.216   8.696  21.714  0.00  0.00    +0.000 C 
ATOM      8  C   UNL     1       0.680  10.117  21.476  0.00  0.00    +0.000 C 
ATOM      9  N   UNL     1       0.781  10.378  20.041  0.00  0.00    +0.000 N 
ATOM     10  C   UNL     1       0.356  11.540  19.461  0.00  0.00    +0.000 C 
ATOM     11  N   UNL     1       0.433  11.612  18.110  0.00  0.00    +0.000 N 
ATOM     12  O   UNL     1      -0.108  12.479  20.100  0.00  0.00    +0.000 OA
ATOM     13  H   UNL     1       0.964  10.903  17.614  0.00  0.00    +0.000 HD
ATOM     14  H   UNL     1       0.212  12.483  17.653  0.00  0.00    +0.000 HD
ENDROOT
BRANCH   1  21
ATOM     15  C   UNL     1       4.278   5.549  17.192  0.00  0.00    +0.000 A 
ATOM     16  C   UNL     1       4.712   4.252  16.816  0.00  0.00    +0.000 A 
ATOM     17 CL   UNL     1       6.126   3.941  15.869  0.00  0.00    +0.000 Cl
ATOM     18  C   UNL     1       3.994   3.137  17.233  0.00  0.00    +0.000 A 
ATOM     19  N   UNL     1       2.909   3.194  18.023  0.00  0.00    +0.000 NA
ATOM     20  C   UNL     1       2.518   4.430  18.405  0.00  0.00    +0.000 A 
ATOM     21  C   UNL     1       3.123   5.649  18.036  0.00  0.00    +0.000 A 
BRANCH  15  23
ATOM     22  C   UNL     1       6.421   6.920  17.350  0.00  0.00    +0.000 C 
ATOM     23  C   UNL     1       5.032   6.788  16.718  0.00  0.00    +0.000 C 
BRANCH  23  24
ATOM     24  O   UNL     1       5.162   6.854  15.300  0.00  0.00    +0.000 OA
ATOM     25  H   UNL     1       4.688   6.088  14.925  0.00  0.00    +0.000 HD
ENDBRANCH  23  24
ENDBRANCH  15  23
ENDBRANCH   1  21
TORSDOF 3
ENDMDL
MODEL 2
REMARK VINA RESULT:      -7.7      1.123      1.955
REMARK  Name = 
REMARK  4 active torsions:
REMARK  status: ('A' for Active; 'I' for Inactive)
REMARK    1  A    between atoms: C_1  and  C_2
REMARK    2  A    between atoms: C_2  and  O_3
REMARK    3  A    between atoms: C_2  and  C_4
REMARK    4  A    between atoms: C_10  and  C_11
REMARK                            x       y       z     vdW  Elec       q    Type
REMARK                         _______ _______ _______ _____ _____    ______ ____
ROOT
ATOM      1  C   UNL     1       2.585   6.584  18.697  0.00  0.00    +0.000 A 
ATOM      2  C   UNL     1       2.156   6.604  20.032  0.00  0.00    +0.000 A 
ATOM      3  N   UNL     1       1.631   7.657  20.704  0.00  0.00    +0.000 NA
ATOM      4  C   UNL     1       1.458   8.762  19.977  0.00  0.00    +0.000 A 
ATOM      5  C   UNL     1       1.763   8.859  18.633  0.00  0.00    +0.000 A 
ATOM      6  C   UNL     1       2.352   7.780  17.985  0.00  0.00    +0.000 A 
ATOM      7  C   UNL     1       1.374  10.192  18.084  0.00  0.00    +0.000 C 
ATOM      8  C   UNL     1       0.801  10.897  19.325  0.00  0.00    +0.000 C 
ATOM      9  N   UNL     1       0.925   9.963  20.441  0.00  0.00    +0.000 N 
ATOM     10  C   UNL     1       0.548  10.271  21.719  0.00  0.00    +0.000 C 
ATOM     11  N   UNL     1       0.799   9.340  22.671  0.00  0.00    +0.000 N 
ATOM     12  O   UNL     1       0.036  11.342  22.028  0.00  0.00    +0.000 OA
ATOM     13  H   UNL     1       1.068   8.405  22.380  0.00  0.00    +0.000 HD
ATOM     14  H   UNL     1       0.456   9.493  23.607  0.00  0.00    +0.000 HD
ENDROOT
BRANCH   1  21
ATOM     15  C   UNL     1       4.319   5.368  17.162  0.00  0.00    +0.000 A 
ATOM     16  C   UNL     1       4.742   4.117  16.646  0.00  0.00    +0.000 A 
ATOM     17 CL   UNL     1       6.128   3.906  15.632  0.00  0.00    +0.000 Cl
ATOM     18  C   UNL     1       4.037   2.964  16.970  0.00  0.00    +0.000 A 
ATOM     19  N   UNL     1       2.974   2.939  17.793  0.00  0.00    +0.000 NA
ATOM     20  C   UNL     1       2.595   4.129  18.307  0.00  0.00    +0.000 A 
ATOM     21  C   UNL     1       3.188   5.381  18.044  0.00  0.00    +0.000 A 
BRANCH  15  23
ATOM     22  C   UNL     1       6.457   6.734  17.413  0.00  0.00    +0.000 C 
ATOM     23  C   UNL     1       5.059   6.650  16.791  0.00  0.00    +0.000 C 
BRANCH  23  24
ATOM     24  O   UNL     1       5.167   6.847  15.383  0.00  0.00    +0.000 OA
ATOM     25  H   UNL     1       5.781   7.591  15.237  0.00  0.00    +0.000 HD
ENDBRANCH  23  24
ENDBRANCH  15  23
ENDBRANCH   1  21
TORSDOF 3
ENDMDL
MODEL 3
REMARK VINA RESULT:      -7.6      1.910      2.683
REMARK  Name = 
REMARK  4 active torsions:
REMARK  status: ('A' for Active; 'I' for Inactive)
REMARK    1  A    between atoms: C_1  and  C_2
REMARK    2  A    between atoms: C_2  and  O_3
REMARK    3  A    between atoms: C_2  and  C_4
REMARK    4  A    between atoms: C_10  and  C_11
REMARK                            x       y       z     vdW  Elec       q    Type
REMARK                         _______ _______ _______ _____ _____    ______ ____
ROOT
ATOM      1  C   UNL     1       2.530   7.098  18.561  0.00  0.00    +0.000 A 
ATOM      2  C   UNL     1       2.157   8.198  17.774  0.00  0.00    +0.000 A 
ATOM      3  N   UNL     1       1.459   9.288  18.175  0.00  0.00    +0.000 NA
ATOM      4  C   UNL     1       1.161   9.323  19.474  0.00  0.00    +0.000 A 
ATOM      5  C   UNL     1       1.533   8.347  20.379  0.00  0.00    +0.000 A 
ATOM      6  C   UNL     1       2.201   7.214  19.929  0.00  0.00    +0.000 A 
ATOM      7  C   UNL     1       1.130   8.715  21.769  0.00  0.00    +0.000 C 
ATOM      8  C   UNL     1       0.431  10.067  21.554  0.00  0.00    +0.000 C 
ATOM      9  N   UNL     1       0.465  10.342  20.120  0.00  0.00    +0.000 N 
ATOM     10  C   UNL     1      -0.104  11.451  19.559  0.00  0.00    +0.000 C 
ATOM     11  N   UNL     1      -0.070  11.537  18.206  0.00  0.00    +0.000 N 
ATOM     12  O   UNL     1      -0.654  12.329  20.215  0.00  0.00    +0.000 OA
ATOM     13  H   UNL     1       0.525  10.894  17.692  0.00  0.00    +0.000 HD
ATOM     14  H   UNL     1      -0.399  12.379  17.761  0.00  0.00    +0.000 HD
ENDROOT
BRANCH   1  21
ATOM     15  C   UNL     1       3.015   4.539  18.330  0.00  0.00    +0.000 A 
ATOM     16  C   UNL     1       3.834   3.560  17.712  0.00  0.00    +0.000 A 
ATOM     17 CL   UNL     1       3.618   1.854  17.907  0.00  0.00    +0.000 Cl
ATOM     18  C   UNL     1       4.871   3.956  16.876  0.00  0.00    +0.000 A 
ATOM     19  N   UNL     1       5.141   5.236  16.568  0.00  0.00    +0.000 NA
ATOM     20  C   UNL     1       4.337   6.164  17.134  0.00  0.00    +0.000 A 
ATOM     21  C   UNL     1       3.273   5.917  18.025  0.00  0.00    +0.000 A 
BRANCH  15  23
ATOM     22  C   UNL     1       0.894   3.159  18.636  0.00  0.00    +0.000 C 
ATOM     23  C   UNL     1       1.893   4.126  19.278  0.00  0.00    +0.000 C 
BRANCH  23  24
ATOM     24  O   UNL     1       2.370   3.557  20.495  0.00  0.00    +0.000 OA
ATOM     25  H   UNL     1       3.299   3.833  20.604  0.00  0.00    +0.000 HD
ENDBRANCH  23  24
ENDBRANCH  15  23
ENDBRANCH   1  21
TORSDOF 3
ENDMDL
MODEL 4
REMARK VINA RESULT:      -7.5      2.386      3.437
REMARK  Name = 
REMARK  4 active torsions:
REMARK  status: ('A' for Active; 'I' for Inactive)
REMARK    1  A    between atoms: C_1  and  C_2
REMARK    2  A    between atoms: C_2  and  O_3
REMARK    3  A    between atoms: C_2  and  C_4
REMARK    4  A    between atoms: C_10  and  C_11
REMARK                            x       y       z     vdW  Elec       q    Type
REMARK                         _______ _______ _______ _____ _____    ______ ____
ROOT
ATOM      1  C   UNL     1       2.172   7.705  19.150  0.00  0.00    +0.000 A 
ATOM      2  C   UNL     1       1.825   7.448  20.485  0.00  0.00    +0.000 A 
ATOM      3  N   UNL     1       1.074   8.232  21.296  0.00  0.00    +0.000 NA
ATOM      4  C   UNL     1       0.573   9.326  20.722  0.00  0.00    +0.000 A 
ATOM      5  C   UNL     1       0.769   9.662  19.396  0.00  0.00    +0.000 A 
ATOM      6  C   UNL     1       1.589   8.868  18.602  0.00  0.00    +0.000 A 
ATOM      7  C   UNL     1       0.009  10.894  19.031  0.00  0.00    +0.000 C 
ATOM      8  C   UNL     1      -0.664  11.264  20.362  0.00  0.00    +0.000 C 
ATOM      9  N   UNL     1      -0.236  10.273  21.347  0.00  0.00    +0.000 N 
ATOM     10  C   UNL     1      -0.613  10.313  22.660  0.00  0.00    +0.000 C 
ATOM     11  N   UNL     1      -0.072   9.379  23.480  0.00  0.00    +0.000 N 
ATOM     12  O   UNL     1      -1.376  11.160  23.114  0.00  0.00    +0.000 OA
ATOM     13  H   UNL     1       0.422   8.594  23.065  0.00  0.00    +0.000 HD
ATOM     14  H   UNL     1      -0.392   9.321  24.433  0.00  0.00    +0.000 HD
ENDROOT
BRANCH   1  21
ATOM     15  C   UNL     1       3.062   5.364  18.395  0.00  0.00    +0.000 A 
ATOM     16  C   UNL     1       3.958   4.682  17.533  0.00  0.00    +0.000 A 
ATOM     17 CL   UNL     1       4.066   2.959  17.417  0.00  0.00    +0.000 Cl
ATOM     18  C   UNL     1       4.803   5.408  16.702  0.00  0.00    +0.000 A 
ATOM     19  N   UNL     1       4.807   6.749  16.621  0.00  0.00    +0.000 NA
ATOM     20  C   UNL     1       3.929   7.394  17.420  0.00  0.00    +0.000 A 
ATOM     21  C   UNL     1       3.038   6.797  18.336  0.00  0.00    +0.000 A 
BRANCH  15  23
ATOM     22  C   UNL     1       1.184   3.653  18.605  0.00  0.00    +0.000 C 
ATOM     23  C   UNL     1       2.150   4.587  19.340  0.00  0.00    +0.000 C 
BRANCH  23  24
ATOM     24  O   UNL     1       2.867   3.835  20.316  0.00  0.00    +0.000 OA
ATOM     25  H   UNL     1       3.350   3.129  19.847  0.00  0.00    +0.000 HD
ENDBRANCH  23  24
ENDBRANCH  15  23
ENDBRANCH   1  21
TORSDOF 3
ENDMDL
MODEL 5
REMARK VINA RESULT:      -7.5      2.314      3.021
REMARK  Name = 
REMARK  4 active torsions:
REMARK  status: ('A' for Active; 'I' for Inactive)
REMARK    1  A    between atoms: C_1  and  C_2
REMARK    2  A    between atoms: C_2  and  O_3
REMARK    3  A    between atoms: C_2  and  C_4
REMARK    4  A    between atoms: C_10  and  C_11
REMARK                            x       y       z     vdW  Elec       q    Type
REMARK                         _______ _______ _______ _____ _____    ______ ____
ROOT
ATOM      1  C   UNL     1       2.318   7.358  19.224  0.00  0.00    +0.000 A 
ATOM      2  C   UNL     1       2.017   8.337  18.266  0.00  0.00    +0.000 A 
ATOM      3  N   UNL     1       1.235   9.431  18.437  0.00  0.00    +0.000 NA
ATOM      4  C   UNL     1       0.765   9.604  19.673  0.00  0.00    +0.000 A 
ATOM      5  C   UNL     1       1.046   8.760  20.731  0.00  0.00    +0.000 A 
ATOM      6  C   UNL     1       1.805   7.617  20.513  0.00  0.00    +0.000 A 
ATOM      7  C   UNL     1       0.448   9.268  22.002  0.00  0.00    +0.000 C 
ATOM      8  C   UNL     1      -0.261  10.550  21.535  0.00  0.00    +0.000 C 
ATOM      9  N   UNL     1      -0.045  10.656  20.094  0.00  0.00    +0.000 N 
ATOM     10  C   UNL     1      -0.570  11.662  19.332  0.00  0.00    +0.000 C 
ATOM     11  N   UNL     1      -0.359  11.589  17.995  0.00  0.00    +0.000 N 
ATOM     12  O   UNL     1      -1.232  12.583  19.799  0.00  0.00    +0.000 OA
ATOM     13  H   UNL     1       0.321  10.921  17.644  0.00  0.00    +0.000 HD
ATOM     14  H   UNL     1      -0.654  12.356  17.411  0.00  0.00    +0.000 HD
ENDROOT
BRANCH   1  21
ATOM     15  C   UNL     1       3.019   4.855  19.516  0.00  0.00    +0.000 A 
ATOM     16  C   UNL     1       3.926   3.845  19.108  0.00  0.00    +0.000 A 
ATOM     17 CL   UNL     1       3.851   2.202  19.644  0.00  0.00    +0.000 Cl
ATOM     18  C   UNL     1       4.939   4.151  18.207  0.00  0.00    +0.000 A 
ATOM     19  N   UNL     1       5.106   5.360  17.645  0.00  0.00    +0.000 NA
ATOM     20  C   UNL     1       4.219   6.311  18.012  0.00  0.00    +0.000 A 
ATOM     21  C   UNL     1       3.165   6.159  18.937  0.00  0.00    +0.000 A 
BRANCH  15  23
ATOM     22  C   UNL     1       0.827   3.635  19.968  0.00  0.00    +0.000 C 
ATOM     23  C   UNL     1       1.921   4.549  20.530  0.00  0.00    +0.000 C 
BRANCH  23  24
ATOM     24  O   UNL     1       2.418   3.983  21.740  0.00  0.00    +0.000 OA
ATOM     25  H   UNL     1       1.657   3.618  22.229  0.00  0.00    +0.000 HD
ENDBRANCH  23  24
ENDBRANCH  15  23
ENDBRANCH   1  21
TORSDOF 3
ENDMDL
MODEL 6
REMARK VINA RESULT:      -7.5      3.419      6.932
REMARK  Name = 
REMARK  4 active torsions:
REMARK  status: ('A' for Active; 'I' for Inactive)
REMARK    1  A    between atoms: C_1  and  C_2
REMARK    2  A    between atoms: C_2  and  O_3
REMARK    3  A    between atoms: C_2  and  C_4
REMARK    4  A    between atoms: C_10  and  C_11
REMARK                            x       y       z     vdW  Elec       q    Type
REMARK                         _______ _______ _______ _____ _____    ______ ____
ROOT
ATOM      1  C   UNL     1       1.735   7.175  20.113  0.00  0.00    +0.000 A 
ATOM      2  C   UNL     1       2.538   6.904  18.995  0.00  0.00    +0.000 A 
ATOM      3  N   UNL     1       2.960   5.688  18.572  0.00  0.00    +0.000 NA
ATOM      4  C   UNL     1       2.499   4.652  19.274  0.00  0.00    +0.000 A 
ATOM      5  C   UNL     1       1.639   4.769  20.349  0.00  0.00    +0.000 A 
ATOM      6  C   UNL     1       1.267   6.031  20.795  0.00  0.00    +0.000 A 
ATOM      7  C   UNL     1       1.235   3.427  20.867  0.00  0.00    +0.000 C 
ATOM      8  C   UNL     1       2.010   2.477  19.940  0.00  0.00    +0.000 C 
ATOM      9  N   UNL     1       2.783   3.311  19.022  0.00  0.00    +0.000 N 
ATOM     10  C   UNL     1       3.626   2.798  18.076  0.00  0.00    +0.000 C 
ATOM     11  N   UNL     1       4.343   3.690  17.350  0.00  0.00    +0.000 N 
ATOM     12  O   UNL     1       3.774   1.595  17.890  0.00  0.00    +0.000 OA
ATOM     13  H   UNL     1       4.093   4.673  17.400  0.00  0.00    +0.000 HD
ATOM     14  H   UNL     1       4.908   3.356  16.585  0.00  0.00    +0.000 HD
ENDROOT
BRANCH   1  21
ATOM     15  C   UNL     1       0.954   9.630  19.660  0.00  0.00    +0.000 A 
ATOM     16  C   UNL     1       0.615  10.872  20.254  0.00  0.00    +0.000 A 
ATOM     17 CL   UNL     1       0.052  12.247  19.367  0.00  0.00    +0.000 Cl
ATOM     18  C   UNL     1       0.707  11.026  21.632  0.00  0.00    +0.000 A 
ATOM     19  N   UNL     1       1.068  10.044  22.475  0.00  0.00    +0.000 NA
ATOM     20  C   UNL     1       1.359   8.853  21.908  0.00  0.00    +0.000 A 
ATOM     21  C   UNL     1       1.344   8.557  20.529  0.00  0.00    +0.000 A 
BRANCH  15  23
ATOM     22  C   UNL     1      -0.508   9.692  17.573  0.00  0.00    +0.000 C 
ATOM     23  C   UNL     1       0.892   9.450  18.146  0.00  0.00    +0.000 C 
BRANCH  23  24
ATOM     24  O   UNL     1       1.825  10.270  17.447  0.00  0.00    +0.000 OA
ATOM     25  H   UNL     1       1.951  11.084  17.970  0.00  0.00    +0.000 HD
ENDBRANCH  23  24
ENDBRANCH  15  23
ENDBRANCH   1  21
TORSDOF 3
ENDMDL
MODEL 7
REMARK VINA RESULT:      -7.4      2.265      3.381
REMARK  Name = 
REMARK  4 active torsions:
REMARK  status: ('A' for Active; 'I' for Inactive)
REMARK    1  A    between atoms: C_1  and  C_2
REMARK    2  A    between atoms: C_2  and  O_3
REMARK    3  A    between atoms: C_2  and  C_4
REMARK    4  A    between atoms: C_10  and  C_11
REMARK                            x       y       z     vdW  Elec       q    Type
REMARK                         _______ _______ _______ _____ _____    ______ ____
ROOT
ATOM      1  C   UNL     1       2.520   6.826  18.920  0.00  0.00    +0.000 A 
ATOM      2  C   UNL     1       2.032   6.784  20.235  0.00  0.00    +0.000 A 
ATOM      3  N   UNL     1       1.422   7.788  20.910  0.00  0.00    +0.000 NA
ATOM      4  C   UNL     1       1.220   8.903  20.206  0.00  0.00    +0.000 A 
ATOM      5  C   UNL     1       1.579   9.055  18.880  0.00  0.00    +0.000 A 
ATOM      6  C   UNL     1       2.253   8.028  18.230  0.00  0.00    +0.000 A 
ATOM      7  C   UNL     1       1.142  10.382  18.350  0.00  0.00    +0.000 C 
ATOM      8  C   UNL     1       0.477  11.018  19.582  0.00  0.00    +0.000 C 
ATOM      9  N   UNL     1       0.603  10.059  20.678  0.00  0.00    +0.000 N 
ATOM     10  C   UNL     1       0.154  10.310  21.944  0.00  0.00    +0.000 C 
ATOM     11  N   UNL     1       0.412   9.366  22.881  0.00  0.00    +0.000 N 
ATOM     12  O   UNL     1      -0.430  11.342  22.258  0.00  0.00    +0.000 OA
ATOM     13  H   UNL     1       0.745   8.456  22.578  0.00  0.00    +0.000 HD
ATOM     14  H   UNL     1       0.022   9.472  23.804  0.00  0.00    +0.000 HD
ENDROOT
BRANCH   1  21
ATOM     15  C   UNL     1       3.012   4.285  18.545  0.00  0.00    +0.000 A 
ATOM     16  C   UNL     1       3.772   3.343  17.806  0.00  0.00    +0.000 A 
ATOM     17 CL   UNL     1       3.602   1.628  17.961  0.00  0.00    +0.000 Cl
ATOM     18  C   UNL     1       4.705   3.786  16.877  0.00  0.00    +0.000 A 
ATOM     19  N   UNL     1       4.921   5.081  16.588  0.00  0.00    +0.000 NA
ATOM     20  C   UNL     1       4.173   5.974  17.271  0.00  0.00    +0.000 A 
ATOM     21  C   UNL     1       3.216   5.677  18.263  0.00  0.00    +0.000 A 
BRANCH  15  23
ATOM     22  C   UNL     1       0.857   3.001  18.998  0.00  0.00    +0.000 C 
ATOM     23  C   UNL     1       2.007   3.820  19.594  0.00  0.00    +0.000 C 
BRANCH  23  24
ATOM     24  O   UNL     1       2.605   3.074  20.651  0.00  0.00    +0.000 OA
ATOM     25  H   UNL     1       3.188   3.681  21.146  0.00  0.00    +0.000 HD
ENDBRANCH  23  24
ENDBRANCH  15  23
ENDBRANCH   1  21
TORSDOF 3
ENDMDL
MODEL 8
REMARK VINA RESULT:      -7.3      3.313      7.142
REMARK  Name = 
REMARK  4 active torsions:
REMARK  status: ('A' for Active; 'I' for Inactive)
REMARK    1  A    between atoms: C_1  and  C_2
REMARK    2  A    between atoms: C_2  and  O_3
REMARK    3  A    between atoms: C_2  and  C_4
REMARK    4  A    between atoms: C_10  and  C_11
REMARK                            x       y       z     vdW  Elec       q    Type
REMARK                         _______ _______ _______ _____ _____    ______ ____
ROOT
ATOM      1  C   UNL     1       1.809   7.295  20.004  0.00  0.00    +0.000 A 
ATOM      2  C   UNL     1       1.536   6.045  20.579  0.00  0.00    +0.000 A 
ATOM      3  N   UNL     1       1.939   4.834  20.124  0.00  0.00    +0.000 NA
ATOM      4  C   UNL     1       2.729   4.866  19.049  0.00  0.00    +0.000 A 
ATOM      5  C   UNL     1       3.141   6.030  18.428  0.00  0.00    +0.000 A 
ATOM      6  C   UNL     1       2.667   7.254  18.884  0.00  0.00    +0.000 A 
ATOM      7  C   UNL     1       4.088   5.740  17.310  0.00  0.00    +0.000 C 
ATOM      8  C   UNL     1       4.166   4.205  17.343  0.00  0.00    +0.000 C 
ATOM      9  N   UNL     1       3.277   3.755  18.412  0.00  0.00    +0.000 N 
ATOM     10  C   UNL     1       3.066   2.437  18.702  0.00  0.00    +0.000 C 
ATOM     11  N   UNL     1       2.151   2.162  19.664  0.00  0.00    +0.000 N 
ATOM     12  O   UNL     1       3.636   1.520  18.119  0.00  0.00    +0.000 OA
ATOM     13  H   UNL     1       1.812   2.922  20.246  0.00  0.00    +0.000 HD
ATOM     14  H   UNL     1       2.032   1.208  19.968  0.00  0.00    +0.000 HD
ENDROOT
BRANCH   1  21
ATOM     15  C   UNL     1       0.801   9.700  19.798  0.00  0.00    +0.000 A 
ATOM     16  C   UNL     1       0.349  10.838  20.512  0.00  0.00    +0.000 A 
ATOM     17 CL   UNL     1      -0.344  12.237  19.766  0.00  0.00    +0.000 Cl
ATOM     18  C   UNL     1       0.432  10.859  21.899  0.00  0.00    +0.000 A 
ATOM     19  N   UNL     1       0.886   9.834  22.641  0.00  0.00    +0.000 NA
ATOM     20  C   UNL     1       1.286   8.739  21.957  0.00  0.00    +0.000 A 
ATOM     21  C   UNL     1       1.292   8.585  20.556  0.00  0.00    +0.000 A 
BRANCH  15  23
ATOM     22  C   UNL     1      -0.668   9.845  17.719  0.00  0.00    +0.000 C 
ATOM     23  C   UNL     1       0.749   9.669  18.273  0.00  0.00    +0.000 C 
BRANCH  23  24
ATOM     24  O   UNL     1       1.606  10.633  17.665  0.00  0.00    +0.000 OA
ATOM     25  H   UNL     1       2.016  11.154  18.381  0.00  0.00    +0.000 HD
ENDBRANCH  23  24
ENDBRANCH  15  23
ENDBRANCH   1  21
TORSDOF 3
ENDMDL
MODEL 9
REMARK VINA RESULT:      -7.3      3.339      7.097
REMARK  Name = 
REMARK  4 active torsions:
REMARK  status: ('A' for Active; 'I' for Inactive)
REMARK    1  A    between atoms: C_1  and  C_2
REMARK    2  A    between atoms: C_2  and  O_3
REMARK    3  A    between atoms: C_2  and  C_4
REMARK    4  A    between atoms: C_10  and  C_11
REMARK                            x       y       z     vdW  Elec       q    Type
REMARK                         _______ _______ _______ _____ _____    ______ ____
ROOT
ATOM      1  C   UNL     1       1.410   8.145  20.290  0.00  0.00    +0.000 A 
ATOM      2  C   UNL     1       2.066   8.312  19.061  0.00  0.00    +0.000 A 
ATOM      3  N   UNL     1       2.805   7.388  18.400  0.00  0.00    +0.000 NA
ATOM      4  C   UNL     1       2.846   6.182  18.970  0.00  0.00    +0.000 A 
ATOM      5  C   UNL     1       2.183   5.857  20.138  0.00  0.00    +0.000 A 
ATOM      6  C   UNL     1       1.478   6.840  20.822  0.00  0.00    +0.000 A 
ATOM      7  C   UNL     1       2.351   4.410  20.471  0.00  0.00    +0.000 C 
ATOM      8  C   UNL     1       3.245   3.917  19.321  0.00  0.00    +0.000 C 
ATOM      9  N   UNL     1       3.527   5.073  18.473  0.00  0.00    +0.000 N 
ATOM     10  C   UNL     1       4.330   5.011  17.369  0.00  0.00    +0.000 C 
ATOM     11  N   UNL     1       4.572   6.178  16.723  0.00  0.00    +0.000 N 
ATOM     12  O   UNL     1       4.849   3.972  16.973  0.00  0.00    +0.000 OA
ATOM     13  H   UNL     1       4.012   6.991  16.960  0.00  0.00    +0.000 HD
ATOM     14  H   UNL     1       5.086   6.160  15.857  0.00  0.00    +0.000 HD
ENDROOT
BRANCH   1  21
ATOM     15  C   UNL     1      -0.112  10.272  20.323  0.00  0.00    +0.000 A 
ATOM     16  C   UNL     1      -0.777  11.215  21.147  0.00  0.00    +0.000 A 
ATOM     17 CL   UNL     1      -1.788  12.483  20.545  0.00  0.00    +0.000 Cl
ATOM     18  C   UNL     1      -0.648  11.136  22.528  0.00  0.00    +0.000 A 
ATOM     19  N   UNL     1       0.049  10.179  23.164  0.00  0.00    +0.000 NA
ATOM     20  C   UNL     1       0.654   9.263  22.376  0.00  0.00    +0.000 A 
ATOM     21  C   UNL     1       0.642   9.235  20.966  0.00  0.00    +0.000 A 
BRANCH  15  23
ATOM     22  C   UNL     1      -1.637  10.140  18.284  0.00  0.00    +0.000 C 
ATOM     23  C   UNL     1      -0.212  10.361  18.803  0.00  0.00    +0.000 C 
BRANCH  23  24
ATOM     24  O   UNL     1       0.283  11.592  18.281  0.00  0.00    +0.000 OA
ATOM     25  H   UNL     1      -0.022  12.306  18.872  0.00  0.00    +0.000 HD
ENDBRANCH  23  24
ENDBRANCH  15  23
ENDBRANCH   1  21
TORSDOF 3
ENDMDL
