MODEL 1
REMARK VINA RESULT:      -8.1      0.000      0.000
REMARK  Name = 
REMARK  7 active torsions:
REMARK  status: ('A' for Active; 'I' for Inactive)
REMARK    1  A    between atoms: C_1  and  C_2
REMARK    2  A    between atoms: C_2  and  C_4
REMARK    3  A    between atoms: C_7  and  N_8
REMARK    4  A    between atoms: C_12  and  C_14
REMARK    5  A    between atoms: C_16  and  S_17
REMARK    6  A    between atoms: S_17  and  N_18
REMARK    7  A    between atoms: C_23  and  N_24
REMARK                            x       y       z     vdW  Elec       q    Type
REMARK                         _______ _______ _______ _____ _____    ______ ____
ROOT
ATOM      1  N   UNL     1       1.325   8.626  19.036  0.00  0.00    +0.000 N 
ATOM      2  C   UNL     1       0.951   9.480  17.900  0.00  0.00    +0.000 C 
ATOM      3  C   UNL     1      -0.409  10.175  18.208  0.00  0.00    +0.000 C 
ATOM      4  N   UNL     1      -0.445  10.840  19.533  0.00  0.00    +0.000 N 
ATOM      5  C   UNL     1      -1.258  11.986  19.685  0.00  0.00    +0.000 C 
ATOM      6  O   UNL     1      -1.855  12.458  18.719  0.00  0.00    +0.000 OA
ATOM      7  C   UNL     1       0.073   9.996  20.625  0.00  0.00    +0.000 C 
ATOM      8  C   UNL     1       1.424   9.364  20.303  0.00  0.00    +0.000 C 
ENDROOT
BRANCH   1  12
ATOM      9  C   UNL     1       4.027   5.379  18.975  0.00  0.00    +0.000 A 
ATOM     10  C   UNL     1       4.119   6.376  17.991  0.00  0.00    +0.000 A 
ATOM     11  C   UNL     1       3.212   7.454  17.975  0.00  0.00    +0.000 A 
ATOM     12  C   UNL     1       2.219   7.567  18.953  0.00  0.00    +0.000 A 
ATOM     13  C   UNL     1       2.174   6.562  19.943  0.00  0.00    +0.000 A 
ATOM     14  F   UNL     1       1.246   6.630  20.913  0.00  0.00    +0.000 F 
ATOM     15  C   UNL     1       3.053   5.489  19.963  0.00  0.00    +0.000 A 
BRANCH   9  17
ATOM     16  C   UNL     1       4.299   2.810  19.063  0.00  0.00    +0.000 C 
ATOM     17  C   UNL     1       4.915   4.181  19.020  0.00  0.00    +0.000 C 
ATOM     18  O   UNL     1       6.136   4.327  19.041  0.00  0.00    +0.000 OA
ENDBRANCH   9  17
ENDBRANCH   1  12
BRANCH   5  19
ATOM     19  C   UNL     1      -1.415  12.662  21.024  0.00  0.00    +0.000 A 
ATOM     20  C   UNL     1      -2.654  12.505  21.669  0.00  0.00    +0.000 A 
ATOM     21  C   UNL     1      -2.899  13.055  22.927  0.00  0.00    +0.000 A 
ATOM     22  C   UNL     1      -1.936  13.818  23.560  0.00  0.00    +0.000 A 
ATOM     23  C   UNL     1      -0.751  14.080  22.878  0.00  0.00    +0.000 A 
ATOM     24  C   UNL     1      -0.460  13.557  21.589  0.00  0.00    +0.000 A 
BRANCH  24  25
ATOM     25  N   UNL     1       0.694  14.019  20.984  0.00  0.00    +0.000 N 
ATOM     26  C   UNL     1       0.757  15.389  20.436  0.00  0.00    +0.000 C 
ATOM     27  C   UNL     1       1.268  15.331  18.991  0.00  0.00    +0.000 C 
ATOM     28  O   UNL     1       2.566  14.715  18.936  0.00  0.00    +0.000 OA
ATOM     29  C   UNL     1       2.480  13.354  19.409  0.00  0.00    +0.000 C 
ATOM     30  C   UNL     1       1.948  13.271  20.853  0.00  0.00    +0.000 C 
ENDBRANCH  24  25
BRANCH  21  31
ATOM     31  S   UNL     1      -4.459  12.771  23.702  0.00  0.00    +0.000 S 
ATOM     32  O   UNL     1      -5.439  12.503  22.676  0.00  0.00    +0.000 OA
ATOM     33  O   UNL     1      -4.272  11.915  24.852  0.00  0.00    +0.000 OA
BRANCH  31  34
ATOM     34  N   UNL     1      -4.782  14.298  24.296  0.00  0.00    +0.000 NA
ATOM     35  H   UNL     1      -3.943  14.718  24.696  0.00  0.00    +0.000 HD
ATOM     36  H   UNL     1      -5.250  14.864  23.592  0.00  0.00    +0.000 HD
ENDBRANCH  31  34
ENDBRANCH  21  31
ENDBRANCH   5  19
TORSDOF 6
ENDMDL
MODEL 2
REMARK VINA RESULT:      -7.9      0.827      1.268
REMARK  Name = 
REMARK  7 active torsions:
REMARK  status: ('A' for Active; 'I' for Inactive)
REMARK    1  A    between atoms: C_1  and  C_2
REMARK    2  A    between atoms: C_2  and  C_4
REMARK    3  A    between atoms: C_7  and  N_8
REMARK    4  A    between atoms: C_12  and  C_14
REMARK    5  A    between atoms: C_16  and  S_17
REMARK    6  A    between atoms: S_17  and  N_18
REMARK    7  A    between atoms: C_23  and  N_24
REMARK                            x       y       z     vdW  Elec       q    Type
REMARK                         _______ _______ _______ _____ _____    ______ ____
ROOT
ATOM      1  N   UNL     1       1.424   8.537  18.972  0.00  0.00    +0.000 N 
ATOM      2  C   UNL     1       1.051   9.349  17.805  0.00  0.00    +0.000 C 
ATOM      3  C   UNL     1      -0.293  10.079  18.098  0.00  0.00    +0.000 C 
ATOM      4  N   UNL     1      -0.302  10.801  19.394  0.00  0.00    +0.000 N 
ATOM      5  C   UNL     1      -1.095  11.965  19.506  0.00  0.00    +0.000 C 
ATOM      6  O   UNL     1      -1.696  12.406  18.529  0.00  0.00    +0.000 OA
ATOM      7  C   UNL     1       0.215   9.995  20.516  0.00  0.00    +0.000 C 
ATOM      8  C   UNL     1       1.551   9.327  20.205  0.00  0.00    +0.000 C 
ENDROOT
BRANCH   1  12
ATOM      9  C   UNL     1       4.068   5.242  19.017  0.00  0.00    +0.000 A 
ATOM     10  C   UNL     1       4.192   6.217  18.016  0.00  0.00    +0.000 A 
ATOM     11  C   UNL     1       3.306   7.311  17.964  0.00  0.00    +0.000 A 
ATOM     12  C   UNL     1       2.300   7.461  18.924  0.00  0.00    +0.000 A 
ATOM     13  C   UNL     1       2.222   6.478  19.932  0.00  0.00    +0.000 A 
ATOM     14  F   UNL     1       1.281   6.582  20.886  0.00  0.00    +0.000 F 
ATOM     15  C   UNL     1       3.081   5.390  19.988  0.00  0.00    +0.000 A 
BRANCH   9  17
ATOM     16  C   UNL     1       4.301   2.693  19.374  0.00  0.00    +0.000 C 
ATOM     17  C   UNL     1       4.932   4.029  19.100  0.00  0.00    +0.000 C 
ATOM     18  O   UNL     1       6.150   4.137  18.963  0.00  0.00    +0.000 OA
ENDBRANCH   9  17
ENDBRANCH   1  12
BRANCH   5  19
ATOM     19  C   UNL     1      -1.225  12.700  20.818  0.00  0.00    +0.000 A 
ATOM     20  C   UNL     1      -2.453  12.578  21.490  0.00  0.00    +0.000 A 
ATOM     21  C   UNL     1      -2.672  13.184  22.727  0.00  0.00    +0.000 A 
ATOM     22  C   UNL     1      -1.695  13.968  23.309  0.00  0.00    +0.000 A 
ATOM     23  C   UNL     1      -0.520  14.194  22.596  0.00  0.00    +0.000 A 
ATOM     24  C   UNL     1      -0.255  13.613  21.326  0.00  0.00    +0.000 A 
BRANCH  24  25
ATOM     25  N   UNL     1       0.890  14.042  20.681  0.00  0.00    +0.000 N 
ATOM     26  C   UNL     1       2.128  13.239  20.738  0.00  0.00    +0.000 C 
ATOM     27  C   UNL     1       3.292  14.137  21.174  0.00  0.00    +0.000 C 
ATOM     28  O   UNL     1       3.456  15.235  20.262  0.00  0.00    +0.000 OA
ATOM     29  C   UNL     1       2.267  16.053  20.266  0.00  0.00    +0.000 C 
ATOM     30  C   UNL     1       1.009  15.256  19.868  0.00  0.00    +0.000 C 
ENDBRANCH  24  25
BRANCH  21  31
ATOM     31  S   UNL     1      -4.220  12.943  23.541  0.00  0.00    +0.000 S 
ATOM     32  O   UNL     1      -4.094  11.828  24.448  0.00  0.00    +0.000 OA
ATOM     33  O   UNL     1      -4.752  14.227  23.942  0.00  0.00    +0.000 OA
BRANCH  31  34
ATOM     34  N   UNL     1      -5.156  12.425  22.259  0.00  0.00    +0.000 NA
ATOM     35  H   UNL     1      -4.610  12.392  21.399  0.00  0.00    +0.000 HD
ATOM     36  H   UNL     1      -5.636  11.558  22.494  0.00  0.00    +0.000 HD
ENDBRANCH  31  34
ENDBRANCH  21  31
ENDBRANCH   5  19
TORSDOF 6
ENDMDL
MODEL 3
REMARK VINA RESULT:      -7.8      2.950      4.260
REMARK  Name = 
REMARK  7 active torsions:
REMARK  status: ('A' for Active; 'I' for Inactive)
REMARK    1  A    between atoms: C_1  and  C_2
REMARK    2  A    between atoms: C_2  and  C_4
REMARK    3  A    between atoms: C_7  and  N_8
REMARK    4  A    between atoms: C_12  and  C_14
REMARK    5  A    between atoms: C_16  and  S_17
REMARK    6  A    between atoms: S_17  and  N_18
REMARK    7  A    between atoms: C_23  and  N_24
REMARK                            x       y       z     vdW  Elec       q    Type
REMARK                         _______ _______ _______ _____ _____    ______ ____
ROOT
ATOM      1  N   UNL     1       2.838   7.172  18.621  0.00  0.00    +0.000 N 
ATOM      2  C   UNL     1       2.192   6.674  19.844  0.00  0.00    +0.000 C 
ATOM      3  C   UNL     1       1.708   7.885  20.696  0.00  0.00    +0.000 C 
ATOM      4  N   UNL     1       0.914   8.871  19.922  0.00  0.00    +0.000 N 
ATOM      5  C   UNL     1      -0.087   9.603  20.600  0.00  0.00    +0.000 C 
ATOM      6  O   UNL     1      -0.340   9.368  21.780  0.00  0.00    +0.000 OA
ATOM      7  C   UNL     1       1.530   9.235  18.633  0.00  0.00    +0.000 C 
ATOM      8  C   UNL     1       1.956   8.024  17.811  0.00  0.00    +0.000 C 
ENDROOT
BRANCH   1  12
ATOM      9  C   UNL     1       5.617   5.092  16.213  0.00  0.00    +0.000 A 
ATOM     10  C   UNL     1       4.474   4.428  16.684  0.00  0.00    +0.000 A 
ATOM     11  C   UNL     1       3.547   5.092  17.510  0.00  0.00    +0.000 A 
ATOM     12  C   UNL     1       3.733   6.434  17.858  0.00  0.00    +0.000 A 
ATOM     13  C   UNL     1       4.878   7.079  17.344  0.00  0.00    +0.000 A 
ATOM     14  F   UNL     1       5.097   8.371  17.638  0.00  0.00    +0.000 F 
ATOM     15  C   UNL     1       5.805   6.432  16.539  0.00  0.00    +0.000 A 
BRANCH   9  17
ATOM     16  C   UNL     1       6.279   3.771  14.092  0.00  0.00    +0.000 C 
ATOM     17  C   UNL     1       6.669   4.436  15.383  0.00  0.00    +0.000 C 
ATOM     18  O   UNL     1       7.837   4.430  15.770  0.00  0.00    +0.000 OA
ENDBRANCH   9  17
ENDBRANCH   1  12
BRANCH   5  19
ATOM     19  C   UNL     1      -0.873  10.685  19.901  0.00  0.00    +0.000 A 
ATOM     20  C   UNL     1      -1.686  10.281  18.828  0.00  0.00    +0.000 A 
ATOM     21  C   UNL     1      -2.484  11.191  18.133  0.00  0.00    +0.000 A 
ATOM     22  C   UNL     1      -2.459  12.535  18.453  0.00  0.00    +0.000 A 
ATOM     23  C   UNL     1      -1.567  12.963  19.432  0.00  0.00    +0.000 A 
ATOM     24  C   UNL     1      -0.722  12.079  20.158  0.00  0.00    +0.000 A 
BRANCH  24  25
ATOM     25  N   UNL     1       0.205  12.667  20.997  0.00  0.00    +0.000 N 
ATOM     26  C   UNL     1      -0.226  13.340  22.238  0.00  0.00    +0.000 C 
ATOM     27  C   UNL     1       0.387  14.745  22.289  0.00  0.00    +0.000 C 
ATOM     28  O   UNL     1       1.822  14.676  22.236  0.00  0.00    +0.000 OA
ATOM     29  C   UNL     1       2.235  14.080  20.989  0.00  0.00    +0.000 C 
ATOM     30  C   UNL     1       1.658  12.662  20.800  0.00  0.00    +0.000 C 
ENDBRANCH  24  25
BRANCH  21  31
ATOM     31  S   UNL     1      -3.522  10.605  16.831  0.00  0.00    +0.000 S 
ATOM     32  O   UNL     1      -3.127   9.257  16.500  0.00  0.00    +0.000 OA
ATOM     33  O   UNL     1      -4.892  10.976  17.111  0.00  0.00    +0.000 OA
BRANCH  31  34
ATOM     34  N   UNL     1      -3.014  11.583  15.578  0.00  0.00    +0.000 NA
ATOM     35  H   UNL     1      -3.170  12.566  15.796  0.00  0.00    +0.000 HD
ATOM     36  H   UNL     1      -2.059  11.352  15.308  0.00  0.00    +0.000 HD
ENDBRANCH  31  34
ENDBRANCH  21  31
ENDBRANCH   5  19
TORSDOF 6
ENDMDL
MODEL 4
REMARK VINA RESULT:      -7.7      0.754      1.186
REMARK  Name = 
REMARK  7 active torsions:
REMARK  status: ('A' for Active; 'I' for Inactive)
REMARK    1  A    between atoms: C_1  and  C_2
REMARK    2  A    between atoms: C_2  and  C_4
REMARK    3  A    between atoms: C_7  and  N_8
REMARK    4  A    between atoms: C_12  and  C_14
REMARK    5  A    between atoms: C_16  and  S_17
REMARK    6  A    between atoms: S_17  and  N_18
REMARK    7  A    between atoms: C_23  and  N_24
REMARK                            x       y       z     vdW  Elec       q    Type
REMARK                         _______ _______ _______ _____ _____    ______ ____
ROOT
ATOM      1  N   UNL     1       1.352   8.693  18.921  0.00  0.00    +0.000 N 
ATOM      2  C   UNL     1       0.726   9.406  17.799  0.00  0.00    +0.000 C 
ATOM      3  C   UNL     1      -0.624  10.023  18.274  0.00  0.00    +0.000 C 
ATOM      4  N   UNL     1      -0.504  10.807  19.528  0.00  0.00    +0.000 N 
ATOM      5  C   UNL     1      -1.381  11.898  19.721  0.00  0.00    +0.000 C 
ATOM      6  O   UNL     1      -2.166  12.231  18.835  0.00  0.00    +0.000 OA
ATOM      7  C   UNL     1       0.256  10.112  20.582  0.00  0.00    +0.000 C 
ATOM      8  C   UNL     1       1.588   9.554  20.090  0.00  0.00    +0.000 C 
ENDROOT
BRANCH   1  12
ATOM      9  C   UNL     1       4.266   5.645  18.669  0.00  0.00    +0.000 A 
ATOM     10  C   UNL     1       4.242   6.662  17.703  0.00  0.00    +0.000 A 
ATOM     11  C   UNL     1       3.263   7.675  17.751  0.00  0.00    +0.000 A 
ATOM     12  C   UNL     1       2.312   7.701  18.775  0.00  0.00    +0.000 A 
ATOM     13  C   UNL     1       2.384   6.679  19.746  0.00  0.00    +0.000 A 
ATOM     14  F   UNL     1       1.501   6.665  20.759  0.00  0.00    +0.000 F 
ATOM     15  C   UNL     1       3.335   5.670  19.703  0.00  0.00    +0.000 A 
BRANCH   9  17
ATOM     16  C   UNL     1       6.409   4.563  17.710  0.00  0.00    +0.000 C 
ATOM     17  C   UNL     1       5.235   4.511  18.648  0.00  0.00    +0.000 C 
ATOM     18  O   UNL     1       5.056   3.541  19.383  0.00  0.00    +0.000 OA
ENDBRANCH   9  17
ENDBRANCH   1  12
BRANCH   5  19
ATOM     19  C   UNL     1      -1.380  12.685  21.008  0.00  0.00    +0.000 A 
ATOM     20  C   UNL     1      -2.553  12.631  21.781  0.00  0.00    +0.000 A 
ATOM     21  C   UNL     1      -2.650  13.290  23.007  0.00  0.00    +0.000 A 
ATOM     22  C   UNL     1      -1.604  14.060  23.477  0.00  0.00    +0.000 A 
ATOM     23  C   UNL     1      -0.485  14.218  22.663  0.00  0.00    +0.000 A 
ATOM     24  C   UNL     1      -0.343  13.582  21.400  0.00  0.00    +0.000 A 
BRANCH  24  25
ATOM     25  N   UNL     1       0.758  13.945  20.649  0.00  0.00    +0.000 N 
ATOM     26  C   UNL     1       2.049  13.250  20.825  0.00  0.00    +0.000 C 
ATOM     27  C   UNL     1       3.157  14.289  21.040  0.00  0.00    +0.000 C 
ATOM     28  O   UNL     1       3.229  15.192  19.925  0.00  0.00    +0.000 OA
ATOM     29  C   UNL     1       1.987  15.918  19.804  0.00  0.00    +0.000 C 
ATOM     30  C   UNL     1       0.780  14.979  19.610  0.00  0.00    +0.000 C 
ENDBRANCH  24  25
BRANCH  21  31
ATOM     31  S   UNL     1      -4.134  13.134  23.951  0.00  0.00    +0.000 S 
ATOM     32  O   UNL     1      -5.206  13.778  23.231  0.00  0.00    +0.000 OA
ATOM     33  O   UNL     1      -4.232  11.786  24.466  0.00  0.00    +0.000 OA
BRANCH  31  34
ATOM     34  N   UNL     1      -3.766  14.111  25.254  0.00  0.00    +0.000 NA
ATOM     35  H   UNL     1      -2.967  14.710  25.046  0.00  0.00    +0.000 HD
ATOM     36  H   UNL     1      -4.596  14.604  25.578  0.00  0.00    +0.000 HD
ENDBRANCH  31  34
ENDBRANCH  21  31
ENDBRANCH   5  19
TORSDOF 6
ENDMDL
MODEL 5
REMARK VINA RESULT:      -7.7      2.898      4.340
REMARK  Name = 
REMARK  7 active torsions:
REMARK  status: ('A' for Active; 'I' for Inactive)
REMARK    1  A    between atoms: C_1  and  C_2
REMARK    2  A    between atoms: C_2  and  C_4
REMARK    3  A    between atoms: C_7  and  N_8
REMARK    4  A    between atoms: C_12  and  C_14
REMARK    5  A    between atoms: C_16  and  S_17
REMARK    6  A    between atoms: S_17  and  N_18
REMARK    7  A    between atoms: C_23  and  N_24
REMARK                            x       y       z     vdW  Elec       q    Type
REMARK                         _______ _______ _______ _____ _____    ______ ____
ROOT
ATOM      1  N   UNL     1       2.880   7.539  18.656  0.00  0.00    +0.000 N 
ATOM      2  C   UNL     1       2.286   6.979  19.878  0.00  0.00    +0.000 C 
ATOM      3  C   UNL     1       1.700   8.137  20.740  0.00  0.00    +0.000 C 
ATOM      4  N   UNL     1       0.818   9.053  19.976  0.00  0.00    +0.000 N 
ATOM      5  C   UNL     1      -0.241   9.689  20.662  0.00  0.00    +0.000 C 
ATOM      6  O   UNL     1      -0.466   9.425  21.842  0.00  0.00    +0.000 OA
ATOM      7  C   UNL     1       1.393   9.479  18.687  0.00  0.00    +0.000 C 
ATOM      8  C   UNL     1       1.922   8.315  17.854  0.00  0.00    +0.000 C 
ENDROOT
BRANCH   1  12
ATOM      9  C   UNL     1       5.708   5.391  16.368  0.00  0.00    +0.000 A 
ATOM     10  C   UNL     1       6.013   6.688  16.806  0.00  0.00    +0.000 A 
ATOM     11  C   UNL     1       5.076   7.434  17.548  0.00  0.00    +0.000 A 
ATOM     12  C   UNL     1       3.833   6.889  17.883  0.00  0.00    +0.000 A 
ATOM     13  C   UNL     1       3.570   5.572  17.451  0.00  0.00    +0.000 A 
ATOM     14  F   UNL     1       2.396   4.996  17.757  0.00  0.00    +0.000 F 
ATOM     15  C   UNL     1       4.480   4.831  16.710  0.00  0.00    +0.000 A 
BRANCH   9  17
ATOM     16  C   UNL     1       6.082   3.847  14.329  0.00  0.00    +0.000 C 
ATOM     17  C   UNL     1       6.627   4.565  15.532  0.00  0.00    +0.000 C 
ATOM     18  O   UNL     1       7.812   4.466  15.844  0.00  0.00    +0.000 OA
ENDBRANCH   9  17
ENDBRANCH   1  12
BRANCH   5  19
ATOM     19  C   UNL     1      -1.122  10.701  19.974  0.00  0.00    +0.000 A 
ATOM     20  C   UNL     1      -1.717  10.302  18.765  0.00  0.00    +0.000 A 
ATOM     21  C   UNL     1      -2.580  11.143  18.062  0.00  0.00    +0.000 A 
ATOM     22  C   UNL     1      -2.837  12.423  18.514  0.00  0.00    +0.000 A 
ATOM     23  C   UNL     1      -2.159  12.871  19.644  0.00  0.00    +0.000 A 
ATOM     24  C   UNL     1      -1.258  12.059  20.387  0.00  0.00    +0.000 A 
BRANCH  24  25
ATOM     25  N   UNL     1      -0.557  12.687  21.399  0.00  0.00    +0.000 N 
ATOM     26  C   UNL     1      -1.096  12.725  22.773  0.00  0.00    +0.000 C 
ATOM     27  C   UNL     1      -1.077  14.171  23.283  0.00  0.00    +0.000 C 
ATOM     28  O   UNL     1       0.259  14.701  23.260  0.00  0.00    +0.000 OA
ATOM     29  C   UNL     1       0.751  14.724  21.903  0.00  0.00    +0.000 C 
ATOM     30  C   UNL     1       0.757  13.323  21.260  0.00  0.00    +0.000 C 
ENDBRANCH  24  25
BRANCH  21  31
ATOM     31  S   UNL     1      -3.335  10.555  16.579  0.00  0.00    +0.000 S 
ATOM     32  O   UNL     1      -2.911   9.194  16.356  0.00  0.00    +0.000 OA
ATOM     33  O   UNL     1      -4.724  10.959  16.559  0.00  0.00    +0.000 OA
BRANCH  31  34
ATOM     34  N   UNL     1      -2.552  11.500  15.447  0.00  0.00    +0.000 NA
ATOM     35  H   UNL     1      -3.077  12.354  15.259  0.00  0.00    +0.000 HD
ATOM     36  H   UNL     1      -1.580  11.646  15.714  0.00  0.00    +0.000 HD
ENDBRANCH  31  34
ENDBRANCH  21  31
ENDBRANCH   5  19
TORSDOF 6
ENDMDL
MODEL 6
REMARK VINA RESULT:      -7.5      1.017      1.386
REMARK  Name = 
REMARK  7 active torsions:
REMARK  status: ('A' for Active; 'I' for Inactive)
REMARK    1  A    between atoms: C_1  and  C_2
REMARK    2  A    between atoms: C_2  and  C_4
REMARK    3  A    between atoms: C_7  and  N_8
REMARK    4  A    between atoms: C_12  and  C_14
REMARK    5  A    between atoms: C_16  and  S_17
REMARK    6  A    between atoms: S_17  and  N_18
REMARK    7  A    between atoms: C_23  and  N_24
REMARK                            x       y       z     vdW  Elec       q    Type
REMARK                         _______ _______ _______ _____ _____    ______ ____
ROOT
ATOM      1  N   UNL     1       1.281   8.445  19.402  0.00  0.00    +0.000 N 
ATOM      2  C   UNL     1       1.111   9.295  18.215  0.00  0.00    +0.000 C 
ATOM      3  C   UNL     1      -0.199  10.126  18.364  0.00  0.00    +0.000 C 
ATOM      4  N   UNL     1      -0.304  10.833  19.664  0.00  0.00    +0.000 N 
ATOM      5  C   UNL     1      -1.013  12.055  19.705  0.00  0.00    +0.000 C 
ATOM      6  O   UNL     1      -1.459  12.551  18.672  0.00  0.00    +0.000 OA
ATOM      7  C   UNL     1       0.014   9.978  20.822  0.00  0.00    +0.000 C 
ATOM      8  C   UNL     1       1.322   9.210  20.657  0.00  0.00    +0.000 C 
ENDROOT
BRANCH   1  12
ATOM      9  C   UNL     1       3.711   4.990  19.315  0.00  0.00    +0.000 A 
ATOM     10  C   UNL     1       2.728   5.122  20.308  0.00  0.00    +0.000 A 
ATOM     11  C   UNL     1       1.923   6.276  20.373  0.00  0.00    +0.000 A 
ATOM     12  C   UNL     1       2.070   7.303  19.436  0.00  0.00    +0.000 A 
ATOM     13  C   UNL     1       3.048   7.126  18.435  0.00  0.00    +0.000 A 
ATOM     14  F   UNL     1       3.221   8.078  17.502  0.00  0.00    +0.000 F 
ATOM     15  C   UNL     1       3.855   5.999  18.366  0.00  0.00    +0.000 A 
BRANCH   9  17
ATOM     16  C   UNL     1       4.104   2.440  19.468  0.00  0.00    +0.000 C 
ATOM     17  C   UNL     1       4.636   3.824  19.219  0.00  0.00    +0.000 C 
ATOM     18  O   UNL     1       5.823   4.007  18.956  0.00  0.00    +0.000 OA
ENDBRANCH   9  17
ENDBRANCH   1  12
BRANCH   5  19
ATOM     19  C   UNL     1      -1.239  12.785  21.006  0.00  0.00    +0.000 A 
ATOM     20  C   UNL     1      -2.507  12.645  21.595  0.00  0.00    +0.000 A 
ATOM     21  C   UNL     1      -2.815  13.245  22.817  0.00  0.00    +0.000 A 
ATOM     22  C   UNL     1      -1.889  14.041  23.463  0.00  0.00    +0.000 A 
ATOM     23  C   UNL     1      -0.674  14.284  22.828  0.00  0.00    +0.000 A 
ATOM     24  C   UNL     1      -0.317  13.710  21.578  0.00  0.00    +0.000 A 
BRANCH  24  25
ATOM     25  N   UNL     1       0.861  14.156  21.011  0.00  0.00    +0.000 N 
ATOM     26  C   UNL     1       0.983  15.545  20.527  0.00  0.00    +0.000 C 
ATOM     27  C   UNL     1       1.514  15.534  19.088  0.00  0.00    +0.000 C 
ATOM     28  O   UNL     1       2.789  14.874  19.022  0.00  0.00    +0.000 OA
ATOM     29  C   UNL     1       2.646  13.497  19.431  0.00  0.00    +0.000 C 
ATOM     30  C   UNL     1       2.089  13.368  20.863  0.00  0.00    +0.000 C 
ENDBRANCH  24  25
BRANCH  21  31
ATOM     31  S   UNL     1      -4.410  12.981  23.526  0.00  0.00    +0.000 S 
ATOM     32  O   UNL     1      -4.319  11.892  24.469  0.00  0.00    +0.000 OA
ATOM     33  O   UNL     1      -5.002  14.259  23.856  0.00  0.00    +0.000 OA
BRANCH  31  34
ATOM     34  N   UNL     1      -5.239  12.406  22.196  0.00  0.00    +0.000 NA
ATOM     35  H   UNL     1      -6.195  12.760  22.181  0.00  0.00    +0.000 HD
ATOM     36  H   UNL     1      -4.708  12.572  21.344  0.00  0.00    +0.000 HD
ENDBRANCH  31  34
ENDBRANCH  21  31
ENDBRANCH   5  19
TORSDOF 6
ENDMDL
MODEL 7
REMARK VINA RESULT:      -7.5      3.728      9.413
REMARK  Name = 
REMARK  7 active torsions:
REMARK  status: ('A' for Active; 'I' for Inactive)
REMARK    1  A    between atoms: C_1  and  C_2
REMARK    2  A    between atoms: C_2  and  C_4
REMARK    3  A    between atoms: C_7  and  N_8
REMARK    4  A    between atoms: C_12  and  C_14
REMARK    5  A    between atoms: C_16  and  S_17
REMARK    6  A    between atoms: S_17  and  N_18
REMARK    7  A    between atoms: C_23  and  N_24
REMARK                            x       y       z     vdW  Elec       q    Type
REMARK                         _______ _______ _______ _____ _____    ______ ____
ROOT
ATOM      1  N   UNL     1       0.967   9.435  19.874  0.00  0.00    +0.000 N 
ATOM      2  C   UNL     1       1.195   9.584  18.430  0.00  0.00    +0.000 C 
ATOM      3  C   UNL     1       2.550   8.913  18.054  0.00  0.00    +0.000 C 
ATOM      4  N   UNL     1       2.688   7.530  18.572  0.00  0.00    +0.000 N 
ATOM      5  C   UNL     1       3.466   6.612  17.832  0.00  0.00    +0.000 C 
ATOM      6  O   UNL     1       3.949   6.937  16.748  0.00  0.00    +0.000 OA
ATOM      7  C   UNL     1       2.311   7.397  19.992  0.00  0.00    +0.000 C 
ATOM      8  C   UNL     1       0.961   8.032  20.314  0.00  0.00    +0.000 C 
ENDROOT
BRANCH   1  12
ATOM      9  C   UNL     1      -1.628  11.753  22.270  0.00  0.00    +0.000 A 
ATOM     10  C   UNL     1      -1.705  11.848  20.872  0.00  0.00    +0.000 A 
ATOM     11  C   UNL     1      -0.833  11.105  20.053  0.00  0.00    +0.000 A 
ATOM     12  C   UNL     1       0.111  10.239  20.614  0.00  0.00    +0.000 A 
ATOM     13  C   UNL     1       0.142  10.147  22.022  0.00  0.00    +0.000 A 
ATOM     14  F   UNL     1       1.021   9.320  22.612  0.00  0.00    +0.000 F 
ATOM     15  C   UNL     1      -0.703  10.882  22.840  0.00  0.00    +0.000 A 
BRANCH   9  17
ATOM     16  C   UNL     1      -1.989  13.889  23.680  0.00  0.00    +0.000 C 
ATOM     17  C   UNL     1      -2.478  12.552  23.200  0.00  0.00    +0.000 C 
ATOM     18  O   UNL     1      -3.559  12.101  23.577  0.00  0.00    +0.000 OA
ENDBRANCH   9  17
ENDBRANCH   1  12
BRANCH   5  19
ATOM     19  C   UNL     1       3.725   5.217  18.342  0.00  0.00    +0.000 A 
ATOM     20  C   UNL     1       2.718   4.636  19.132  0.00  0.00    +0.000 A 
ATOM     21  C   UNL     1       2.834   3.337  19.626  0.00  0.00    +0.000 A 
ATOM     22  C   UNL     1       3.976   2.595  19.391  0.00  0.00    +0.000 A 
ATOM     23  C   UNL     1       5.029   3.203  18.713  0.00  0.00    +0.000 A 
ATOM     24  C   UNL     1       4.966   4.528  18.203  0.00  0.00    +0.000 A 
BRANCH  24  25
ATOM     25  N   UNL     1       6.137   5.040  17.678  0.00  0.00    +0.000 N 
ATOM     26  C   UNL     1       6.940   6.014  18.443  0.00  0.00    +0.000 C 
ATOM     27  C   UNL     1       7.239   7.231  17.557  0.00  0.00    +0.000 C 
ATOM     28  O   UNL     1       7.943   6.833  16.370  0.00  0.00    +0.000 OA
ATOM     29  C   UNL     1       7.122   5.935  15.593  0.00  0.00    +0.000 C 
ATOM     30  C   UNL     1       6.726   4.674  16.386  0.00  0.00    +0.000 C 
ENDBRANCH  24  25
BRANCH  21  31
ATOM     31  S   UNL     1       1.506   2.652  20.566  0.00  0.00    +0.000 S 
ATOM     32  O   UNL     1       0.913   1.577  19.808  0.00  0.00    +0.000 OA
ATOM     33  O   UNL     1       1.923   2.505  21.943  0.00  0.00    +0.000 OA
BRANCH  31  34
ATOM     34  N   UNL     1       0.427   3.925  20.533  0.00  0.00    +0.000 NA
ATOM     35  H   UNL     1       0.853   4.754  20.120  0.00  0.00    +0.000 HD
ATOM     36  H   UNL     1      -0.452   3.639  20.105  0.00  0.00    +0.000 HD
ENDBRANCH  31  34
ENDBRANCH  21  31
ENDBRANCH   5  19
TORSDOF 6
ENDMDL
MODEL 8
REMARK VINA RESULT:      -7.3      1.169      1.738
REMARK  Name = 
REMARK  7 active torsions:
REMARK  status: ('A' for Active; 'I' for Inactive)
REMARK    1  A    between atoms: C_1  and  C_2
REMARK    2  A    between atoms: C_2  and  C_4
REMARK    3  A    between atoms: C_7  and  N_8
REMARK    4  A    between atoms: C_12  and  C_14
REMARK    5  A    between atoms: C_16  and  S_17
REMARK    6  A    between atoms: S_17  and  N_18
REMARK    7  A    between atoms: C_23  and  N_24
REMARK                            x       y       z     vdW  Elec       q    Type
REMARK                         _______ _______ _______ _____ _____    ______ ____
ROOT
ATOM      1  N   UNL     1       1.401   8.407  19.169  0.00  0.00    +0.000 N 
ATOM      2  C   UNL     1       1.259   9.218  17.951  0.00  0.00    +0.000 C 
ATOM      3  C   UNL     1      -0.059  10.044  18.037  0.00  0.00    +0.000 C 
ATOM      4  N   UNL     1      -0.204  10.791  19.310  0.00  0.00    +0.000 N 
ATOM      5  C   UNL     1      -0.921  12.010  19.293  0.00  0.00    +0.000 C 
ATOM      6  O   UNL     1      -1.342  12.469  18.233  0.00  0.00    +0.000 OA
ATOM      7  C   UNL     1       0.087   9.977  20.504  0.00  0.00    +0.000 C 
ATOM      8  C   UNL     1       1.403   9.213  20.399  0.00  0.00    +0.000 C 
ENDROOT
BRANCH   1  12
ATOM      9  C   UNL     1       3.850   4.966  19.259  0.00  0.00    +0.000 A 
ATOM     10  C   UNL     1       2.855   5.134  20.234  0.00  0.00    +0.000 A 
ATOM     11  C   UNL     1       2.044   6.286  20.241  0.00  0.00    +0.000 A 
ATOM     12  C   UNL     1       2.196   7.273  19.262  0.00  0.00    +0.000 A 
ATOM     13  C   UNL     1       3.187   7.058  18.280  0.00  0.00    +0.000 A 
ATOM     14  F   UNL     1       3.366   7.969  17.309  0.00  0.00    +0.000 F 
ATOM     15  C   UNL     1       4.000   5.934  18.269  0.00  0.00    +0.000 A 
BRANCH   9  17
ATOM     16  C   UNL     1       4.270   2.437  19.592  0.00  0.00    +0.000 C 
ATOM     17  C   UNL     1       4.783   3.802  19.224  0.00  0.00    +0.000 C 
ATOM     18  O   UNL     1       5.960   3.972  18.914  0.00  0.00    +0.000 OA
ENDBRANCH   9  17
ENDBRANCH   1  12
BRANCH   5  19
ATOM     19  C   UNL     1      -1.187  12.779  20.563  0.00  0.00    +0.000 A 
ATOM     20  C   UNL     1      -2.475  12.660  21.114  0.00  0.00    +0.000 A 
ATOM     21  C   UNL     1      -2.821  13.298  22.306  0.00  0.00    +0.000 A 
ATOM     22  C   UNL     1      -1.913  14.111  22.958  0.00  0.00    +0.000 A 
ATOM     23  C   UNL     1      -0.677  14.332  22.357  0.00  0.00    +0.000 A 
ATOM     24  C   UNL     1      -0.282  13.719  21.137  0.00  0.00    +0.000 A 
BRANCH  24  25
ATOM     25  N   UNL     1       0.917  14.144  20.596  0.00  0.00    +0.000 N 
ATOM     26  C   UNL     1       2.155  13.370  20.814  0.00  0.00    +0.000 C 
ATOM     27  C   UNL     1       3.253  14.308  21.329  0.00  0.00    +0.000 C 
ATOM     28  O   UNL     1       3.493  15.372  20.392  0.00  0.00    +0.000 OA
ATOM     29  C   UNL     1       2.297  16.165  20.239  0.00  0.00    +0.000 C 
ATOM     30  C   UNL     1       1.100  15.326  19.748  0.00  0.00    +0.000 C 
ENDBRANCH  24  25
BRANCH  21  31
ATOM     31  S   UNL     1      -4.439  13.060  22.970  0.00  0.00    +0.000 S 
ATOM     32  O   UNL     1      -4.886  14.305  23.547  0.00  0.00    +0.000 OA
ATOM     33  O   UNL     1      -5.233  12.300  22.029  0.00  0.00    +0.000 OA
BRANCH  31  34
ATOM     34  N   UNL     1      -4.096  12.030  24.238  0.00  0.00    +0.000 NA
ATOM     35  H   UNL     1      -3.170  12.219  24.621  0.00  0.00    +0.000 HD
ATOM     36  H   UNL     1      -4.851  12.039  24.921  0.00  0.00    +0.000 HD
ENDBRANCH  31  34
ENDBRANCH  21  31
ENDBRANCH   5  19
TORSDOF 6
ENDMDL
MODEL 9
REMARK VINA RESULT:      -7.3      3.740      9.490
REMARK  Name = 
REMARK  7 active torsions:
REMARK  status: ('A' for Active; 'I' for Inactive)
REMARK    1  A    between atoms: C_1  and  C_2
REMARK    2  A    between atoms: C_2  and  C_4
REMARK    3  A    between atoms: C_7  and  N_8
REMARK    4  A    between atoms: C_12  and  C_14
REMARK    5  A    between atoms: C_16  and  S_17
REMARK    6  A    between atoms: S_17  and  N_18
REMARK    7  A    between atoms: C_23  and  N_24
REMARK                            x       y       z     vdW  Elec       q    Type
REMARK                         _______ _______ _______ _____ _____    ______ ____
ROOT
ATOM      1  N   UNL     1       1.255   9.492  20.049  0.00  0.00    +0.000 N 
ATOM      2  C   UNL     1       1.335   9.613  18.587  0.00  0.00    +0.000 C 
ATOM      3  C   UNL     1       2.613   8.879  18.082  0.00  0.00    +0.000 C 
ATOM      4  N   UNL     1       2.746   7.498  18.607  0.00  0.00    +0.000 N 
ATOM      5  C   UNL     1       3.403   6.537  17.805  0.00  0.00    +0.000 C 
ATOM      6  O   UNL     1       3.781   6.826  16.671  0.00  0.00    +0.000 OA
ATOM      7  C   UNL     1       2.517   7.400  20.060  0.00  0.00    +0.000 C 
ATOM      8  C   UNL     1       1.238   8.097  20.512  0.00  0.00    +0.000 C 
ENDROOT
BRANCH   1  12
ATOM      9  C   UNL     1      -0.861  12.220  22.485  0.00  0.00    +0.000 A 
ATOM     10  C   UNL     1      -0.957  10.844  22.740  0.00  0.00    +0.000 A 
ATOM     11  C   UNL     1      -0.282   9.913  21.925  0.00  0.00    +0.000 A 
ATOM     12  C   UNL     1       0.517  10.343  20.862  0.00  0.00    +0.000 A 
ATOM     13  C   UNL     1       0.614  11.735  20.651  0.00  0.00    +0.000 A 
ATOM     14  F   UNL     1       1.380  12.201  19.650  0.00  0.00    +0.000 F 
ATOM     15  C   UNL     1      -0.055  12.661  21.439  0.00  0.00    +0.000 A 
BRANCH   9  17
ATOM     16  C   UNL     1      -3.084  13.373  23.125  0.00  0.00    +0.000 C 
ATOM     17  C   UNL     1      -1.592  13.258  23.268  0.00  0.00    +0.000 C 
ATOM     18  O   UNL     1      -0.967  14.018  24.007  0.00  0.00    +0.000 OA
ENDBRANCH   9  17
ENDBRANCH   1  12
BRANCH   5  19
ATOM     19  C   UNL     1       3.656   5.138  18.309  0.00  0.00    +0.000 A 
ATOM     20  C   UNL     1       2.645   4.559  19.095  0.00  0.00    +0.000 A 
ATOM     21  C   UNL     1       2.756   3.256  19.584  0.00  0.00    +0.000 A 
ATOM     22  C   UNL     1       3.895   2.511  19.347  0.00  0.00    +0.000 A 
ATOM     23  C   UNL     1       4.951   3.118  18.673  0.00  0.00    +0.000 A 
ATOM     24  C   UNL     1       4.894   4.446  18.169  0.00  0.00    +0.000 A 
BRANCH  24  25
ATOM     25  N   UNL     1       6.068   4.956  17.648  0.00  0.00    +0.000 N 
ATOM     26  C   UNL     1       6.839   5.973  18.391  0.00  0.00    +0.000 C 
ATOM     27  C   UNL     1       7.137   7.158  17.463  0.00  0.00    +0.000 C 
ATOM     28  O   UNL     1       7.873   6.725  16.307  0.00  0.00    +0.000 OA
ATOM     29  C   UNL     1       7.083   5.784  15.550  0.00  0.00    +0.000 C 
ATOM     30  C   UNL     1       6.690   4.548  16.384  0.00  0.00    +0.000 C 
ENDBRANCH  24  25
BRANCH  21  31
ATOM     31  S   UNL     1       1.423   2.573  20.519  0.00  0.00    +0.000 S 
ATOM     32  O   UNL     1       0.816   1.516  19.747  0.00  0.00    +0.000 OA
ATOM     33  O   UNL     1       1.844   2.401  21.892  0.00  0.00    +0.000 OA
BRANCH  31  34
ATOM     34  N   UNL     1       0.358   3.858  20.508  0.00  0.00    +0.000 NA
ATOM     35  H   UNL     1       0.464   4.426  21.347  0.00  0.00    +0.000 HD
ATOM     36  H   UNL     1       0.427   4.372  19.632  0.00  0.00    +0.000 HD
ENDBRANCH  31  34
ENDBRANCH  21  31
ENDBRANCH   5  19
TORSDOF 6
ENDMDL
