MODEL 1
REMARK VINA RESULT:      -8.0      0.000      0.000
REMARK  Name = 
REMARK  3 active torsions:
REMARK  status: ('A' for Active; 'I' for Inactive)
REMARK    1  A    between atoms: C_1  and  C_2
REMARK    2  A    between atoms: C_5  and  C_6
REMARK    3  A    between atoms: C_17  and  C_18
REMARK                            x       y       z     vdW  Elec       q    Type
REMARK                         _______ _______ _______ _____ _____    ______ ____
ROOT
ATOM      1  C   UNL     1       2.526   7.883  18.381  0.00  0.00    +0.000 A 
ATOM      2  C   UNL     1       3.457   7.665  17.426  0.00  0.00    +0.000 A 
ATOM      3  N   UNL     1       3.952   6.389  17.254  0.00  0.00    +0.000 N 
ATOM      4  C   UNL     1       3.525   5.366  18.059  0.00  0.00    +0.000 A 
ATOM      5  N   UNL     1       4.076   4.215  17.741  0.00  0.00    +0.000 NA
ATOM      6  C   UNL     1       4.912   4.508  16.697  0.00  0.00    +0.000 A 
ATOM      7  C   UNL     1       5.754   3.649  15.977  0.00  0.00    +0.000 A 
ATOM      8  C   UNL     1       6.520   4.178  14.934  0.00  0.00    +0.000 A 
ATOM      9  C   UNL     1       6.447   5.535  14.611  0.00  0.00    +0.000 A 
ATOM     10  C   UNL     1       5.612   6.410  15.318  0.00  0.00    +0.000 A 
ATOM     11  C   UNL     1       4.858   5.861  16.362  0.00  0.00    +0.000 A 
ATOM     12  C   UNL     1       2.546   5.657  19.086  0.00  0.00    +0.000 A 
ATOM     13  N   UNL     1       2.064   6.868  19.220  0.00  0.00    +0.000 NA
ENDROOT
BRANCH   1  18
ATOM     14  C   UNL     1       0.298  13.199  19.219  0.00  0.00    +0.000 C 
ATOM     15  C   UNL     1       0.885  11.838  18.998  0.00  0.00    +0.000 A 
ATOM     16  C   UNL     1       1.936  11.648  18.099  0.00  0.00    +0.000 A 
ATOM     17  C   UNL     1       2.468  10.370  17.890  0.00  0.00    +0.000 A 
ATOM     18  C   UNL     1       1.977   9.252  18.585  0.00  0.00    +0.000 A 
ATOM     19  C   UNL     1       0.912   9.455  19.476  0.00  0.00    +0.000 A 
ATOM     20  C   UNL     1       0.374  10.731  19.682  0.00  0.00    +0.000 A 
ENDBRANCH   1  18
BRANCH  12  21
ATOM     21  C   UNL     1       2.069   4.556  19.974  0.00  0.00    +0.000 A 
ATOM     22  C   UNL     1       2.595   4.379  21.259  0.00  0.00    +0.000 A 
ATOM     23  C   UNL     1       2.199   3.294  22.043  0.00  0.00    +0.000 A 
ATOM     24  C   UNL     1       1.257   2.393  21.553  0.00  0.00    +0.000 A 
ATOM     25  C   UNL     1       0.695   2.586  20.292  0.00  0.00    +0.000 A 
ATOM     26  C   UNL     1       1.092   3.669  19.503  0.00  0.00    +0.000 A 
ENDBRANCH  12  21
TORSDOF 2
ENDMDL
MODEL 2
REMARK VINA RESULT:      -7.8      0.102      1.341
REMARK  Name = 
REMARK  3 active torsions:
REMARK  status: ('A' for Active; 'I' for Inactive)
REMARK    1  A    between atoms: C_1  and  C_2
REMARK    2  A    between atoms: C_5  and  C_6
REMARK    3  A    between atoms: C_17  and  C_18
REMARK                            x       y       z     vdW  Elec       q    Type
REMARK                         _______ _______ _______ _____ _____    ______ ____
ROOT
ATOM      1  C   UNL     1       2.533   7.795  18.380  0.00  0.00    +0.000 A 
ATOM      2  C   UNL     1       3.469   7.613  17.422  0.00  0.00    +0.000 A 
ATOM      3  N   UNL     1       3.988   6.349  17.227  0.00  0.00    +0.000 N 
ATOM      4  C   UNL     1       3.580   5.304  18.012  0.00  0.00    +0.000 A 
ATOM      5  N   UNL     1       4.153   4.170  17.674  0.00  0.00    +0.000 NA
ATOM      6  C   UNL     1       4.985   4.498  16.636  0.00  0.00    +0.000 A 
ATOM      7  C   UNL     1       5.843   3.669  15.902  0.00  0.00    +0.000 A 
ATOM      8  C   UNL     1       6.600   4.231  14.869  0.00  0.00    +0.000 A 
ATOM      9  C   UNL     1       6.501   5.593  14.571  0.00  0.00    +0.000 A 
ATOM     10  C   UNL     1       5.650   6.438  15.294  0.00  0.00    +0.000 A 
ATOM     11  C   UNL     1       4.905   5.855  16.327  0.00  0.00    +0.000 A 
ATOM     12  C   UNL     1       2.595   5.556  19.044  0.00  0.00    +0.000 A 
ATOM     13  N   UNL     1       2.089   6.756  19.200  0.00  0.00    +0.000 NA
ENDROOT
BRANCH   1  18
ATOM     14  C   UNL     1       0.360  13.132  19.227  0.00  0.00    +0.000 C 
ATOM     15  C   UNL     1       0.905  11.752  19.014  0.00  0.00    +0.000 A 
ATOM     16  C   UNL     1       0.407  10.666  19.736  0.00  0.00    +0.000 A 
ATOM     17  C   UNL     1       0.932   9.383  19.540  0.00  0.00    +0.000 A 
ATOM     18  C   UNL     1       1.957   9.149  18.608  0.00  0.00    +0.000 A 
ATOM     19  C   UNL     1       2.458  10.252  17.899  0.00  0.00    +0.000 A 
ATOM     20  C   UNL     1       1.938  11.537  18.098  0.00  0.00    +0.000 A 
ENDBRANCH   1  18
BRANCH  12  21
ATOM     21  C   UNL     1       2.138   4.431  19.910  0.00  0.00    +0.000 A 
ATOM     22  C   UNL     1       1.156   3.532  19.475  0.00  0.00    +0.000 A 
ATOM     23  C   UNL     1       0.679   2.537  20.330  0.00  0.00    +0.000 A 
ATOM     24  C   UNL     1       1.198   2.423  21.617  0.00  0.00    +0.000 A 
ATOM     25  C   UNL     1       2.206   3.286  22.043  0.00  0.00    +0.000 A 
ATOM     26  C   UNL     1       2.684   4.285  21.191  0.00  0.00    +0.000 A 
ENDBRANCH  12  21
TORSDOF 2
ENDMDL
MODEL 3
REMARK VINA RESULT:      -7.7      3.679      6.503
REMARK  Name = 
REMARK  3 active torsions:
REMARK  status: ('A' for Active; 'I' for Inactive)
REMARK    1  A    between atoms: C_1  and  C_2
REMARK    2  A    between atoms: C_5  and  C_6
REMARK    3  A    between atoms: C_17  and  C_18
REMARK                            x       y       z     vdW  Elec       q    Type
REMARK                         _______ _______ _______ _____ _____    ______ ____
ROOT
ATOM      1  C   UNL     1       4.786   4.520  17.826  0.00  0.00    +0.000 A 
ATOM      2  C   UNL     1       4.847   3.993  16.583  0.00  0.00    +0.000 A 
ATOM      3  N   UNL     1       5.750   4.516  15.680  0.00  0.00    +0.000 N 
ATOM      4  C   UNL     1       6.550   5.570  16.031  0.00  0.00    +0.000 A 
ATOM      5  N   UNL     1       7.367   5.924  15.063  0.00  0.00    +0.000 NA
ATOM      6  C   UNL     1       7.070   5.073  14.031  0.00  0.00    +0.000 A 
ATOM      7  C   UNL     1       7.635   5.014  12.751  0.00  0.00    +0.000 A 
ATOM      8  C   UNL     1       7.172   4.045  11.856  0.00  0.00    +0.000 A 
ATOM      9  C   UNL     1       6.166   3.150  12.230  0.00  0.00    +0.000 A 
ATOM     10  C   UNL     1       5.587   3.194  13.505  0.00  0.00    +0.000 A 
ATOM     11  C   UNL     1       6.062   4.175  14.383  0.00  0.00    +0.000 A 
ATOM     12  C   UNL     1       6.426   6.117  17.367  0.00  0.00    +0.000 A 
ATOM     13  N   UNL     1       5.585   5.593  18.224  0.00  0.00    +0.000 NA
ENDROOT
BRANCH   1  18
ATOM     14  C   UNL     1       1.028   2.451  21.767  0.00  0.00    +0.000 C 
ATOM     15  C   UNL     1       1.990   2.972  20.742  0.00  0.00    +0.000 A 
ATOM     16  C   UNL     1       2.468   2.147  19.723  0.00  0.00    +0.000 A 
ATOM     17  C   UNL     1       3.377   2.639  18.779  0.00  0.00    +0.000 A 
ATOM     18  C   UNL     1       3.820   3.972  18.819  0.00  0.00    +0.000 A 
ATOM     19  C   UNL     1       3.342   4.787  19.856  0.00  0.00    +0.000 A 
ATOM     20  C   UNL     1       2.438   4.295  20.805  0.00  0.00    +0.000 A 
ENDBRANCH   1  18
BRANCH  12  21
ATOM     21  C   UNL     1       7.289   7.267  17.769  0.00  0.00    +0.000 A 
ATOM     22  C   UNL     1       8.262   7.130  18.767  0.00  0.00    +0.000 A 
ATOM     23  C   UNL     1       9.001   8.236  19.190  0.00  0.00    +0.000 A 
ATOM     24  C   UNL     1       8.785   9.480  18.602  0.00  0.00    +0.000 A 
ATOM     25  C   UNL     1       7.849   9.615  17.578  0.00  0.00    +0.000 A 
ATOM     26  C   UNL     1       7.104   8.511  17.154  0.00  0.00    +0.000 A 
ENDBRANCH  12  21
TORSDOF 2
ENDMDL
MODEL 4
REMARK VINA RESULT:      -7.5      3.476      8.672
REMARK  Name = 
REMARK  3 active torsions:
REMARK  status: ('A' for Active; 'I' for Inactive)
REMARK    1  A    between atoms: C_1  and  C_2
REMARK    2  A    between atoms: C_5  and  C_6
REMARK    3  A    between atoms: C_17  and  C_18
REMARK                            x       y       z     vdW  Elec       q    Type
REMARK                         _______ _______ _______ _____ _____    ______ ____
ROOT
ATOM      1  C   UNL     1       1.023  10.232  18.772  0.00  0.00    +0.000 A 
ATOM      2  C   UNL     1       1.748  11.359  18.950  0.00  0.00    +0.000 A 
ATOM      3  N   UNL     1       1.121  12.582  18.831  0.00  0.00    +0.000 N 
ATOM      4  C   UNL     1      -0.209  12.651  18.509  0.00  0.00    +0.000 A 
ATOM      5  N   UNL     1      -0.649  13.889  18.463  0.00  0.00    +0.000 NA
ATOM      6  C   UNL     1       0.447  14.658  18.749  0.00  0.00    +0.000 A 
ATOM      7  C   UNL     1       0.546  16.054  18.825  0.00  0.00    +0.000 A 
ATOM      8  C   UNL     1       1.782  16.623  19.144  0.00  0.00    +0.000 A 
ATOM      9  C   UNL     1       2.899  15.818  19.386  0.00  0.00    +0.000 A 
ATOM     10  C   UNL     1       2.821  14.422  19.314  0.00  0.00    +0.000 A 
ATOM     11  C   UNL     1       1.574  13.873  18.988  0.00  0.00    +0.000 A 
ATOM     12  C   UNL     1      -0.934  11.415  18.300  0.00  0.00    +0.000 A 
ATOM     13  N   UNL     1      -0.333  10.259  18.444  0.00  0.00    +0.000 NA
ENDROOT
BRANCH   1  18
ATOM     14  C   UNL     1       3.597   5.021  19.163  0.00  0.00    +0.000 C 
ATOM     15  C   UNL     1       2.935   6.363  19.078  0.00  0.00    +0.000 A 
ATOM     16  C   UNL     1       2.190   6.864  20.148  0.00  0.00    +0.000 A 
ATOM     17  C   UNL     1       1.563   8.112  20.054  0.00  0.00    +0.000 A 
ATOM     18  C   UNL     1       1.678   8.900  18.897  0.00  0.00    +0.000 A 
ATOM     19  C   UNL     1       2.419   8.380  17.825  0.00  0.00    +0.000 A 
ATOM     20  C   UNL     1       3.041   7.129  17.913  0.00  0.00    +0.000 A 
ENDBRANCH   1  18
BRANCH  12  21
ATOM     21  C   UNL     1      -2.383  11.468  17.948  0.00  0.00    +0.000 A 
ATOM     22  C   UNL     1      -3.350  11.818  18.900  0.00  0.00    +0.000 A 
ATOM     23  C   UNL     1      -4.707  11.780  18.576  0.00  0.00    +0.000 A 
ATOM     24  C   UNL     1      -5.103  11.413  17.292  0.00  0.00    +0.000 A 
ATOM     25  C   UNL     1      -4.146  11.106  16.327  0.00  0.00    +0.000 A 
ATOM     26  C   UNL     1      -2.786  11.139  16.648  0.00  0.00    +0.000 A 
ENDBRANCH  12  21
TORSDOF 2
ENDMDL
MODEL 5
REMARK VINA RESULT:      -7.5      3.453      8.648
REMARK  Name = 
REMARK  3 active torsions:
REMARK  status: ('A' for Active; 'I' for Inactive)
REMARK    1  A    between atoms: C_1  and  C_2
REMARK    2  A    between atoms: C_5  and  C_6
REMARK    3  A    between atoms: C_17  and  C_18
REMARK                            x       y       z     vdW  Elec       q    Type
REMARK                         _______ _______ _______ _____ _____    ______ ____
ROOT
ATOM      1  C   UNL     1       1.044  10.159  18.712  0.00  0.00    +0.000 A 
ATOM      2  C   UNL     1       1.746  11.296  18.913  0.00  0.00    +0.000 A 
ATOM      3  N   UNL     1       1.098  12.510  18.804  0.00  0.00    +0.000 N 
ATOM      4  C   UNL     1      -0.229  12.559  18.469  0.00  0.00    +0.000 A 
ATOM      5  N   UNL     1      -0.691  13.789  18.435  0.00  0.00    +0.000 NA
ATOM      6  C   UNL     1       0.388  14.574  18.744  0.00  0.00    +0.000 A 
ATOM      7  C   UNL     1       0.461  15.970  18.839  0.00  0.00    +0.000 A 
ATOM      8  C   UNL     1       1.683  16.557  19.179  0.00  0.00    +0.000 A 
ATOM      9  C   UNL     1       2.811  15.769  19.422  0.00  0.00    +0.000 A 
ATOM     10  C   UNL     1       2.759  14.373  19.330  0.00  0.00    +0.000 A 
ATOM     11  C   UNL     1       1.527  13.805  18.984  0.00  0.00    +0.000 A 
ATOM     12  C   UNL     1      -0.930  11.313  18.236  0.00  0.00    +0.000 A 
ATOM     13  N   UNL     1      -0.309  10.166  18.371  0.00  0.00    +0.000 NA
ENDROOT
BRANCH   1  18
ATOM     14  C   UNL     1       3.682   4.994  19.255  0.00  0.00    +0.000 C 
ATOM     15  C   UNL     1       3.003   6.321  19.099  0.00  0.00    +0.000 A 
ATOM     16  C   UNL     1       3.133   7.059  17.921  0.00  0.00    +0.000 A 
ATOM     17  C   UNL     1       2.507   8.304  17.790  0.00  0.00    +0.000 A 
ATOM     18  C   UNL     1       1.721   8.838  18.826  0.00  0.00    +0.000 A 
ATOM     19  C   UNL     1       1.609   8.092  20.009  0.00  0.00    +0.000 A 
ATOM     20  C   UNL     1       2.240   6.849  20.145  0.00  0.00    +0.000 A 
ENDBRANCH   1  18
BRANCH  12  21
ATOM     21  C   UNL     1      -2.376  11.345  17.869  0.00  0.00    +0.000 A 
ATOM     22  C   UNL     1      -2.803  11.042  16.570  0.00  0.00    +0.000 A 
ATOM     23  C   UNL     1      -4.150  11.160  16.222  0.00  0.00    +0.000 A 
ATOM     24  C   UNL     1      -5.079  11.561  17.179  0.00  0.00    +0.000 A 
ATOM     25  C   UNL     1      -4.669  11.822  18.485  0.00  0.00    +0.000 A 
ATOM     26  C   UNL     1      -3.321  11.708  18.836  0.00  0.00    +0.000 A 
ENDBRANCH  12  21
TORSDOF 2
ENDMDL
MODEL 6
REMARK VINA RESULT:      -7.4      3.989      7.754
REMARK  Name = 
REMARK  3 active torsions:
REMARK  status: ('A' for Active; 'I' for Inactive)
REMARK    1  A    between atoms: C_1  and  C_2
REMARK    2  A    between atoms: C_5  and  C_6
REMARK    3  A    between atoms: C_17  and  C_18
REMARK                            x       y       z     vdW  Elec       q    Type
REMARK                         _______ _______ _______ _____ _____    ______ ____
ROOT
ATOM      1  C   UNL     1      -1.565  12.107  19.024  0.00  0.00    +0.000 A 
ATOM      2  C   UNL     1      -0.939  13.302  18.935  0.00  0.00    +0.000 A 
ATOM      3  N   UNL     1       0.436  13.329  18.821  0.00  0.00    +0.000 N 
ATOM      4  C   UNL     1       1.154  12.163  18.827  0.00  0.00    +0.000 A 
ATOM      5  N   UNL     1       2.445  12.369  18.683  0.00  0.00    +0.000 NA
ATOM      6  C   UNL     1       2.571  13.730  18.599  0.00  0.00    +0.000 A 
ATOM      7  C   UNL     1       3.734  14.498  18.448  0.00  0.00    +0.000 A 
ATOM      8  C   UNL     1       3.616  15.889  18.379  0.00  0.00    +0.000 A 
ATOM      9  C   UNL     1       2.364  16.505  18.454  0.00  0.00    +0.000 A 
ATOM     10  C   UNL     1       1.190  15.756  18.607  0.00  0.00    +0.000 A 
ATOM     11  C   UNL     1       1.331  14.364  18.679  0.00  0.00    +0.000 A 
ATOM     12  C   UNL     1       0.439  10.910  18.953  0.00  0.00    +0.000 A 
ATOM     13  N   UNL     1      -0.870  10.897  19.032  0.00  0.00    +0.000 NA
ENDROOT
BRANCH   1  18
ATOM     14  C   UNL     1      -7.373  11.871  19.408  0.00  0.00    +0.000 C 
ATOM     15  C   UNL     1      -5.877  11.933  19.325  0.00  0.00    +0.000 A 
ATOM     16  C   UNL     1      -5.131  12.582  20.311  0.00  0.00    +0.000 A 
ATOM     17  C   UNL     1      -3.736  12.648  20.218  0.00  0.00    +0.000 A 
ATOM     18  C   UNL     1      -3.048  12.053  19.147  0.00  0.00    +0.000 A 
ATOM     19  C   UNL     1      -3.811  11.415  18.156  0.00  0.00    +0.000 A 
ATOM     20  C   UNL     1      -5.207  11.354  18.244  0.00  0.00    +0.000 A 
ENDBRANCH   1  18
BRANCH  12  21
ATOM     21  C   UNL     1       1.203   9.628  18.962  0.00  0.00    +0.000 A 
ATOM     22  C   UNL     1       1.838   9.153  17.808  0.00  0.00    +0.000 A 
ATOM     23  C   UNL     1       2.476   7.911  17.812  0.00  0.00    +0.000 A 
ATOM     24  C   UNL     1       2.502   7.149  18.978  0.00  0.00    +0.000 A 
ATOM     25  C   UNL     1       1.910   7.635  20.143  0.00  0.00    +0.000 A 
ATOM     26  C   UNL     1       1.267   8.875  20.142  0.00  0.00    +0.000 A 
ENDBRANCH  12  21
TORSDOF 2
ENDMDL
MODEL 7
REMARK VINA RESULT:      -7.3      3.464      8.720
REMARK  Name = 
REMARK  3 active torsions:
REMARK  status: ('A' for Active; 'I' for Inactive)
REMARK    1  A    between atoms: C_1  and  C_2
REMARK    2  A    between atoms: C_5  and  C_6
REMARK    3  A    between atoms: C_17  and  C_18
REMARK                            x       y       z     vdW  Elec       q    Type
REMARK                         _______ _______ _______ _____ _____    ______ ____
ROOT
ATOM      1  C   UNL     1       1.017  10.520  18.914  0.00  0.00    +0.000 A 
ATOM      2  C   UNL     1       1.817  11.593  18.730  0.00  0.00    +0.000 A 
ATOM      3  N   UNL     1       1.253  12.853  18.718  0.00  0.00    +0.000 N 
ATOM      4  C   UNL     1      -0.100  13.007  18.862  0.00  0.00    +0.000 A 
ATOM      5  N   UNL     1      -0.464  14.270  18.853  0.00  0.00    +0.000 NA
ATOM      6  C   UNL     1       0.703  14.966  18.678  0.00  0.00    +0.000 A 
ATOM      7  C   UNL     1       0.895  16.351  18.586  0.00  0.00    +0.000 A 
ATOM      8  C   UNL     1       2.193  16.839  18.412  0.00  0.00    +0.000 A 
ATOM      9  C   UNL     1       3.281  15.964  18.335  0.00  0.00    +0.000 A 
ATOM     10  C   UNL     1       3.109  14.577  18.423  0.00  0.00    +0.000 A 
ATOM     11  C   UNL     1       1.800  14.110  18.592  0.00  0.00    +0.000 A 
ATOM     12  C   UNL     1      -0.918  11.822  19.027  0.00  0.00    +0.000 A 
ATOM     13  N   UNL     1      -0.365  10.634  19.065  0.00  0.00    +0.000 NA
ENDROOT
BRANCH   1  18
ATOM     14  C   UNL     1       3.307   5.166  19.083  0.00  0.00    +0.000 C 
ATOM     15  C   UNL     1       2.716   6.543  19.024  0.00  0.00    +0.000 A 
ATOM     16  C   UNL     1       2.813   7.314  17.864  0.00  0.00    +0.000 A 
ATOM     17  C   UNL     1       2.270   8.604  17.822  0.00  0.00    +0.000 A 
ATOM     18  C   UNL     1       1.604   9.151  18.932  0.00  0.00    +0.000 A 
ATOM     19  C   UNL     1       1.525   8.370  20.095  0.00  0.00    +0.000 A 
ATOM     20  C   UNL     1       2.072   7.082  20.141  0.00  0.00    +0.000 A 
ENDBRANCH   1  18
BRANCH  12  21
ATOM     21  C   UNL     1      -2.394  11.969  19.184  0.00  0.00    +0.000 A 
ATOM     22  C   UNL     1      -3.277  11.553  18.179  0.00  0.00    +0.000 A 
ATOM     23  C   UNL     1      -4.649  11.775  18.306  0.00  0.00    +0.000 A 
ATOM     24  C   UNL     1      -5.147  12.396  19.449  0.00  0.00    +0.000 A 
ATOM     25  C   UNL     1      -4.280  12.774  20.473  0.00  0.00    +0.000 A 
ATOM     26  C   UNL     1      -2.906  12.556  20.348  0.00  0.00    +0.000 A 
ENDBRANCH  12  21
TORSDOF 2
ENDMDL
MODEL 8
REMARK VINA RESULT:      -7.3      3.508      8.751
REMARK  Name = 
REMARK  3 active torsions:
REMARK  status: ('A' for Active; 'I' for Inactive)
REMARK    1  A    between atoms: C_1  and  C_2
REMARK    2  A    between atoms: C_5  and  C_6
REMARK    3  A    between atoms: C_17  and  C_18
REMARK                            x       y       z     vdW  Elec       q    Type
REMARK                         _______ _______ _______ _____ _____    ______ ____
ROOT
ATOM      1  C   UNL     1       0.969  10.594  18.941  0.00  0.00    +0.000 A 
ATOM      2  C   UNL     1       1.777  11.662  18.762  0.00  0.00    +0.000 A 
ATOM      3  N   UNL     1       1.220  12.925  18.738  0.00  0.00    +0.000 N 
ATOM      4  C   UNL     1      -0.134  13.087  18.864  0.00  0.00    +0.000 A 
ATOM      5  N   UNL     1      -0.491  14.352  18.846  0.00  0.00    +0.000 NA
ATOM      6  C   UNL     1       0.682  15.041  18.681  0.00  0.00    +0.000 A 
ATOM      7  C   UNL     1       0.883  16.424  18.585  0.00  0.00    +0.000 A 
ATOM      8  C   UNL     1       2.186  16.904  18.425  0.00  0.00    +0.000 A 
ATOM      9  C   UNL     1       3.269  16.023  18.364  0.00  0.00    +0.000 A 
ATOM     10  C   UNL     1       3.089  14.638  18.457  0.00  0.00    +0.000 A 
ATOM     11  C   UNL     1       1.776  14.178  18.612  0.00  0.00    +0.000 A 
ATOM     12  C   UNL     1      -0.960  11.908  19.025  0.00  0.00    +0.000 A 
ATOM     13  N   UNL     1      -0.414  10.717  19.075  0.00  0.00    +0.000 NA
ENDROOT
BRANCH   1  18
ATOM     14  C   UNL     1       3.237   5.229  18.966  0.00  0.00    +0.000 C 
ATOM     15  C   UNL     1       2.655   6.610  18.976  0.00  0.00    +0.000 A 
ATOM     16  C   UNL     1       2.038   7.120  20.120  0.00  0.00    +0.000 A 
ATOM     17  C   UNL     1       1.485   8.406  20.114  0.00  0.00    +0.000 A 
ATOM     18  C   UNL     1       1.548   9.222  18.972  0.00  0.00    +0.000 A 
ATOM     19  C   UNL     1       2.160   8.693  17.826  0.00  0.00    +0.000 A 
ATOM     20  C   UNL     1       2.708   7.405  17.827  0.00  0.00    +0.000 A 
ENDBRANCH   1  18
BRANCH  12  21
ATOM     21  C   UNL     1      -2.437  12.063  19.164  0.00  0.00    +0.000 A 
ATOM     22  C   UNL     1      -3.002  12.652  20.302  0.00  0.00    +0.000 A 
ATOM     23  C   UNL     1      -4.389  12.712  20.453  0.00  0.00    +0.000 A 
ATOM     24  C   UNL     1      -5.217  12.202  19.456  0.00  0.00    +0.000 A 
ATOM     25  C   UNL     1      -4.663  11.654  18.300  0.00  0.00    +0.000 A 
ATOM     26  C   UNL     1      -3.276  11.589  18.147  0.00  0.00    +0.000 A 
ENDBRANCH  12  21
TORSDOF 2
ENDMDL
MODEL 9
REMARK VINA RESULT:      -7.3      4.062      7.781
REMARK  Name = 
REMARK  3 active torsions:
REMARK  status: ('A' for Active; 'I' for Inactive)
REMARK    1  A    between atoms: C_1  and  C_2
REMARK    2  A    between atoms: C_5  and  C_6
REMARK    3  A    between atoms: C_17  and  C_18
REMARK                            x       y       z     vdW  Elec       q    Type
REMARK                         _______ _______ _______ _____ _____    ______ ____
ROOT
ATOM      1  C   UNL     1      -1.543  12.302  19.420  0.00  0.00    +0.000 A 
ATOM      2  C   UNL     1      -0.883  13.469  19.252  0.00  0.00    +0.000 A 
ATOM      3  N   UNL     1       0.467  13.438  18.966  0.00  0.00    +0.000 N 
ATOM      4  C   UNL     1       1.130  12.242  18.883  0.00  0.00    +0.000 A 
ATOM      5  N   UNL     1       2.400  12.394  18.578  0.00  0.00    +0.000 NA
ATOM      6  C   UNL     1       2.573  13.749  18.479  0.00  0.00    +0.000 A 
ATOM      7  C   UNL     1       3.740  14.467  18.183  0.00  0.00    +0.000 A 
ATOM      8  C   UNL     1       3.674  15.863  18.127  0.00  0.00    +0.000 A 
ATOM      9  C   UNL     1       2.468  16.531  18.359  0.00  0.00    +0.000 A 
ATOM     10  C   UNL     1       1.292  15.832  18.658  0.00  0.00    +0.000 A 
ATOM     11  C   UNL     1       1.382  14.435  18.713  0.00  0.00    +0.000 A 
ATOM     12  C   UNL     1       0.383  11.020  19.099  0.00  0.00    +0.000 A 
ATOM     13  N   UNL     1      -0.905  11.063  19.341  0.00  0.00    +0.000 NA
ENDROOT
BRANCH   1  18
ATOM     14  C   UNL     1      -7.262  12.325  20.526  0.00  0.00    +0.000 C 
ATOM     15  C   UNL     1      -5.787  12.319  20.257  0.00  0.00    +0.000 A 
ATOM     16  C   UNL     1      -4.882  12.772  21.218  0.00  0.00    +0.000 A 
ATOM     17  C   UNL     1      -3.507  12.775  20.952  0.00  0.00    +0.000 A 
ATOM     18  C   UNL     1      -3.000  12.310  19.727  0.00  0.00    +0.000 A 
ATOM     19  C   UNL     1      -3.922  11.869  18.765  0.00  0.00    +0.000 A 
ATOM     20  C   UNL     1      -5.298  11.871  19.026  0.00  0.00    +0.000 A 
ENDBRANCH   1  18
BRANCH  12  21
ATOM     21  C   UNL     1       1.087   9.708  19.013  0.00  0.00    +0.000 A 
ATOM     22  C   UNL     1       1.201   8.870  20.129  0.00  0.00    +0.000 A 
ATOM     23  C   UNL     1       1.937   7.686  20.053  0.00  0.00    +0.000 A 
ATOM     24  C   UNL     1       2.543   7.323  18.853  0.00  0.00    +0.000 A 
ATOM     25  C   UNL     1       2.397   8.129  17.725  0.00  0.00    +0.000 A 
ATOM     26  C   UNL     1       1.665   9.317  17.798  0.00  0.00    +0.000 A 
ENDBRANCH  12  21
TORSDOF 2
ENDMDL
