MODEL 1
REMARK VINA RESULT:      -9.2      0.000      0.000
REMARK  Name = 
REMARK  6 active torsions:
REMARK  status: ('A' for Active; 'I' for Inactive)
REMARK    1  A    between atoms: C_1  and  C_2
REMARK    2  A    between atoms: C_8  and  C_9
REMARK    3  A    between atoms: C_12  and  C_13
REMARK    4  A    between atoms: C_13  and  N_14
REMARK    5  A    between atoms: N_14  and  C_15
REMARK    6  A    between atoms: C_29  and  C_30
REMARK                            x       y       z     vdW  Elec       q    Type
REMARK                         _______ _______ _______ _____ _____    ______ ____
ROOT
ATOM      1  C   UNL     1       8.209   8.474  18.284  0.00  0.00    +0.000 A 
ATOM      2  C   UNL     1       7.384   8.158  17.192  0.00  0.00    +0.000 A 
ATOM      3  C   UNL     1       6.906   6.858  16.990  0.00  0.00    +0.000 A 
ATOM      4  C   UNL     1       7.248   5.820  17.866  0.00  0.00    +0.000 A 
ATOM      5  C   UNL     1       8.072   6.117  18.956  0.00  0.00    +0.000 A 
ATOM      6  C   UNL     1       8.539   7.424  19.161  0.00  0.00    +0.000 A 
ENDROOT
BRANCH   1  14
ATOM      7  C   UNL     1       9.483  14.230  22.065  0.00  0.00    +0.000 C 
ATOM      8  C   UNL     1      10.469  14.954  21.143  0.00  0.00    +0.000 C 
ATOM      9  C   UNL     1      11.122  13.989  20.116  0.00  0.00    +0.000 C 
ATOM     10  N   UNL     1      10.212  13.674  19.015  0.00  0.00    +0.000 N 
ATOM     11  C   UNL     1       9.672  12.420  18.879  0.00  0.00    +0.000 A 
ATOM     12  N   UNL     1       9.972  11.473  19.778  0.00  0.00    +0.000 NA
ATOM     13  C   UNL     1       9.484  10.225  19.572  0.00  0.00    +0.000 A 
ATOM     14  C   UNL     1       8.704   9.847  18.498  0.00  0.00    +0.000 A 
ATOM     15  C   UNL     1       8.446  10.902  17.644  0.00  0.00    +0.000 A 
ATOM     16  N   UNL     1       8.894  12.168  17.816  0.00  0.00    +0.000 NA
ATOM     17  C   UNL     1       9.585  14.823  18.364  0.00  0.00    +0.000 C 
ATOM     18  C   UNL     1       8.929  15.758  19.419  0.00  0.00    +0.000 C 
ATOM     19  C   UNL     1       8.412  17.030  18.750  0.00  0.00    +0.000 C 
ATOM     20  N   UNL     1       9.852  16.144  20.511  0.00  0.00    +0.000 NA
ATOM     21  H   UNL     1       9.344  16.680  21.213  0.00  0.00    +0.000 HD
ENDBRANCH   1  14
BRANCH   4  22
ATOM     22  C   UNL     1       6.754   4.411  17.607  0.00  0.00    +0.000 C 
BRANCH  22  23
ATOM     23  N   UNL     1       5.418   4.465  17.028  0.00  0.00    +0.000 NA
ATOM     24  H   UNL     1       5.297   3.642  16.436  0.00  0.00    +0.000 HD
BRANCH  23  25
ATOM     25  C   UNL     1       4.321   4.513  17.994  0.00  0.00    +0.000 C 
ATOM     26  C   UNL     1       4.679   3.610  19.204  0.00  0.00    +0.000 C 
ATOM     27  C   UNL     1       3.329   3.334  19.783  0.00  0.00    +0.000 A 
ATOM     28  C   UNL     1       3.034   2.829  21.037  0.00  0.00    +0.000 A 
ATOM     29  C   UNL     1       1.694   2.678  21.386  0.00  0.00    +0.000 A 
ATOM     30  C   UNL     1       0.677   3.027  20.481  0.00  0.00    +0.000 A 
ATOM     31  C   UNL     1       0.988   3.488  19.197  0.00  0.00    +0.000 A 
ATOM     32  C   UNL     1       2.322   3.625  18.854  0.00  0.00    +0.000 A 
ATOM     33  C   UNL     1       2.927   4.017  17.535  0.00  0.00    +0.000 C 
ENDBRANCH  23  25
ENDBRANCH  22  23
ENDBRANCH   4  22
TORSDOF 4
ENDMDL
MODEL 2
REMARK VINA RESULT:      -9.1      0.296      1.391
REMARK  Name = 
REMARK  6 active torsions:
REMARK  status: ('A' for Active; 'I' for Inactive)
REMARK    1  A    between atoms: C_1  and  C_2
REMARK    2  A    between atoms: C_8  and  C_9
REMARK    3  A    between atoms: C_12  and  C_13
REMARK    4  A    between atoms: C_13  and  N_14
REMARK    5  A    between atoms: N_14  and  C_15
REMARK    6  A    between atoms: C_29  and  C_30
REMARK                            x       y       z     vdW  Elec       q    Type
REMARK                         _______ _______ _______ _____ _____    ______ ____
ROOT
ATOM      1  C   UNL     1       8.240   8.506  18.270  0.00  0.00    +0.000 A 
ATOM      2  C   UNL     1       8.538   7.464  19.164  0.00  0.00    +0.000 A 
ATOM      3  C   UNL     1       8.111   6.152  18.925  0.00  0.00    +0.000 A 
ATOM      4  C   UNL     1       7.357   5.836  17.789  0.00  0.00    +0.000 A 
ATOM      5  C   UNL     1       7.048   6.861  16.890  0.00  0.00    +0.000 A 
ATOM      6  C   UNL     1       7.488   8.172  17.128  0.00  0.00    +0.000 A 
ENDROOT
BRANCH   1  14
ATOM      7  C   UNL     1       9.308  14.212  22.188  0.00  0.00    +0.000 C 
ATOM      8  C   UNL     1      10.295  14.976  21.300  0.00  0.00    +0.000 C 
ATOM      9  C   UNL     1      10.990  14.047  20.267  0.00  0.00    +0.000 C 
ATOM     10  N   UNL     1      10.108  13.733  19.142  0.00  0.00    +0.000 N 
ATOM     11  C   UNL     1       9.600  12.471  18.971  0.00  0.00    +0.000 A 
ATOM     12  N   UNL     1       9.904  11.513  19.857  0.00  0.00    +0.000 NA
ATOM     13  C   UNL     1       9.450  10.259  19.617  0.00  0.00    +0.000 A 
ATOM     14  C   UNL     1       8.699   9.885  18.520  0.00  0.00    +0.000 A 
ATOM     15  C   UNL     1       8.433  10.950  17.683  0.00  0.00    +0.000 A 
ATOM     16  N   UNL     1       8.849  12.222  17.888  0.00  0.00    +0.000 NA
ATOM     17  C   UNL     1       9.468  14.880  18.502  0.00  0.00    +0.000 C 
ATOM     18  C   UNL     1       8.770  15.779  19.562  0.00  0.00    +0.000 C 
ATOM     19  C   UNL     1       8.237  17.052  18.908  0.00  0.00    +0.000 C 
ATOM     20  N   UNL     1       9.663  16.165  20.679  0.00  0.00    +0.000 NA
ATOM     21  H   UNL     1       9.129  16.674  21.381  0.00  0.00    +0.000 HD
ENDBRANCH   1  14
BRANCH   4  22
ATOM     22  C   UNL     1       6.869   4.417  17.570  0.00  0.00    +0.000 C 
BRANCH  22  23
ATOM     23  N   UNL     1       5.522   4.448  17.014  0.00  0.00    +0.000 NA
ATOM     24  H   UNL     1       5.560   4.056  16.072  0.00  0.00    +0.000 HD
BRANCH  23  25
ATOM     25  C   UNL     1       4.512   3.724  17.784  0.00  0.00    +0.000 C 
ATOM     26  C   UNL     1       3.201   4.554  17.795  0.00  0.00    +0.000 C 
ATOM     27  C   UNL     1       2.508   4.005  19.000  0.00  0.00    +0.000 A 
ATOM     28  C   UNL     1       1.176   4.146  19.347  0.00  0.00    +0.000 A 
ATOM     29  C   UNL     1       0.729   3.519  20.508  0.00  0.00    +0.000 A 
ATOM     30  C   UNL     1       1.616   2.771  21.301  0.00  0.00    +0.000 A 
ATOM     31  C   UNL     1       2.971   2.678  20.968  0.00  0.00    +0.000 A 
ATOM     32  C   UNL     1       3.409   3.312  19.818  0.00  0.00    +0.000 A 
ATOM     33  C   UNL     1       4.807   3.438  19.278  0.00  0.00    +0.000 C 
ENDBRANCH  23  25
ENDBRANCH  22  23
ENDBRANCH   4  22
TORSDOF 4
ENDMDL
MODEL 3
REMARK VINA RESULT:      -9.0      0.860      1.118
REMARK  Name = 
REMARK  6 active torsions:
REMARK  status: ('A' for Active; 'I' for Inactive)
REMARK    1  A    between atoms: C_1  and  C_2
REMARK    2  A    between atoms: C_8  and  C_9
REMARK    3  A    between atoms: C_12  and  C_13
REMARK    4  A    between atoms: C_13  and  N_14
REMARK    5  A    between atoms: N_14  and  C_15
REMARK    6  A    between atoms: C_29  and  C_30
REMARK                            x       y       z     vdW  Elec       q    Type
REMARK                         _______ _______ _______ _____ _____    ______ ____
ROOT
ATOM      1  C   UNL     1       8.042   8.710  18.138  0.00  0.00    +0.000 A 
ATOM      2  C   UNL     1       7.005   8.524  17.209  0.00  0.00    +0.000 A 
ATOM      3  C   UNL     1       6.442   7.261  16.986  0.00  0.00    +0.000 A 
ATOM      4  C   UNL     1       6.906   6.134  17.674  0.00  0.00    +0.000 A 
ATOM      5  C   UNL     1       7.941   6.300  18.599  0.00  0.00    +0.000 A 
ATOM      6  C   UNL     1       8.494   7.569  18.828  0.00  0.00    +0.000 A 
ENDROOT
BRANCH   1  14
ATOM      7  C   UNL     1       9.636  14.327  22.006  0.00  0.00    +0.000 C 
ATOM      8  C   UNL     1      10.689  14.988  21.112  0.00  0.00    +0.000 C 
ATOM      9  C   UNL     1      11.294  13.990  20.087  0.00  0.00    +0.000 C 
ATOM     10  N   UNL     1      10.387  13.749  18.965  0.00  0.00    +0.000 N 
ATOM     11  C   UNL     1       9.764  12.538  18.804  0.00  0.00    +0.000 A 
ATOM     12  N   UNL     1       9.979  11.564  19.700  0.00  0.00    +0.000 NA
ATOM     13  C   UNL     1       9.409  10.355  19.470  0.00  0.00    +0.000 A 
ATOM     14  C   UNL     1       8.627  10.043  18.376  0.00  0.00    +0.000 A 
ATOM     15  C   UNL     1       8.461  11.120  17.529  0.00  0.00    +0.000 A 
ATOM     16  N   UNL     1       8.993  12.351  17.724  0.00  0.00    +0.000 NA
ATOM     17  C   UNL     1       9.856  14.945  18.314  0.00  0.00    +0.000 C 
ATOM     18  C   UNL     1       9.245  15.914  19.366  0.00  0.00    +0.000 C 
ATOM     19  C   UNL     1       8.832  17.225  18.700  0.00  0.00    +0.000 C 
ATOM     20  N   UNL     1      10.170  16.225  20.480  0.00  0.00    +0.000 NA
ATOM     21  H   UNL     1       9.686  16.788  21.177  0.00  0.00    +0.000 HD
ENDBRANCH   1  14
BRANCH   4  22
ATOM     22  C   UNL     1       6.311   4.769  17.387  0.00  0.00    +0.000 C 
BRANCH  22  23
ATOM     23  N   UNL     1       6.407   3.938  18.581  0.00  0.00    +0.000 NA
ATOM     24  H   UNL     1       7.022   4.410  19.246  0.00  0.00    +0.000 HD
BRANCH  23  25
ATOM     25  C   UNL     1       5.135   3.649  19.242  0.00  0.00    +0.000 C 
ATOM     26  C   UNL     1       4.234   2.848  18.266  0.00  0.00    +0.000 C 
ATOM     27  C   UNL     1       2.874   3.108  18.830  0.00  0.00    +0.000 A 
ATOM     28  C   UNL     1       1.702   2.425  18.560  0.00  0.00    +0.000 A 
ATOM     29  C   UNL     1       0.543   2.818  19.227  0.00  0.00    +0.000 A 
ATOM     30  C   UNL     1       0.574   3.884  20.141  0.00  0.00    +0.000 A 
ATOM     31  C   UNL     1       1.753   4.601  20.367  0.00  0.00    +0.000 A 
ATOM     32  C   UNL     1       2.898   4.211  19.693  0.00  0.00    +0.000 A 
ATOM     33  C   UNL     1       4.260   4.847  19.690  0.00  0.00    +0.000 C 
ENDBRANCH  23  25
ENDBRANCH  22  23
ENDBRANCH   4  22
TORSDOF 4
ENDMDL
MODEL 4
REMARK VINA RESULT:      -8.9      6.362      8.301
REMARK  Name = 
REMARK  6 active torsions:
REMARK  status: ('A' for Active; 'I' for Inactive)
REMARK    1  A    between atoms: C_1  and  C_2
REMARK    2  A    between atoms: C_8  and  C_9
REMARK    3  A    between atoms: C_12  and  C_13
REMARK    4  A    between atoms: C_13  and  N_14
REMARK    5  A    between atoms: N_14  and  C_15
REMARK    6  A    between atoms: C_29  and  C_30
REMARK                            x       y       z     vdW  Elec       q    Type
REMARK                         _______ _______ _______ _____ _____    ______ ____
ROOT
ATOM      1  C   UNL     1       2.280   7.436  19.318  0.00  0.00    +0.000 A 
ATOM      2  C   UNL     1       3.184   7.450  18.243  0.00  0.00    +0.000 A 
ATOM      3  C   UNL     1       3.988   6.342  17.950  0.00  0.00    +0.000 A 
ATOM      4  C   UNL     1       3.929   5.182  18.732  0.00  0.00    +0.000 A 
ATOM      5  C   UNL     1       3.038   5.153  19.809  0.00  0.00    +0.000 A 
ATOM      6  C   UNL     1       2.225   6.261  20.091  0.00  0.00    +0.000 A 
ENDROOT
BRANCH   1  14
ATOM      7  C   UNL     1       0.643  14.246  19.338  0.00  0.00    +0.000 C 
ATOM      8  C   UNL     1      -0.850  14.171  19.675  0.00  0.00    +0.000 C 
ATOM      9  C   UNL     1      -1.443  12.765  19.383  0.00  0.00    +0.000 C 
ATOM     10  N   UNL     1      -1.085  11.799  20.423  0.00  0.00    +0.000 N 
ATOM     11  C   UNL     1      -0.210  10.774  20.167  0.00  0.00    +0.000 A 
ATOM     12  N   UNL     1       0.337  10.665  18.948  0.00  0.00    +0.000 NA
ATOM     13  C   UNL     1       1.136   9.597  18.706  0.00  0.00    +0.000 A 
ATOM     14  C   UNL     1       1.428   8.602  19.618  0.00  0.00    +0.000 A 
ATOM     15  C   UNL     1       0.825   8.823  20.840  0.00  0.00    +0.000 A 
ATOM     16  N   UNL     1       0.034   9.881  21.137  0.00  0.00    +0.000 NA
ATOM     17  C   UNL     1      -1.341  12.226  21.797  0.00  0.00    +0.000 C 
ATOM     18  C   UNL     1      -0.721  13.628  22.058  0.00  0.00    +0.000 C 
ATOM     19  C   UNL     1      -1.123  14.134  23.443  0.00  0.00    +0.000 C 
ATOM     20  N   UNL     1      -1.123  14.640  21.054  0.00  0.00    +0.000 NA
ATOM     21  H   UNL     1      -0.618  15.509  21.226  0.00  0.00    +0.000 HD
ENDBRANCH   1  14
BRANCH   4  22
ATOM     22  C   UNL     1       4.838   4.009  18.424  0.00  0.00    +0.000 C 
BRANCH  22  23
ATOM     23  N   UNL     1       6.118   4.504  17.933  0.00  0.00    +0.000 NA
ATOM     24  H   UNL     1       6.844   4.205  18.585  0.00  0.00    +0.000 HD
BRANCH  23  25
ATOM     25  C   UNL     1       6.483   4.062  16.588  0.00  0.00    +0.000 C 
ATOM     26  C   UNL     1       7.280   5.194  15.887  0.00  0.00    +0.000 C 
ATOM     27  C   UNL     1       7.095   4.844  14.446  0.00  0.00    +0.000 A 
ATOM     28  C   UNL     1       7.814   5.317  13.362  0.00  0.00    +0.000 A 
ATOM     29  C   UNL     1       7.492   4.830  12.097  0.00  0.00    +0.000 A 
ATOM     30  C   UNL     1       6.461   3.889  11.936  0.00  0.00    +0.000 A 
ATOM     31  C   UNL     1       5.708   3.457  13.032  0.00  0.00    +0.000 A 
ATOM     32  C   UNL     1       6.026   3.953  14.284  0.00  0.00    +0.000 A 
ATOM     33  C   UNL     1       5.338   3.721  15.601  0.00  0.00    +0.000 C 
ENDBRANCH  23  25
ENDBRANCH  22  23
ENDBRANCH   4  22
TORSDOF 4
ENDMDL
MODEL 5
REMARK VINA RESULT:      -8.8      6.698      8.621
REMARK  Name = 
REMARK  6 active torsions:
REMARK  status: ('A' for Active; 'I' for Inactive)
REMARK    1  A    between atoms: C_1  and  C_2
REMARK    2  A    between atoms: C_8  and  C_9
REMARK    3  A    between atoms: C_12  and  C_13
REMARK    4  A    between atoms: C_13  and  N_14
REMARK    5  A    between atoms: N_14  and  C_15
REMARK    6  A    between atoms: C_29  and  C_30
REMARK                            x       y       z     vdW  Elec       q    Type
REMARK                         _______ _______ _______ _____ _____    ______ ____
ROOT
ATOM      1  C   UNL     1       1.909   7.764  19.678  0.00  0.00    +0.000 A 
ATOM      2  C   UNL     1       1.992   6.588  20.443  0.00  0.00    +0.000 A 
ATOM      3  C   UNL     1       2.825   5.529  20.065  0.00  0.00    +0.000 A 
ATOM      4  C   UNL     1       3.597   5.599  18.899  0.00  0.00    +0.000 A 
ATOM      5  C   UNL     1       3.523   6.759  18.124  0.00  0.00    +0.000 A 
ATOM      6  C   UNL     1       2.696   7.824  18.512  0.00  0.00    +0.000 A 
ENDROOT
BRANCH   1  14
ATOM      7  C   UNL     1      -0.275  14.419  19.668  0.00  0.00    +0.000 C 
ATOM      8  C   UNL     1      -1.658  14.256  20.307  0.00  0.00    +0.000 C 
ATOM      9  C   UNL     1      -2.173  12.794  20.218  0.00  0.00    +0.000 C 
ATOM     10  N   UNL     1      -1.532  11.932  21.213  0.00  0.00    +0.000 N 
ATOM     11  C   UNL     1      -0.641  10.959  20.838  0.00  0.00    +0.000 A 
ATOM     12  N   UNL     1      -0.341  10.806  19.541  0.00  0.00    +0.000 NA
ATOM     13  C   UNL     1       0.483   9.786  19.198  0.00  0.00    +0.000 A 
ATOM     14  C   UNL     1       1.036   8.881  20.083  0.00  0.00    +0.000 A 
ATOM     15  C   UNL     1       0.673   9.142  21.389  0.00  0.00    +0.000 A 
ATOM     16  N   UNL     1      -0.132  10.157  21.784  0.00  0.00    +0.000 NA
ATOM     17  C   UNL     1      -1.545  12.434  22.585  0.00  0.00    +0.000 C 
ATOM     18  C   UNL     1      -1.009  13.893  22.639  0.00  0.00    +0.000 C 
ATOM     19  C   UNL     1      -1.168  14.463  24.047  0.00  0.00    +0.000 C 
ATOM     20  N   UNL     1      -1.689  14.800  21.686  0.00  0.00    +0.000 NA
ATOM     21  H   UNL     1      -1.237  15.713  21.703  0.00  0.00    +0.000 HD
ENDBRANCH   1  14
BRANCH   4  22
ATOM     22  C   UNL     1       4.461   4.423  18.486  0.00  0.00    +0.000 C 
BRANCH  22  23
ATOM     23  N   UNL     1       5.741   4.913  17.992  0.00  0.00    +0.000 NA
ATOM     24  H   UNL     1       6.451   4.712  18.698  0.00  0.00    +0.000 HD
BRANCH  23  25
ATOM     25  C   UNL     1       6.175   4.347  16.715  0.00  0.00    +0.000 C 
ATOM     26  C   UNL     1       7.056   5.390  15.978  0.00  0.00    +0.000 C 
ATOM     27  C   UNL     1       6.950   4.925  14.561  0.00  0.00    +0.000 A 
ATOM     28  C   UNL     1       7.753   5.281  13.492  0.00  0.00    +0.000 A 
ATOM     29  C   UNL     1       7.496   4.698  12.253  0.00  0.00    +0.000 A 
ATOM     30  C   UNL     1       6.443   3.780  12.103  0.00  0.00    +0.000 A 
ATOM     31  C   UNL     1       5.606   3.466  13.178  0.00  0.00    +0.000 A 
ATOM     32  C   UNL     1       5.862   4.057  14.403  0.00  0.00    +0.000 A 
ATOM     33  C   UNL     1       5.083   3.959  15.686  0.00  0.00    +0.000 C 
ENDBRANCH  23  25
ENDBRANCH  22  23
ENDBRANCH   4  22
TORSDOF 4
ENDMDL
MODEL 6
REMARK VINA RESULT:      -8.7      6.783      8.722
REMARK  Name = 
REMARK  6 active torsions:
REMARK  status: ('A' for Active; 'I' for Inactive)
REMARK    1  A    between atoms: C_1  and  C_2
REMARK    2  A    between atoms: C_8  and  C_9
REMARK    3  A    between atoms: C_12  and  C_13
REMARK    4  A    between atoms: C_13  and  N_14
REMARK    5  A    between atoms: N_14  and  C_15
REMARK    6  A    between atoms: C_29  and  C_30
REMARK                            x       y       z     vdW  Elec       q    Type
REMARK                         _______ _______ _______ _____ _____    ______ ____
ROOT
ATOM      1  C   UNL     1       2.075   7.862  19.385  0.00  0.00    +0.000 A 
ATOM      2  C   UNL     1       2.795   7.802  18.180  0.00  0.00    +0.000 A 
ATOM      3  C   UNL     1       3.530   6.665  17.826  0.00  0.00    +0.000 A 
ATOM      4  C   UNL     1       3.585   5.549  18.671  0.00  0.00    +0.000 A 
ATOM      5  C   UNL     1       2.878   5.595  19.875  0.00  0.00    +0.000 A 
ATOM      6  C   UNL     1       2.132   6.732  20.221  0.00  0.00    +0.000 A 
ENDROOT
BRANCH   1  14
ATOM      7  C   UNL     1      -2.157  11.654  23.480  0.00  0.00    +0.000 C 
ATOM      8  C   UNL     1      -1.952  13.047  22.875  0.00  0.00    +0.000 C 
ATOM      9  C   UNL     1      -0.642  13.135  22.045  0.00  0.00    +0.000 C 
ATOM     10  N   UNL     1      -0.789  12.506  20.732  0.00  0.00    +0.000 N 
ATOM     11  C   UNL     1      -0.140  11.336  20.431  0.00  0.00    +0.000 A 
ATOM     12  N   UNL     1       0.629  10.751  21.360  0.00  0.00    +0.000 NA
ATOM     13  C   UNL     1       1.317   9.638  21.004  0.00  0.00    +0.000 A 
ATOM     14  C   UNL     1       1.294   9.059  19.752  0.00  0.00    +0.000 A 
ATOM     15  C   UNL     1       0.462   9.733  18.881  0.00  0.00    +0.000 A 
ATOM     16  N   UNL     1      -0.259  10.837  19.192  0.00  0.00    +0.000 NA
ATOM     17  C   UNL     1      -1.955  12.925  19.958  0.00  0.00    +0.000 C 
ATOM     18  C   UNL     1      -3.249  12.809  20.813  0.00  0.00    +0.000 C 
ATOM     19  C   UNL     1      -4.439  13.392  20.053  0.00  0.00    +0.000 C 
ATOM     20  N   UNL     1      -3.147  13.495  22.122  0.00  0.00    +0.000 NA
ATOM     21  H   UNL     1      -3.986  13.310  22.669  0.00  0.00    +0.000 HD
ENDBRANCH   1  14
BRANCH   4  22
ATOM     22  C   UNL     1       4.421   4.344  18.287  0.00  0.00    +0.000 C 
BRANCH  22  23
ATOM     23  N   UNL     1       5.777   4.776  17.970  0.00  0.00    +0.000 NA
ATOM     24  H   UNL     1       6.394   4.453  18.717  0.00  0.00    +0.000 HD
BRANCH  23  25
ATOM     25  C   UNL     1       6.300   4.301  16.691  0.00  0.00    +0.000 C 
ATOM     26  C   UNL     1       7.067   5.460  16.002  0.00  0.00    +0.000 C 
ATOM     27  C   UNL     1       7.047   5.026  14.571  0.00  0.00    +0.000 A 
ATOM     28  C   UNL     1       7.824   5.504  13.532  0.00  0.00    +0.000 A 
ATOM     29  C   UNL     1       7.663   4.931  12.272  0.00  0.00    +0.000 A 
ATOM     30  C   UNL     1       6.729   3.900  12.073  0.00  0.00    +0.000 A 
ATOM     31  C   UNL     1       5.912   3.460  13.120  0.00  0.00    +0.000 A 
ATOM     32  C   UNL     1       6.072   4.042  14.365  0.00  0.00    +0.000 A 
ATOM     33  C   UNL     1       5.284   3.817  15.626  0.00  0.00    +0.000 C 
ENDBRANCH  23  25
ENDBRANCH  22  23
ENDBRANCH   4  22
TORSDOF 4
ENDMDL
MODEL 7
REMARK VINA RESULT:      -8.6      7.096      9.045
REMARK  Name = 
REMARK  6 active torsions:
REMARK  status: ('A' for Active; 'I' for Inactive)
REMARK    1  A    between atoms: C_1  and  C_2
REMARK    2  A    between atoms: C_8  and  C_9
REMARK    3  A    between atoms: C_12  and  C_13
REMARK    4  A    between atoms: C_13  and  N_14
REMARK    5  A    between atoms: N_14  and  C_15
REMARK    6  A    between atoms: C_29  and  C_30
REMARK                            x       y       z     vdW  Elec       q    Type
REMARK                         _______ _______ _______ _____ _____    ______ ____
ROOT
ATOM      1  C   UNL     1       1.756   8.274  19.377  0.00  0.00    +0.000 A 
ATOM      2  C   UNL     1       2.473   8.266  18.169  0.00  0.00    +0.000 A 
ATOM      3  C   UNL     1       3.270   7.175  17.800  0.00  0.00    +0.000 A 
ATOM      4  C   UNL     1       3.391   6.056  18.633  0.00  0.00    +0.000 A 
ATOM      5  C   UNL     1       2.687   6.049  19.841  0.00  0.00    +0.000 A 
ATOM      6  C   UNL     1       1.881   7.139  20.202  0.00  0.00    +0.000 A 
ENDROOT
BRANCH   1  14
ATOM      7  C   UNL     1      -2.662  11.782  23.529  0.00  0.00    +0.000 C 
ATOM      8  C   UNL     1      -2.539  13.189  22.936  0.00  0.00    +0.000 C 
ATOM      9  C   UNL     1      -1.240  13.359  22.101  0.00  0.00    +0.000 C 
ATOM     10  N   UNL     1      -1.358  12.735  20.783  0.00  0.00    +0.000 N 
ATOM     11  C   UNL     1      -0.646  11.607  20.467  0.00  0.00    +0.000 A 
ATOM     12  N   UNL     1       0.160  11.057  21.386  0.00  0.00    +0.000 NA
ATOM     13  C   UNL     1       0.907   9.988  21.017  0.00  0.00    +0.000 A 
ATOM     14  C   UNL     1       0.911   9.421  19.759  0.00  0.00    +0.000 A 
ATOM     15  C   UNL     1       0.037  10.055  18.899  0.00  0.00    +0.000 A 
ATOM     16  N   UNL     1      -0.743  11.113  19.224  0.00  0.00    +0.000 NA
ATOM     17  C   UNL     1      -2.550  13.095  20.018  0.00  0.00    +0.000 C 
ATOM     18  C   UNL     1      -3.831  12.898  20.877  0.00  0.00    +0.000 C 
ATOM     19  C   UNL     1      -5.056  13.420  20.128  0.00  0.00    +0.000 C 
ATOM     20  N   UNL     1      -3.761  13.577  22.192  0.00  0.00    +0.000 NA
ATOM     21  H   UNL     1      -4.585  13.339  22.742  0.00  0.00    +0.000 HD
ENDBRANCH   1  14
BRANCH   4  22
ATOM     22  C   UNL     1       4.291   4.904  18.234  0.00  0.00    +0.000 C 
BRANCH  22  23
ATOM     23  N   UNL     1       5.580   5.425  17.795  0.00  0.00    +0.000 NA
ATOM     24  H   UNL     1       6.311   4.831  18.187  0.00  0.00    +0.000 HD
BRANCH  23  25
ATOM     25  C   UNL     1       5.761   5.500  16.346  0.00  0.00    +0.000 C 
ATOM     26  C   UNL     1       5.097   4.259  15.693  0.00  0.00    +0.000 C 
ATOM     27  C   UNL     1       5.808   4.193  14.381  0.00  0.00    +0.000 A 
ATOM     28  C   UNL     1       5.441   3.476  13.255  0.00  0.00    +0.000 A 
ATOM     29  C   UNL     1       6.239   3.583  12.118  0.00  0.00    +0.000 A 
ATOM     30  C   UNL     1       7.387   4.395  12.127  0.00  0.00    +0.000 A 
ATOM     31  C   UNL     1       7.776   5.073  13.286  0.00  0.00    +0.000 A 
ATOM     32  C   UNL     1       6.984   4.954  14.414  0.00  0.00    +0.000 A 
ATOM     33  C   UNL     1       7.209   5.504  15.795  0.00  0.00    +0.000 C 
ENDBRANCH  23  25
ENDBRANCH  22  23
ENDBRANCH   4  22
TORSDOF 4
ENDMDL
MODEL 8
REMARK VINA RESULT:      -8.5      6.635      8.866
REMARK  Name = 
REMARK  6 active torsions:
REMARK  status: ('A' for Active; 'I' for Inactive)
REMARK    1  A    between atoms: C_1  and  C_2
REMARK    2  A    between atoms: C_8  and  C_9
REMARK    3  A    between atoms: C_12  and  C_13
REMARK    4  A    between atoms: C_13  and  N_14
REMARK    5  A    between atoms: N_14  and  C_15
REMARK    6  A    between atoms: C_29  and  C_30
REMARK                            x       y       z     vdW  Elec       q    Type
REMARK                         _______ _______ _______ _____ _____    ______ ____
ROOT
ATOM      1  C   UNL     1       2.339   7.869  18.661  0.00  0.00    +0.000 A 
ATOM      2  C   UNL     1       3.344   7.820  17.681  0.00  0.00    +0.000 A 
ATOM      3  C   UNL     1       4.271   6.772  17.638  0.00  0.00    +0.000 A 
ATOM      4  C   UNL     1       4.237   5.740  18.583  0.00  0.00    +0.000 A 
ATOM      5  C   UNL     1       3.246   5.775  19.568  0.00  0.00    +0.000 A 
ATOM      6  C   UNL     1       2.311   6.821  19.600  0.00  0.00    +0.000 A 
ENDROOT
BRANCH   1  14
ATOM      7  C   UNL     1      -2.098  12.295  21.789  0.00  0.00    +0.000 C 
ATOM      8  C   UNL     1      -2.294  13.325  20.672  0.00  0.00    +0.000 C 
ATOM      9  C   UNL     1      -1.154  13.267  19.619  0.00  0.00    +0.000 C 
ATOM     10  N   UNL     1      -1.317  12.136  18.705  0.00  0.00    +0.000 N 
ATOM     11  C   UNL     1      -0.462  11.065  18.743  0.00  0.00    +0.000 A 
ATOM     12  N   UNL     1       0.531  11.047  19.643  0.00  0.00    +0.000 NA
ATOM     13  C   UNL     1       1.404  10.011  19.603  0.00  0.00    +0.000 A 
ATOM     14  C   UNL     1       1.358   8.970  18.699  0.00  0.00    +0.000 A 
ATOM     15  C   UNL     1       0.290   9.082  17.830  0.00  0.00    +0.000 A 
ATOM     16  N   UNL     1      -0.618  10.086  17.841  0.00  0.00    +0.000 NA
ATOM     17  C   UNL     1      -2.636  12.007  18.090  0.00  0.00    +0.000 C 
ATOM     18  C   UNL     1      -3.751  12.052  19.172  0.00  0.00    +0.000 C 
ATOM     19  C   UNL     1      -5.129  12.072  18.512  0.00  0.00    +0.000 C 
ATOM     20  N   UNL     1      -3.645  13.226  20.070  0.00  0.00    +0.000 NA
ATOM     21  H   UNL     1      -4.344  13.154  20.808  0.00  0.00    +0.000 HD
ENDBRANCH   1  14
BRANCH   4  22
ATOM     22  C   UNL     1       5.276   4.637  18.543  0.00  0.00    +0.000 C 
BRANCH  22  23
ATOM     23  N   UNL     1       6.452   5.105  17.819  0.00  0.00    +0.000 NA
ATOM     24  H   UNL     1       7.266   4.971  18.420  0.00  0.00    +0.000 HD
BRANCH  23  25
ATOM     25  C   UNL     1       6.699   4.444  16.538  0.00  0.00    +0.000 C 
ATOM     26  C   UNL     1       7.425   5.438  15.594  0.00  0.00    +0.000 C 
ATOM     27  C   UNL     1       7.116   4.858  14.252  0.00  0.00    +0.000 A 
ATOM     28  C   UNL     1       7.733   5.140  13.046  0.00  0.00    +0.000 A 
ATOM     29  C   UNL     1       7.304   4.455  11.911  0.00  0.00    +0.000 A 
ATOM     30  C   UNL     1       6.268   3.510  11.998  0.00  0.00    +0.000 A 
ATOM     31  C   UNL     1       5.616   3.271  13.212  0.00  0.00    +0.000 A 
ATOM     32  C   UNL     1       6.042   3.963  14.333  0.00  0.00    +0.000 A 
ATOM     33  C   UNL     1       5.473   3.956  15.725  0.00  0.00    +0.000 C 
ENDBRANCH  23  25
ENDBRANCH  22  23
ENDBRANCH   4  22
TORSDOF 4
ENDMDL
MODEL 9
REMARK VINA RESULT:      -8.5      6.392      8.356
REMARK  Name = 
REMARK  6 active torsions:
REMARK  status: ('A' for Active; 'I' for Inactive)
REMARK    1  A    between atoms: C_1  and  C_2
REMARK    2  A    between atoms: C_8  and  C_9
REMARK    3  A    between atoms: C_12  and  C_13
REMARK    4  A    between atoms: C_13  and  N_14
REMARK    5  A    between atoms: N_14  and  C_15
REMARK    6  A    between atoms: C_29  and  C_30
REMARK                            x       y       z     vdW  Elec       q    Type
REMARK                         _______ _______ _______ _____ _____    ______ ____
ROOT
ATOM      1  C   UNL     1       2.217   7.516  19.283  0.00  0.00    +0.000 A 
ATOM      2  C   UNL     1       2.271   6.408  20.145  0.00  0.00    +0.000 A 
ATOM      3  C   UNL     1       3.065   5.293  19.852  0.00  0.00    +0.000 A 
ATOM      4  C   UNL     1       3.824   5.237  18.677  0.00  0.00    +0.000 A 
ATOM      5  C   UNL     1       3.778   6.329  17.805  0.00  0.00    +0.000 A 
ATOM      6  C   UNL     1       2.991   7.450  18.109  0.00  0.00    +0.000 A 
ENDROOT
BRANCH   1  14
ATOM      7  C   UNL     1       0.746  14.361  19.483  0.00  0.00    +0.000 C 
ATOM      8  C   UNL     1      -0.756  14.312  19.779  0.00  0.00    +0.000 C 
ATOM      9  C   UNL     1      -1.375  12.932  19.427  0.00  0.00    +0.000 C 
ATOM     10  N   UNL     1      -1.068  11.925  20.444  0.00  0.00    +0.000 N 
ATOM     11  C   UNL     1      -0.212  10.887  20.177  0.00  0.00    +0.000 A 
ATOM     12  N   UNL     1       0.364  10.802  18.969  0.00  0.00    +0.000 NA
ATOM     13  C   UNL     1       1.142   9.723  18.713  0.00  0.00    +0.000 A 
ATOM     14  C   UNL     1       1.386   8.693  19.599  0.00  0.00    +0.000 A 
ATOM     15  C   UNL     1       0.757   8.890  20.812  0.00  0.00    +0.000 A 
ATOM     16  N   UNL     1      -0.015   9.958  21.123  0.00  0.00    +0.000 NA
ATOM     17  C   UNL     1      -1.349  12.314  21.824  0.00  0.00    +0.000 C 
ATOM     18  C   UNL     1      -0.702  13.691  22.147  0.00  0.00    +0.000 C 
ATOM     19  C   UNL     1      -1.127  14.163  23.536  0.00  0.00    +0.000 C 
ATOM     20  N   UNL     1      -1.053  14.745  21.166  0.00  0.00    +0.000 NA
ATOM     21  H   UNL     1      -0.531  15.594  21.378  0.00  0.00    +0.000 HD
ENDBRANCH   1  14
BRANCH   4  22
ATOM     22  C   UNL     1       4.644   4.003  18.358  0.00  0.00    +0.000 C 
BRANCH  22  23
ATOM     23  N   UNL     1       5.960   4.406  17.880  0.00  0.00    +0.000 NA
ATOM     24  H   UNL     1       6.605   3.630  18.037  0.00  0.00    +0.000 HD
BRANCH  23  25
ATOM     25  C   UNL     1       6.022   4.789  16.470  0.00  0.00    +0.000 C 
ATOM     26  C   UNL     1       5.470   3.621  15.610  0.00  0.00    +0.000 C 
ATOM     27  C   UNL     1       6.084   3.913  14.278  0.00  0.00    +0.000 A 
ATOM     28  C   UNL     1       5.726   3.389  13.049  0.00  0.00    +0.000 A 
ATOM     29  C   UNL     1       6.417   3.827  11.921  0.00  0.00    +0.000 A 
ATOM     30  C   UNL     1       7.451   4.770  12.040  0.00  0.00    +0.000 A 
ATOM     31  C   UNL     1       7.839   5.254  13.294  0.00  0.00    +0.000 A 
ATOM     32  C   UNL     1       7.154   4.807  14.411  0.00  0.00    +0.000 A 
ATOM     33  C   UNL     1       7.413   5.100  15.863  0.00  0.00    +0.000 C 
ENDBRANCH  23  25
ENDBRANCH  22  23
ENDBRANCH   4  22
TORSDOF 4
ENDMDL
