MODEL 1
REMARK VINA RESULT:      -6.8      0.000      0.000
REMARK  Name = 
REMARK  6 active torsions:
REMARK  status: ('A' for Active; 'I' for Inactive)
REMARK    1  A    between atoms: C_1  and  C_2
REMARK    2  A    between atoms: C_2  and  O_3
REMARK    3  A    between atoms: O_3  and  C_4
REMARK    4  A    between atoms: C_6  and  C_7
REMARK    5  A    between atoms: C_14  and  C_16
REMARK    6  A    between atoms: C_18  and  C_19
REMARK                            x       y       z     vdW  Elec       q    Type
REMARK                         _______ _______ _______ _____ _____    ______ ____
ROOT
ATOM      1  C   UNL     1       3.218   3.476  18.859  0.00  0.00    +0.000 A 
ATOM      2  C   UNL     1       3.825   3.199  17.663  0.00  0.00    +0.000 A 
ATOM      3  C   UNL     1       4.174   4.299  16.918  0.00  0.00    +0.000 A 
ATOM      4  C   UNL     1       4.893   4.160  15.611  0.00  0.00    +0.000 C 
ATOM      5  N   UNL     1       3.904   5.559  17.322  0.00  0.00    +0.000 NA
ATOM      6  C   UNL     1       3.279   5.738  18.497  0.00  0.00    +0.000 A 
ATOM      7  N   UNL     1       2.993   7.013  18.909  0.00  0.00    +0.000 N 
ATOM      8  C   UNL     1       3.331   8.179  18.090  0.00  0.00    +0.000 C 
ATOM      9  C   UNL     1       2.079   9.035  17.804  0.00  0.00    +0.000 C 
ATOM     10  N   UNL     1       1.306   9.287  19.027  0.00  0.00    +0.000 N 
ATOM     11  C   UNL     1       0.897  10.586  19.334  0.00  0.00    +0.000 C 
ATOM     12  O   UNL     1       1.047  11.505  18.526  0.00  0.00    +0.000 OA
ATOM     13  C   UNL     1       0.944   8.058  19.751  0.00  0.00    +0.000 C 
ATOM     14  C   UNL     1       2.202   7.256  20.118  0.00  0.00    +0.000 C 
ATOM     15  N   UNL     1       2.930   4.715  19.283  0.00  0.00    +0.000 NA
ENDROOT
BRANCH  11  16
ATOM     16  C   UNL     1       0.276  10.862  20.636  0.00  0.00    +0.000 A 
ATOM     17  C   UNL     1      -1.026  11.393  20.848  0.00  0.00    +0.000 A 
ATOM     18  C   UNL     1      -1.155  11.469  22.212  0.00  0.00    +0.000 A 
ATOM     19  C   UNL     1      -2.233  11.879  23.127  0.00  0.00    +0.000 C 
ATOM     20  O   UNL     1       0.002  11.062  22.791  0.00  0.00    +0.000 OA
ATOM     21  N   UNL     1       0.912  10.716  21.812  0.00  0.00    +0.000 NA
ENDBRANCH  11  16
BRANCH   1  22
ATOM     22  O   UNL     1       2.848   2.393  19.633  0.00  0.00    +0.000 OA
BRANCH  22  24
ATOM     23  C   UNL     1       1.650   2.608  21.691  0.00  0.00    +0.000 C 
ATOM     24  C   UNL     1       1.534   2.536  20.180  0.00  0.00    +0.000 C 
ENDBRANCH  22  24
ENDBRANCH   1  22
TORSDOF 3
ENDMDL
MODEL 2
REMARK VINA RESULT:      -6.7      4.447      6.957
REMARK  Name = 
REMARK  6 active torsions:
REMARK  status: ('A' for Active; 'I' for Inactive)
REMARK    1  A    between atoms: C_1  and  C_2
REMARK    2  A    between atoms: C_2  and  O_3
REMARK    3  A    between atoms: O_3  and  C_4
REMARK    4  A    between atoms: C_6  and  C_7
REMARK    5  A    between atoms: C_14  and  C_16
REMARK    6  A    between atoms: C_18  and  C_19
REMARK                            x       y       z     vdW  Elec       q    Type
REMARK                         _______ _______ _______ _____ _____    ______ ____
ROOT
ATOM      1  C   UNL     1       6.186   3.264  12.516  0.00  0.00    +0.000 A 
ATOM      2  C   UNL     1       7.078   4.129  11.940  0.00  0.00    +0.000 A 
ATOM      3  C   UNL     1       7.553   5.114  12.771  0.00  0.00    +0.000 A 
ATOM      4  C   UNL     1       8.575   6.104  12.304  0.00  0.00    +0.000 C 
ATOM      5  N   UNL     1       7.140   5.239  14.051  0.00  0.00    +0.000 NA
ATOM      6  C   UNL     1       6.240   4.363  14.526  0.00  0.00    +0.000 A 
ATOM      7  N   UNL     1       5.809   4.489  15.820  0.00  0.00    +0.000 N 
ATOM      8  C   UNL     1       6.289   5.567  16.688  0.00  0.00    +0.000 C 
ATOM      9  C   UNL     1       5.110   6.394  17.244  0.00  0.00    +0.000 C 
ATOM     10  N   UNL     1       4.052   5.531  17.784  0.00  0.00    +0.000 N 
ATOM     11  C   UNL     1       3.528   5.789  19.052  0.00  0.00    +0.000 C 
ATOM     12  O   UNL     1       3.832   6.812  19.669  0.00  0.00    +0.000 OA
ATOM     13  C   UNL     1       3.575   4.523  16.824  0.00  0.00    +0.000 C 
ATOM     14  C   UNL     1       4.737   3.640  16.345  0.00  0.00    +0.000 C 
ATOM     15  N   UNL     1       5.751   3.367  13.780  0.00  0.00    +0.000 NA
ENDROOT
BRANCH  11  16
ATOM     16  C   UNL     1       2.596   4.829  19.659  0.00  0.00    +0.000 A 
ATOM     17  C   UNL     1       2.859   4.006  20.789  0.00  0.00    +0.000 A 
ATOM     18  C   UNL     1       1.703   3.292  20.979  0.00  0.00    +0.000 A 
ATOM     19  C   UNL     1       1.251   2.299  21.967  0.00  0.00    +0.000 C 
ATOM     20  O   UNL     1       0.815   3.617  20.005  0.00  0.00    +0.000 OA
ATOM     21  N   UNL     1       1.380   4.550  19.158  0.00  0.00    +0.000 NA
ENDBRANCH  11  16
BRANCH   1  22
ATOM     22  O   UNL     1       5.683   2.262  11.707  0.00  0.00    +0.000 OA
BRANCH  22  24
ATOM     23  C   UNL     1       6.219  -0.028  11.279  0.00  0.00    +0.000 C 
ATOM     24  C   UNL     1       6.709   1.405  11.198  0.00  0.00    +0.000 C 
ENDBRANCH  22  24
ENDBRANCH   1  22
TORSDOF 3
ENDMDL
MODEL 3
REMARK VINA RESULT:      -6.6      4.914      7.442
REMARK  Name = 
REMARK  6 active torsions:
REMARK  status: ('A' for Active; 'I' for Inactive)
REMARK    1  A    between atoms: C_1  and  C_2
REMARK    2  A    between atoms: C_2  and  O_3
REMARK    3  A    between atoms: O_3  and  C_4
REMARK    4  A    between atoms: C_6  and  C_7
REMARK    5  A    between atoms: C_14  and  C_16
REMARK    6  A    between atoms: C_18  and  C_19
REMARK                            x       y       z     vdW  Elec       q    Type
REMARK                         _______ _______ _______ _____ _____    ______ ____
ROOT
ATOM      1  C   UNL     1       6.303   3.210  12.208  0.00  0.00    +0.000 A 
ATOM      2  C   UNL     1       7.024   4.168  11.547  0.00  0.00    +0.000 A 
ATOM      3  C   UNL     1       7.544   5.159  12.345  0.00  0.00    +0.000 A 
ATOM      4  C   UNL     1       8.400   6.249  11.777  0.00  0.00    +0.000 C 
ATOM      5  N   UNL     1       7.327   5.201  13.677  0.00  0.00    +0.000 NA
ATOM      6  C   UNL     1       6.582   4.234  14.238  0.00  0.00    +0.000 A 
ATOM      7  N   UNL     1       6.349   4.276  15.588  0.00  0.00    +0.000 N 
ATOM      8  C   UNL     1       6.872   5.358  16.425  0.00  0.00    +0.000 C 
ATOM      9  C   UNL     1       5.733   6.060  17.194  0.00  0.00    +0.000 C 
ATOM     10  N   UNL     1       4.842   5.092  17.845  0.00  0.00    +0.000 N 
ATOM     11  C   UNL     1       4.502   5.257  19.189  0.00  0.00    +0.000 C 
ATOM     12  O   UNL     1       4.819   6.278  19.802  0.00  0.00    +0.000 OA
ATOM     13  C   UNL     1       4.302   4.083  16.919  0.00  0.00    +0.000 C 
ATOM     14  C   UNL     1       5.441   3.320  16.227  0.00  0.00    +0.000 C 
ATOM     15  N   UNL     1       6.063   3.229  13.527  0.00  0.00    +0.000 NA
ENDROOT
BRANCH  11  16
ATOM     16  C   UNL     1       3.755   4.199  19.882  0.00  0.00    +0.000 A 
ATOM     17  C   UNL     1       2.551   4.371  20.622  0.00  0.00    +0.000 A 
ATOM     18  C   UNL     1       2.237   3.114  21.074  0.00  0.00    +0.000 A 
ATOM     19  C   UNL     1       1.126   2.544  21.854  0.00  0.00    +0.000 C 
ATOM     20  O   UNL     1       3.203   2.246  20.682  0.00  0.00    +0.000 OA
ATOM     21  N   UNL     1       4.172   2.924  19.969  0.00  0.00    +0.000 NA
ENDBRANCH  11  16
BRANCH   1  22
ATOM     22  O   UNL     1       5.760   2.200  11.436  0.00  0.00    +0.000 OA
BRANCH  22  24
ATOM     23  C   UNL     1       6.154  -0.154  11.289  0.00  0.00    +0.000 C 
ATOM     24  C   UNL     1       6.734   1.227  11.047  0.00  0.00    +0.000 C 
ENDBRANCH  22  24
ENDBRANCH   1  22
TORSDOF 3
ENDMDL
MODEL 4
REMARK VINA RESULT:      -6.5      1.836      7.755
REMARK  Name = 
REMARK  6 active torsions:
REMARK  status: ('A' for Active; 'I' for Inactive)
REMARK    1  A    between atoms: C_1  and  C_2
REMARK    2  A    between atoms: C_2  and  O_3
REMARK    3  A    between atoms: O_3  and  C_4
REMARK    4  A    between atoms: C_6  and  C_7
REMARK    5  A    between atoms: C_14  and  C_16
REMARK    6  A    between atoms: C_18  and  C_19
REMARK                            x       y       z     vdW  Elec       q    Type
REMARK                         _______ _______ _______ _____ _____    ______ ____
ROOT
ATOM      1  C   UNL     1      -0.293  12.222  21.632  0.00  0.00    +0.000 A 
ATOM      2  C   UNL     1      -0.211  13.342  20.848  0.00  0.00    +0.000 A 
ATOM      3  C   UNL     1       0.154  13.116  19.544  0.00  0.00    +0.000 A 
ATOM      4  C   UNL     1       0.236  14.234  18.551  0.00  0.00    +0.000 C 
ATOM      5  N   UNL     1       0.446  11.881  19.081  0.00  0.00    +0.000 NA
ATOM      6  C   UNL     1       0.368  10.841  19.926  0.00  0.00    +0.000 A 
ATOM      7  N   UNL     1       0.672   9.587  19.466  0.00  0.00    +0.000 N 
ATOM      8  C   UNL     1       1.100   9.359  18.084  0.00  0.00    +0.000 C 
ATOM      9  C   UNL     1       2.468   8.644  18.041  0.00  0.00    +0.000 C 
ATOM     10  N   UNL     1       2.501   7.486  18.944  0.00  0.00    +0.000 N 
ATOM     11  C   UNL     1       2.967   6.256  18.477  0.00  0.00    +0.000 C 
ATOM     12  O   UNL     1       3.486   6.155  17.364  0.00  0.00    +0.000 OA
ATOM     13  C   UNL     1       2.128   7.816  20.329  0.00  0.00    +0.000 C 
ATOM     14  C   UNL     1       0.725   8.441  20.377  0.00  0.00    +0.000 C 
ATOM     15  N   UNL     1      -0.001  10.985  21.203  0.00  0.00    +0.000 NA
ENDROOT
BRANCH  11  16
ATOM     16  C   UNL     1       2.839   5.063  19.325  0.00  0.00    +0.000 A 
ATOM     17  C   UNL     1       1.697   4.698  20.091  0.00  0.00    +0.000 A 
ATOM     18  C   UNL     1       2.050   3.522  20.705  0.00  0.00    +0.000 A 
ATOM     19  C   UNL     1       1.362   2.575  21.597  0.00  0.00    +0.000 C 
ATOM     20  O   UNL     1       3.331   3.217  20.379  0.00  0.00    +0.000 OA
ATOM     21  N   UNL     1       3.841   4.194  19.546  0.00  0.00    +0.000 NA
ENDBRANCH  11  16
BRANCH   1  22
ATOM     22  O   UNL     1      -0.652  12.412  22.952  0.00  0.00    +0.000 OA
BRANCH  22  24
ATOM     23  C   UNL     1      -3.014  12.382  23.326  0.00  0.00    +0.000 C 
ATOM     24  C   UNL     1      -1.735  11.567  23.351  0.00  0.00    +0.000 C 
ENDBRANCH  22  24
ENDBRANCH   1  22
TORSDOF 3
ENDMDL
MODEL 5
REMARK VINA RESULT:      -6.5      2.146      8.345
REMARK  Name = 
REMARK  6 active torsions:
REMARK  status: ('A' for Active; 'I' for Inactive)
REMARK    1  A    between atoms: C_1  and  C_2
REMARK    2  A    between atoms: C_2  and  O_3
REMARK    3  A    between atoms: O_3  and  C_4
REMARK    4  A    between atoms: C_6  and  C_7
REMARK    5  A    between atoms: C_14  and  C_16
REMARK    6  A    between atoms: C_18  and  C_19
REMARK                            x       y       z     vdW  Elec       q    Type
REMARK                         _______ _______ _______ _____ _____    ______ ____
ROOT
ATOM      1  C   UNL     1       0.349  10.060  19.241  0.00  0.00    +0.000 A 
ATOM      2  C   UNL     1      -0.392   9.989  20.390  0.00  0.00    +0.000 A 
ATOM      3  C   UNL     1      -0.021   8.994  21.262  0.00  0.00    +0.000 A 
ATOM      4  C   UNL     1      -0.701   8.822  22.585  0.00  0.00    +0.000 C 
ATOM      5  N   UNL     1       0.979   8.130  20.985  0.00  0.00    +0.000 NA
ATOM      6  C   UNL     1       1.635   8.254  19.820  0.00  0.00    +0.000 A 
ATOM      7  N   UNL     1       2.643   7.374  19.528  0.00  0.00    +0.000 N 
ATOM      8  C   UNL     1       3.006   6.291  20.445  0.00  0.00    +0.000 C 
ATOM      9  C   UNL     1       2.927   4.921  19.738  0.00  0.00    +0.000 C 
ATOM     10  N   UNL     1       3.608   4.943  18.437  0.00  0.00    +0.000 N 
ATOM     11  C   UNL     1       4.519   3.936  18.114  0.00  0.00    +0.000 C 
ATOM     12  O   UNL     1       4.656   2.949  18.839  0.00  0.00    +0.000 OA
ATOM     13  C   UNL     1       3.133   6.016  17.549  0.00  0.00    +0.000 C 
ATOM     14  C   UNL     1       3.302   7.388  18.220  0.00  0.00    +0.000 C 
ATOM     15  N   UNL     1       1.341   9.212  18.935  0.00  0.00    +0.000 NA
ENDROOT
BRANCH  11  16
ATOM     16  C   UNL     1       5.324   4.052  16.890  0.00  0.00    +0.000 A 
ATOM     17  C   UNL     1       4.924   3.656  15.584  0.00  0.00    +0.000 A 
ATOM     18  C   UNL     1       5.996   3.960  14.783  0.00  0.00    +0.000 A 
ATOM     19  C   UNL     1       6.270   3.862  13.340  0.00  0.00    +0.000 C 
ATOM     20  O   UNL     1       6.997   4.458  15.552  0.00  0.00    +0.000 OA
ATOM     21  N   UNL     1       6.596   4.485  16.873  0.00  0.00    +0.000 NA
ENDBRANCH  11  16
BRANCH   1  22
ATOM     22  O   UNL     1      -0.000  11.046  18.337  0.00  0.00    +0.000 OA
BRANCH  22  24
ATOM     23  C   UNL     1      -1.830  10.162  17.077  0.00  0.00    +0.000 C 
ATOM     24  C   UNL     1      -1.416  11.145  18.156  0.00  0.00    +0.000 C 
ENDBRANCH  22  24
ENDBRANCH   1  22
TORSDOF 3
ENDMDL
MODEL 6
REMARK VINA RESULT:      -6.4      2.795      4.256
REMARK  Name = 
REMARK  6 active torsions:
REMARK  status: ('A' for Active; 'I' for Inactive)
REMARK    1  A    between atoms: C_1  and  C_2
REMARK    2  A    between atoms: C_2  and  O_3
REMARK    3  A    between atoms: O_3  and  C_4
REMARK    4  A    between atoms: C_6  and  C_7
REMARK    5  A    between atoms: C_14  and  C_16
REMARK    6  A    between atoms: C_18  and  C_19
REMARK                            x       y       z     vdW  Elec       q    Type
REMARK                         _______ _______ _______ _____ _____    ______ ____
ROOT
ATOM      1  C   UNL     1       5.463   6.058  16.408  0.00  0.00    +0.000 A 
ATOM      2  C   UNL     1       6.277   5.407  17.296  0.00  0.00    +0.000 A 
ATOM      3  C   UNL     1       5.789   5.319  18.577  0.00  0.00    +0.000 A 
ATOM      4  C   UNL     1       6.539   4.590  19.649  0.00  0.00    +0.000 C 
ATOM      5  N   UNL     1       4.609   5.866  18.938  0.00  0.00    +0.000 NA
ATOM      6  C   UNL     1       3.887   6.512  18.008  0.00  0.00    +0.000 A 
ATOM      7  N   UNL     1       2.693   7.080  18.370  0.00  0.00    +0.000 N 
ATOM      8  C   UNL     1       2.199   7.016  19.747  0.00  0.00    +0.000 C 
ATOM      9  C   UNL     1       1.922   8.431  20.299  0.00  0.00    +0.000 C 
ATOM     10  N   UNL     1       1.141   9.238  19.352  0.00  0.00    +0.000 N 
ATOM     11  C   UNL     1       0.013   9.929  19.796  0.00  0.00    +0.000 C 
ATOM     12  O   UNL     1      -0.259   9.994  20.996  0.00  0.00    +0.000 OA
ATOM     13  C   UNL     1       1.746   9.310  18.012  0.00  0.00    +0.000 C 
ATOM     14  C   UNL     1       1.932   7.902  17.426  0.00  0.00    +0.000 C 
ATOM     15  N   UNL     1       4.291   6.619  16.738  0.00  0.00    +0.000 NA
ENDROOT
BRANCH  11  16
ATOM     16  C   UNL     1      -0.860  10.593  18.820  0.00  0.00    +0.000 A 
ATOM     17  C   UNL     1      -1.749   9.948  17.915  0.00  0.00    +0.000 A 
ATOM     18  C   UNL     1      -2.341  10.971  17.218  0.00  0.00    +0.000 A 
ATOM     19  C   UNL     1      -3.373  11.046  16.171  0.00  0.00    +0.000 C 
ATOM     20  O   UNL     1      -1.816  12.152  17.630  0.00  0.00    +0.000 OA
ATOM     21  N   UNL     1      -0.866  11.921  18.605  0.00  0.00    +0.000 NA
ENDBRANCH  11  16
BRANCH   1  22
ATOM     22  O   UNL     1       5.925   6.171  15.110  0.00  0.00    +0.000 OA
BRANCH  22  24
ATOM     23  C   UNL     1       5.889   4.102  13.911  0.00  0.00    +0.000 C 
ATOM     24  C   UNL     1       6.740   5.061  14.723  0.00  0.00    +0.000 C 
ENDBRANCH  22  24
ENDBRANCH   1  22
TORSDOF 3
ENDMDL
MODEL 7
REMARK VINA RESULT:      -6.3      1.993      7.937
REMARK  Name = 
REMARK  6 active torsions:
REMARK  status: ('A' for Active; 'I' for Inactive)
REMARK    1  A    between atoms: C_1  and  C_2
REMARK    2  A    between atoms: C_2  and  O_3
REMARK    3  A    between atoms: O_3  and  C_4
REMARK    4  A    between atoms: C_6  and  C_7
REMARK    5  A    between atoms: C_14  and  C_16
REMARK    6  A    between atoms: C_18  and  C_19
REMARK                            x       y       z     vdW  Elec       q    Type
REMARK                         _______ _______ _______ _____ _____    ______ ____
ROOT
ATOM      1  C   UNL     1       0.213  12.507  21.531  0.00  0.00    +0.000 A 
ATOM      2  C   UNL     1       0.649  13.616  20.857  0.00  0.00    +0.000 A 
ATOM      3  C   UNL     1       1.169  13.373  19.609  0.00  0.00    +0.000 A 
ATOM      4  C   UNL     1       1.639  14.489  18.728  0.00  0.00    +0.000 C 
ATOM      5  N   UNL     1       1.274  12.125  19.103  0.00  0.00    +0.000 NA
ATOM      6  C   UNL     1       0.847  11.091  19.845  0.00  0.00    +0.000 A 
ATOM      7  N   UNL     1       0.961   9.821  19.341  0.00  0.00    +0.000 N 
ATOM      8  C   UNL     1       1.554   9.566  18.027  0.00  0.00    +0.000 C 
ATOM      9  C   UNL     1       2.735   8.578  18.137  0.00  0.00    +0.000 C 
ATOM     10  N   UNL     1       2.382   7.402  18.944  0.00  0.00    +0.000 N 
ATOM     11  C   UNL     1       2.657   6.122  18.460  0.00  0.00    +0.000 C 
ATOM     12  O   UNL     1       3.320   5.961  17.434  0.00  0.00    +0.000 OA
ATOM     13  C   UNL     1       1.863   7.745  20.277  0.00  0.00    +0.000 C 
ATOM     14  C   UNL     1       0.628   8.653  20.160  0.00  0.00    +0.000 C 
ATOM     15  N   UNL     1       0.311  11.256  21.058  0.00  0.00    +0.000 NA
ENDROOT
BRANCH  11  16
ATOM     16  C   UNL     1       2.151   4.949  19.186  0.00  0.00    +0.000 A 
ATOM     17  C   UNL     1       2.524   4.552  20.500  0.00  0.00    +0.000 A 
ATOM     18  C   UNL     1       1.795   3.415  20.741  0.00  0.00    +0.000 A 
ATOM     19  C   UNL     1       1.647   2.505  21.889  0.00  0.00    +0.000 C 
ATOM     20  O   UNL     1       1.067   3.111  19.637  0.00  0.00    +0.000 OA
ATOM     21  N   UNL     1       1.312   4.045  18.650  0.00  0.00    +0.000 NA
ENDBRANCH  11  16
BRANCH   1  22
ATOM     22  O   UNL     1      -0.312  12.713  22.792  0.00  0.00    +0.000 OA
BRANCH  22  24
ATOM     23  C   UNL     1      -2.187  13.938  23.633  0.00  0.00    +0.000 C 
ATOM     24  C   UNL     1      -0.831  14.036  22.958  0.00  0.00    +0.000 C 
ENDBRANCH  22  24
ENDBRANCH   1  22
TORSDOF 3
ENDMDL
MODEL 8
REMARK VINA RESULT:      -6.3      5.126      7.519
REMARK  Name = 
REMARK  6 active torsions:
REMARK  status: ('A' for Active; 'I' for Inactive)
REMARK    1  A    between atoms: C_1  and  C_2
REMARK    2  A    between atoms: C_2  and  O_3
REMARK    3  A    between atoms: O_3  and  C_4
REMARK    4  A    between atoms: C_6  and  C_7
REMARK    5  A    between atoms: C_14  and  C_16
REMARK    6  A    between atoms: C_18  and  C_19
REMARK                            x       y       z     vdW  Elec       q    Type
REMARK                         _______ _______ _______ _____ _____    ______ ____
ROOT
ATOM      1  C   UNL     1       6.029   3.546  12.010  0.00  0.00    +0.000 A 
ATOM      2  C   UNL     1       6.862   4.449  11.404  0.00  0.00    +0.000 A 
ATOM      3  C   UNL     1       7.571   5.254  12.261  0.00  0.00    +0.000 A 
ATOM      4  C   UNL     1       8.561   6.256  11.752  0.00  0.00    +0.000 C 
ATOM      5  N   UNL     1       7.428   5.182  13.602  0.00  0.00    +0.000 NA
ATOM      6  C   UNL     1       6.567   4.286  14.111  0.00  0.00    +0.000 A 
ATOM      7  N   UNL     1       6.410   4.214  15.470  0.00  0.00    +0.000 N 
ATOM      8  C   UNL     1       7.139   5.104  16.376  0.00  0.00    +0.000 C 
ATOM      9  C   UNL     1       6.166   5.884  17.285  0.00  0.00    +0.000 C 
ATOM     10  N   UNL     1       5.164   4.998  17.892  0.00  0.00    +0.000 N 
ATOM     11  C   UNL     1       4.921   5.064  19.265  0.00  0.00    +0.000 C 
ATOM     12  O   UNL     1       5.426   5.951  19.956  0.00  0.00    +0.000 OA
ATOM     13  C   UNL     1       4.426   4.192  16.906  0.00  0.00    +0.000 C 
ATOM     14  C   UNL     1       5.394   3.344  16.067  0.00  0.00    +0.000 C 
ATOM     15  N   UNL     1       5.860   3.456  13.337  0.00  0.00    +0.000 NA
ENDROOT
BRANCH  11  16
ATOM     16  C   UNL     1       4.049   4.065  19.895  0.00  0.00    +0.000 A 
ATOM     17  C   UNL     1       2.792   4.319  20.512  0.00  0.00    +0.000 A 
ATOM     18  C   UNL     1       2.362   3.090  20.947  0.00  0.00    +0.000 A 
ATOM     19  C   UNL     1       1.150   2.599  21.622  0.00  0.00    +0.000 C 
ATOM     20  O   UNL     1       3.309   2.161  20.662  0.00  0.00    +0.000 OA
ATOM     21  N   UNL     1       4.380   2.769  20.037  0.00  0.00    +0.000 NA
ENDBRANCH  11  16
BRANCH   1  22
ATOM     22  O   UNL     1       5.296   2.722  11.177  0.00  0.00    +0.000 OA
BRANCH  22  24
ATOM     23  C   UNL     1       3.460   3.760  10.050  0.00  0.00    +0.000 C 
ATOM     24  C   UNL     1       3.889   2.966  11.269  0.00  0.00    +0.000 C 
ENDBRANCH  22  24
ENDBRANCH   1  22
TORSDOF 3
ENDMDL
MODEL 9
REMARK VINA RESULT:      -6.2      7.717      9.130
REMARK  Name = 
REMARK  6 active torsions:
REMARK  status: ('A' for Active; 'I' for Inactive)
REMARK    1  A    between atoms: C_1  and  C_2
REMARK    2  A    between atoms: C_2  and  O_3
REMARK    3  A    between atoms: O_3  and  C_4
REMARK    4  A    between atoms: C_6  and  C_7
REMARK    5  A    between atoms: C_14  and  C_16
REMARK    6  A    between atoms: C_18  and  C_19
REMARK                            x       y       z     vdW  Elec       q    Type
REMARK                         _______ _______ _______ _____ _____    ______ ____
ROOT
ATOM      1  C   UNL     1       9.321  10.901  19.409  0.00  0.00    +0.000 A 
ATOM      2  C   UNL     1       9.670  11.915  18.557  0.00  0.00    +0.000 A 
ATOM      3  C   UNL     1       9.622  13.176  19.100  0.00  0.00    +0.000 A 
ATOM      4  C   UNL     1      10.026  14.382  18.309  0.00  0.00    +0.000 C 
ATOM      5  N   UNL     1       9.225  13.398  20.371  0.00  0.00    +0.000 NA
ATOM      6  C   UNL     1       8.872  12.347  21.129  0.00  0.00    +0.000 A 
ATOM      7  N   UNL     1       8.458  12.567  22.417  0.00  0.00    +0.000 N 
ATOM      8  C   UNL     1       8.371  13.918  22.976  0.00  0.00    +0.000 C 
ATOM      9  C   UNL     1       6.950  14.205  23.505  0.00  0.00    +0.000 C 
ATOM     10  N   UNL     1       6.454  13.107  24.346  0.00  0.00    +0.000 N 
ATOM     11  C   UNL     1       5.894  13.388  25.593  0.00  0.00    +0.000 C 
ATOM     12  O   UNL     1       5.676  14.550  25.944  0.00  0.00    +0.000 OA
ATOM     13  C   UNL     1       6.508  11.795  23.682  0.00  0.00    +0.000 C 
ATOM     14  C   UNL     1       7.944  11.471  23.242  0.00  0.00    +0.000 C 
ATOM     15  N   UNL     1       8.915  11.092  20.673  0.00  0.00    +0.000 NA
ENDROOT
BRANCH  11  16
ATOM     16  C   UNL     1       5.557  12.284  26.501  0.00  0.00    +0.000 A 
ATOM     17  C   UNL     1       6.469  11.335  27.042  0.00  0.00    +0.000 A 
ATOM     18  C   UNL     1       5.697  10.514  27.824  0.00  0.00    +0.000 A 
ATOM     19  C   UNL     1       5.971   9.361  28.698  0.00  0.00    +0.000 C 
ATOM     20  O   UNL     1       4.400  10.901  27.729  0.00  0.00    +0.000 OA
ATOM     21  N   UNL     1       4.301  11.983  26.877  0.00  0.00    +0.000 NA
ENDBRANCH  11  16
BRANCH   1  22
ATOM     22  O   UNL     1       9.352   9.619  18.895  0.00  0.00    +0.000 OA
BRANCH  22  24
ATOM     23  C   UNL     1       7.993   7.894  17.950  0.00  0.00    +0.000 C 
ATOM     24  C   UNL     1       8.296   9.380  17.960  0.00  0.00    +0.000 C 
ENDBRANCH  22  24
ENDBRANCH   1  22
TORSDOF 3
ENDMDL
