MODEL 1
REMARK VINA RESULT:      -7.9      0.000      0.000
REMARK  Name = 
REMARK  5 active torsions:
REMARK  status: ('A' for Active; 'I' for Inactive)
REMARK    1  A    between atoms: C_6  and  C_7
REMARK    2  A    between atoms: C_7  and  C_8
REMARK    3  A    between atoms: C_11  and  O_12
REMARK    4  A    between atoms: O_12  and  C_13
REMARK    5  A    between atoms: C_13  and  C_14
REMARK                            x       y       z     vdW  Elec       q    Type
REMARK                         _______ _______ _______ _____ _____    ______ ____
ROOT
ATOM      1  C   UNL     1       3.439   5.662  18.208  0.00  0.00    +0.000 A 
ATOM      2  C   UNL     1       3.029   6.999  18.150  0.00  0.00    +0.000 A 
ATOM      3  C   UNL     1       2.270   7.552  19.187  0.00  0.00    +0.000 A 
ATOM      4  C   UNL     1       1.905   6.772  20.282  0.00  0.00    +0.000 A 
ATOM      5  C   UNL     1       2.389   5.468  20.385  0.00  0.00    +0.000 A 
ATOM      6  C   UNL     1       3.142   4.913  19.351  0.00  0.00    +0.000 A 
ENDROOT
BRANCH   1   7
ATOM      7  C   UNL     1       4.171   5.035  17.046  0.00  0.00    +0.000 C 
BRANCH   7  13
ATOM      8  O   UNL     1       8.451   4.123  17.896  0.00  0.00    +0.000 OA
ATOM      9  C   UNL     1       7.569   4.640  17.224  0.00  0.00    +0.000 C 
ATOM     10  N   UNL     1       7.212   4.324  15.995  0.00  0.00    +0.000 NA
ATOM     11  C   UNL     1       6.186   5.016  15.502  0.00  0.00    +0.000 C 
ATOM     12  O   UNL     1       5.831   5.015  14.333  0.00  0.00    +0.000 OA
ATOM     13  C   UNL     1       5.412   5.785  16.555  0.00  0.00    +0.000 C 
ATOM     14  S   UNL     1       6.586   5.910  17.922  0.00  0.00    +0.000 S 
ENDBRANCH   7  13
ENDBRANCH   1   7
BRANCH   4  15
ATOM     15  O   UNL     1       1.136   7.393  21.225  0.00  0.00    +0.000 OA
BRANCH  15  16
ATOM     16  C   UNL     1       1.401   8.783  21.441  0.00  0.00    +0.000 C 
BRANCH  16  17
ATOM     17  C   UNL     1       0.093   9.564  21.341  0.00  0.00    +0.000 C 
ATOM     18  C   UNL     1      -0.012  10.239  19.959  0.00  0.00    +0.000 C 
ATOM     19  N   UNL     1      -1.247  11.017  19.933  0.00  0.00    +0.000 N 
ATOM     20  C   UNL     1      -2.159  10.947  18.912  0.00  0.00    +0.000 A 
ATOM     21  C   UNL     1      -2.363   9.759  18.206  0.00  0.00    +0.000 A 
ATOM     22  C   UNL     1      -3.296   9.696  17.174  0.00  0.00    +0.000 A 
ATOM     23  C   UNL     1      -4.017  10.832  16.856  0.00  0.00    +0.000 A 
ATOM     24  C   UNL     1      -3.783  11.970  17.604  0.00  0.00    +0.000 A 
ATOM     25  N   UNL     1      -2.893  12.042  18.622  0.00  0.00    +0.000 NA
ATOM     26  C   UNL     1      -1.324  12.043  20.970  0.00  0.00    +0.000 C 
ATOM     27  C   UNL     1      -1.149  11.341  22.333  0.00  0.00    +0.000 C 
ATOM     28  O   UNL     1       0.061  10.554  22.397  0.00  0.00    +0.000 OA
ENDBRANCH  16  17
ENDBRANCH  15  16
ENDBRANCH   4  15
TORSDOF 5
ENDMDL
MODEL 2
REMARK VINA RESULT:      -7.9      6.743      9.084
REMARK  Name = 
REMARK  5 active torsions:
REMARK  status: ('A' for Active; 'I' for Inactive)
REMARK    1  A    between atoms: C_6  and  C_7
REMARK    2  A    between atoms: C_7  and  C_8
REMARK    3  A    between atoms: C_11  and  O_12
REMARK    4  A    between atoms: O_12  and  C_13
REMARK    5  A    between atoms: C_13  and  C_14
REMARK                            x       y       z     vdW  Elec       q    Type
REMARK                         _______ _______ _______ _____ _____    ______ ____
ROOT
ATOM      1  C   UNL     1       6.099   5.075  17.695  0.00  0.00    +0.000 A 
ATOM      2  C   UNL     1       6.996   5.096  18.769  0.00  0.00    +0.000 A 
ATOM      3  C   UNL     1       7.815   6.211  18.985  0.00  0.00    +0.000 A 
ATOM      4  C   UNL     1       7.752   7.304  18.124  0.00  0.00    +0.000 A 
ATOM      5  C   UNL     1       6.795   7.322  17.110  0.00  0.00    +0.000 A 
ATOM      6  C   UNL     1       5.981   6.211  16.890  0.00  0.00    +0.000 A 
ENDROOT
BRANCH   1   7
ATOM      7  C   UNL     1       5.288   3.836  17.402  0.00  0.00    +0.000 C 
BRANCH   7  13
ATOM      8  O   UNL     1       0.859   4.311  17.224  0.00  0.00    +0.000 OA
ATOM      9  C   UNL     1       1.873   3.790  17.668  0.00  0.00    +0.000 C 
ATOM     10  N   UNL     1       2.261   2.539  17.516  0.00  0.00    +0.000 NA
ATOM     11  C   UNL     1       3.434   2.234  18.066  0.00  0.00    +0.000 C 
ATOM     12  O   UNL     1       3.875   1.102  18.206  0.00  0.00    +0.000 OA
ATOM     13  C   UNL     1       4.254   3.447  18.461  0.00  0.00    +0.000 C 
ATOM     14  S   UNL     1       3.019   4.761  18.567  0.00  0.00    +0.000 S 
ENDBRANCH   7  13
ENDBRANCH   1   7
BRANCH   4  15
ATOM     15  O   UNL     1       8.614   8.328  18.399  0.00  0.00    +0.000 OA
BRANCH  15  16
ATOM     16  C   UNL     1       8.311   9.589  17.793  0.00  0.00    +0.000 C 
BRANCH  16  17
ATOM     17  C   UNL     1       8.691  10.711  18.756  0.00  0.00    +0.000 C 
ATOM     18  C   UNL     1       9.649  11.699  18.061  0.00  0.00    +0.000 C 
ATOM     19  N   UNL     1      10.028  12.718  19.036  0.00  0.00    +0.000 N 
ATOM     20  C   UNL     1       9.976  14.062  18.777  0.00  0.00    +0.000 A 
ATOM     21  C   UNL     1       9.008  14.597  17.923  0.00  0.00    +0.000 A 
ATOM     22  C   UNL     1       8.961  15.966  17.672  0.00  0.00    +0.000 A 
ATOM     23  C   UNL     1       9.890  16.789  18.280  0.00  0.00    +0.000 A 
ATOM     24  C   UNL     1      10.810  16.202  19.128  0.00  0.00    +0.000 A 
ATOM     25  N   UNL     1      10.858  14.876  19.396  0.00  0.00    +0.000 NA
ATOM     26  C   UNL     1      10.681  12.183  20.228  0.00  0.00    +0.000 C 
ATOM     27  C   UNL     1       9.723  11.151  20.859  0.00  0.00    +0.000 C 
ATOM     28  O   UNL     1       9.319  10.128  19.924  0.00  0.00    +0.000 OA
ENDBRANCH  16  17
ENDBRANCH  15  16
ENDBRANCH   4  15
TORSDOF 5
ENDMDL
MODEL 3
REMARK VINA RESULT:      -7.9      6.873      9.854
REMARK  Name = 
REMARK  5 active torsions:
REMARK  status: ('A' for Active; 'I' for Inactive)
REMARK    1  A    between atoms: C_6  and  C_7
REMARK    2  A    between atoms: C_7  and  C_8
REMARK    3  A    between atoms: C_11  and  O_12
REMARK    4  A    between atoms: O_12  and  C_13
REMARK    5  A    between atoms: C_13  and  C_14
REMARK                            x       y       z     vdW  Elec       q    Type
REMARK                         _______ _______ _______ _____ _____    ______ ____
ROOT
ATOM      1  C   UNL     1       9.683  11.588  19.062  0.00  0.00    +0.000 A 
ATOM      2  C   UNL     1       8.836  11.832  17.975  0.00  0.00    +0.000 A 
ATOM      3  C   UNL     1       8.093  10.789  17.410  0.00  0.00    +0.000 A 
ATOM      4  C   UNL     1       8.200   9.497  17.917  0.00  0.00    +0.000 A 
ATOM      5  C   UNL     1       8.972   9.270  19.056  0.00  0.00    +0.000 A 
ATOM      6  C   UNL     1       9.717  10.306  19.620  0.00  0.00    +0.000 A 
ENDROOT
BRANCH   1   7
ATOM      7  C   UNL     1      10.561  12.688  19.609  0.00  0.00    +0.000 C 
BRANCH   7  13
ATOM      8  O   UNL     1      12.333  16.524  21.030  0.00  0.00    +0.000 OA
ATOM      9  C   UNL     1      11.706  15.859  20.217  0.00  0.00    +0.000 C 
ATOM     10  N   UNL     1      12.068  15.552  18.987  0.00  0.00    +0.000 NA
ATOM     11  C   UNL     1      11.218  14.773  18.319  0.00  0.00    +0.000 C 
ATOM     12  O   UNL     1      11.270  14.537  17.121  0.00  0.00    +0.000 OA
ATOM     13  C   UNL     1      10.178  14.113  19.203  0.00  0.00    +0.000 C 
ATOM     14  S   UNL     1      10.174  15.151  20.681  0.00  0.00    +0.000 S 
ENDBRANCH   7  13
ENDBRANCH   1   7
BRANCH   4  15
ATOM     15  O   UNL     1       7.461   8.543  17.276  0.00  0.00    +0.000 OA
BRANCH  15  16
ATOM     16  C   UNL     1       7.672   7.191  17.697  0.00  0.00    +0.000 C 
BRANCH  16  17
ATOM     17  C   UNL     1       6.670   6.284  16.986  0.00  0.00    +0.000 C 
ATOM     18  C   UNL     1       6.119   5.234  17.973  0.00  0.00    +0.000 C 
ATOM     19  N   UNL     1       5.213   4.359  17.236  0.00  0.00    +0.000 N 
ATOM     20  C   UNL     1       3.954   4.040  17.673  0.00  0.00    +0.000 A 
ATOM     21  C   UNL     1       3.195   4.948  18.414  0.00  0.00    +0.000 A 
ATOM     22  C   UNL     1       1.914   4.616  18.849  0.00  0.00    +0.000 A 
ATOM     23  C   UNL     1       1.406   3.370  18.537  0.00  0.00    +0.000 A 
ATOM     24  C   UNL     1       2.198   2.523  17.785  0.00  0.00    +0.000 A 
ATOM     25  N   UNL     1       3.438   2.838  17.340  0.00  0.00    +0.000 NA
ATOM     26  C   UNL     1       5.839   3.670  16.110  0.00  0.00    +0.000 C 
ATOM     27  C   UNL     1       6.436   4.747  15.179  0.00  0.00    +0.000 C 
ATOM     28  O   UNL     1       7.335   5.639  15.873  0.00  0.00    +0.000 OA
ENDBRANCH  16  17
ENDBRANCH  15  16
ENDBRANCH   4  15
TORSDOF 5
ENDMDL
MODEL 4
REMARK VINA RESULT:      -7.8      6.592      9.464
REMARK  Name = 
REMARK  5 active torsions:
REMARK  status: ('A' for Active; 'I' for Inactive)
REMARK    1  A    between atoms: C_6  and  C_7
REMARK    2  A    between atoms: C_7  and  C_8
REMARK    3  A    between atoms: C_11  and  O_12
REMARK    4  A    between atoms: O_12  and  C_13
REMARK    5  A    between atoms: C_13  and  C_14
REMARK                            x       y       z     vdW  Elec       q    Type
REMARK                         _______ _______ _______ _____ _____    ______ ____
ROOT
ATOM      1  C   UNL     1       5.482   5.335  17.736  0.00  0.00    +0.000 A 
ATOM      2  C   UNL     1       5.341   6.652  17.282  0.00  0.00    +0.000 A 
ATOM      3  C   UNL     1       6.380   7.573  17.453  0.00  0.00    +0.000 A 
ATOM      4  C   UNL     1       7.560   7.191  18.087  0.00  0.00    +0.000 A 
ATOM      5  C   UNL     1       7.737   5.858  18.457  0.00  0.00    +0.000 A 
ATOM      6  C   UNL     1       6.701   4.938  18.293  0.00  0.00    +0.000 A 
ENDROOT
BRANCH   1   7
ATOM      7  C   UNL     1       4.326   4.368  17.644  0.00  0.00    +0.000 C 
BRANCH   7  13
ATOM      8  O   UNL     1       0.651   3.789  20.101  0.00  0.00    +0.000 OA
ATOM      9  C   UNL     1       1.740   3.421  19.682  0.00  0.00    +0.000 C 
ATOM     10  N   UNL     1       1.984   2.405  18.878  0.00  0.00    +0.000 NA
ATOM     11  C   UNL     1       3.261   2.242  18.534  0.00  0.00    +0.000 C 
ATOM     12  O   UNL     1       3.719   1.263  17.965  0.00  0.00    +0.000 OA
ATOM     13  C   UNL     1       4.131   3.443  18.848  0.00  0.00    +0.000 C 
ATOM     14  S   UNL     1       3.178   4.327  20.103  0.00  0.00    +0.000 S 
ENDBRANCH   7  13
ENDBRANCH   1   7
BRANCH   4  15
ATOM     15  O   UNL     1       8.500   8.171  18.235  0.00  0.00    +0.000 OA
BRANCH  15  16
ATOM     16  C   UNL     1       8.192   9.437  17.643  0.00  0.00    +0.000 C 
BRANCH  16  17
ATOM     17  C   UNL     1       8.714  10.552  18.546  0.00  0.00    +0.000 C 
ATOM     18  C   UNL     1      10.041  11.103  17.988  0.00  0.00    +0.000 C 
ATOM     19  N   UNL     1      10.527  12.123  18.913  0.00  0.00    +0.000 N 
ATOM     20  C   UNL     1      10.942  13.366  18.512  0.00  0.00    +0.000 A 
ATOM     21  C   UNL     1      10.362  14.000  17.410  0.00  0.00    +0.000 A 
ATOM     22  C   UNL     1      10.787  15.266  17.014  0.00  0.00    +0.000 A 
ATOM     23  C   UNL     1      11.795  15.885  17.728  0.00  0.00    +0.000 A 
ATOM     24  C   UNL     1      12.314  15.214  18.819  0.00  0.00    +0.000 A 
ATOM     25  N   UNL     1      11.900  13.991  19.227  0.00  0.00    +0.000 NA
ATOM     26  C   UNL     1      10.751  11.633  20.271  0.00  0.00    +0.000 C 
ATOM     27  C   UNL     1       9.421  11.030  20.772  0.00  0.00    +0.000 C 
ATOM     28  O   UNL     1       8.903  10.020  19.880  0.00  0.00    +0.000 OA
ENDBRANCH  16  17
ENDBRANCH  15  16
ENDBRANCH   4  15
TORSDOF 5
ENDMDL
MODEL 5
REMARK VINA RESULT:      -7.8      2.723      3.250
REMARK  Name = 
REMARK  5 active torsions:
REMARK  status: ('A' for Active; 'I' for Inactive)
REMARK    1  A    between atoms: C_6  and  C_7
REMARK    2  A    between atoms: C_7  and  C_8
REMARK    3  A    between atoms: C_11  and  O_12
REMARK    4  A    between atoms: O_12  and  C_13
REMARK    5  A    between atoms: C_13  and  C_14
REMARK                            x       y       z     vdW  Elec       q    Type
REMARK                         _______ _______ _______ _____ _____    ______ ____
ROOT
ATOM      1  C   UNL     1       2.533   6.818  19.178  0.00  0.00    +0.000 A 
ATOM      2  C   UNL     1       2.644   7.570  18.003  0.00  0.00    +0.000 A 
ATOM      3  C   UNL     1       2.064   8.841  17.919  0.00  0.00    +0.000 A 
ATOM      4  C   UNL     1       1.360   9.363  19.002  0.00  0.00    +0.000 A 
ATOM      5  C   UNL     1       1.327   8.655  20.203  0.00  0.00    +0.000 A 
ATOM      6  C   UNL     1       1.901   7.386  20.288  0.00  0.00    +0.000 A 
ENDROOT
BRANCH   1   7
ATOM      7  C   UNL     1       3.070   5.408  19.236  0.00  0.00    +0.000 C 
BRANCH   7  13
ATOM      8  O   UNL     1       3.799   1.068  18.520  0.00  0.00    +0.000 OA
ATOM      9  C   UNL     1       3.395   2.169  18.169  0.00  0.00    +0.000 C 
ATOM     10  N   UNL     1       2.148   2.524  17.935  0.00  0.00    +0.000 NA
ATOM     11  C   UNL     1       1.970   3.802  17.606  0.00  0.00    +0.000 C 
ATOM     12  O   UNL     1       0.935   4.281  17.166  0.00  0.00    +0.000 OA
ATOM     13  C   UNL     1       3.175   4.676  17.895  0.00  0.00    +0.000 C 
ATOM     14  S   UNL     1       4.532   3.489  17.994  0.00  0.00    +0.000 S 
ENDBRANCH   7  13
ENDBRANCH   1   7
BRANCH   4  15
ATOM     15  O   UNL     1       0.803  10.596  18.810  0.00  0.00    +0.000 OA
BRANCH  15  16
ATOM     16  C   UNL     1       0.736  11.445  19.961  0.00  0.00    +0.000 C 
BRANCH  16  17
ATOM     17  C   UNL     1      -0.705  11.497  20.461  0.00  0.00    +0.000 C 
ATOM     18  C   UNL     1      -1.545  12.414  19.550  0.00  0.00    +0.000 C 
ATOM     19  N   UNL     1      -2.896  12.477  20.100  0.00  0.00    +0.000 N 
ATOM     20  C   UNL     1      -4.025  12.286  19.347  0.00  0.00    +0.000 A 
ATOM     21  C   UNL     1      -4.026  11.414  18.255  0.00  0.00    +0.000 A 
ATOM     22  C   UNL     1      -5.179  11.222  17.500  0.00  0.00    +0.000 A 
ATOM     23  C   UNL     1      -6.326  11.912  17.845  0.00  0.00    +0.000 A 
ATOM     24  C   UNL     1      -6.266  12.745  18.946  0.00  0.00    +0.000 A 
ATOM     25  N   UNL     1      -5.157  12.929  19.701  0.00  0.00    +0.000 NA
ATOM     26  C   UNL     1      -2.956  12.985  21.469  0.00  0.00    +0.000 C 
ATOM     27  C   UNL     1      -2.053  12.084  22.338  0.00  0.00    +0.000 C 
ATOM     28  O   UNL     1      -0.707  11.991  21.823  0.00  0.00    +0.000 OA
ENDBRANCH  16  17
ENDBRANCH  15  16
ENDBRANCH   4  15
TORSDOF 5
ENDMDL
MODEL 6
REMARK VINA RESULT:      -7.8      4.125      5.178
REMARK  Name = 
REMARK  5 active torsions:
REMARK  status: ('A' for Active; 'I' for Inactive)
REMARK    1  A    between atoms: C_6  and  C_7
REMARK    2  A    between atoms: C_7  and  C_8
REMARK    3  A    between atoms: C_11  and  O_12
REMARK    4  A    between atoms: O_12  and  C_13
REMARK    5  A    between atoms: C_13  and  C_14
REMARK                            x       y       z     vdW  Elec       q    Type
REMARK                         _______ _______ _______ _____ _____    ______ ____
ROOT
ATOM      1  C   UNL     1       2.421   7.165  19.046  0.00  0.00    +0.000 A 
ATOM      2  C   UNL     1       2.365   8.055  17.967  0.00  0.00    +0.000 A 
ATOM      3  C   UNL     1       1.742   9.300  18.109  0.00  0.00    +0.000 A 
ATOM      4  C   UNL     1       1.162   9.660  19.323  0.00  0.00    +0.000 A 
ATOM      5  C   UNL     1       1.297   8.814  20.423  0.00  0.00    +0.000 A 
ATOM      6  C   UNL     1       1.913   7.570  20.284  0.00  0.00    +0.000 A 
ENDROOT
BRANCH   1   7
ATOM      7  C   UNL     1       3.002   5.783  18.868  0.00  0.00    +0.000 C 
BRANCH   7  13
ATOM      8  O   UNL     1       3.734   1.431  18.238  0.00  0.00    +0.000 OA
ATOM      9  C   UNL     1       3.134   2.361  18.759  0.00  0.00    +0.000 C 
ATOM     10  N   UNL     1       3.142   2.703  20.032  0.00  0.00    +0.000 NA
ATOM     11  C   UNL     1       2.435   3.791  20.335  0.00  0.00    +0.000 C 
ATOM     12  O   UNL     1       2.156   4.158  21.467  0.00  0.00    +0.000 OA
ATOM     13  C   UNL     1       2.044   4.617  19.126  0.00  0.00    +0.000 C 
ATOM     14  S   UNL     1       2.186   3.443  17.760  0.00  0.00    +0.000 S 
ENDBRANCH   7  13
ENDBRANCH   1   7
BRANCH   4  15
ATOM     15  O   UNL     1       0.550  10.881  19.350  0.00  0.00    +0.000 OA
BRANCH  15  16
ATOM     16  C   UNL     1       0.406  11.487  20.639  0.00  0.00    +0.000 C 
BRANCH  16  17
ATOM     17  C   UNL     1       1.040  12.876  20.613  0.00  0.00    +0.000 C 
ATOM     18  C   UNL     1       1.029  13.431  19.174  0.00  0.00    +0.000 C 
ATOM     19  N   UNL     1       1.694  14.730  19.190  0.00  0.00    +0.000 N 
ATOM     20  C   UNL     1       1.163  15.855  18.614  0.00  0.00    +0.000 A 
ATOM     21  C   UNL     1      -0.218  16.059  18.567  0.00  0.00    +0.000 A 
ATOM     22  C   UNL     1      -0.747  17.207  17.984  0.00  0.00    +0.000 A 
ATOM     23  C   UNL     1       0.117  18.143  17.448  0.00  0.00    +0.000 A 
ATOM     24  C   UNL     1       1.473  17.892  17.542  0.00  0.00    +0.000 A 
ATOM     25  N   UNL     1       2.003  16.789  18.121  0.00  0.00    +0.000 NA
ATOM     26  C   UNL     1       3.073  14.685  19.671  0.00  0.00    +0.000 C 
ATOM     27  C   UNL     1       3.052  14.064  21.084  0.00  0.00    +0.000 C 
ATOM     28  O   UNL     1       2.396  12.778  21.112  0.00  0.00    +0.000 OA
ENDBRANCH  16  17
ENDBRANCH  15  16
ENDBRANCH   4  15
TORSDOF 5
ENDMDL
MODEL 7
REMARK VINA RESULT:      -7.7      3.206      3.993
REMARK  Name = 
REMARK  5 active torsions:
REMARK  status: ('A' for Active; 'I' for Inactive)
REMARK    1  A    between atoms: C_6  and  C_7
REMARK    2  A    between atoms: C_7  and  C_8
REMARK    3  A    between atoms: C_11  and  O_12
REMARK    4  A    between atoms: O_12  and  C_13
REMARK    5  A    between atoms: C_13  and  C_14
REMARK                            x       y       z     vdW  Elec       q    Type
REMARK                         _______ _______ _______ _____ _____    ______ ____
ROOT
ATOM      1  C   UNL     1       2.617   7.089  19.214  0.00  0.00    +0.000 A 
ATOM      2  C   UNL     1       1.894   7.603  20.297  0.00  0.00    +0.000 A 
ATOM      3  C   UNL     1       1.169   8.793  20.163  0.00  0.00    +0.000 A 
ATOM      4  C   UNL     1       1.171   9.482  18.953  0.00  0.00    +0.000 A 
ATOM      5  C   UNL     1       1.814   8.925  17.848  0.00  0.00    +0.000 A 
ATOM      6  C   UNL     1       2.541   7.742  17.980  0.00  0.00    +0.000 A 
ENDROOT
BRANCH   1   7
ATOM      7  C   UNL     1       3.480   5.863  19.385  0.00  0.00    +0.000 C 
BRANCH   7  13
ATOM      8  O   UNL     1       4.897   1.751  20.367  0.00  0.00    +0.000 OA
ATOM      9  C   UNL     1       4.020   2.547  20.058  0.00  0.00    +0.000 C 
ATOM     10  N   UNL     1       2.988   2.921  20.788  0.00  0.00    +0.000 NA
ATOM     11  C   UNL     1       2.200   3.841  20.234  0.00  0.00    +0.000 C 
ATOM     12  O   UNL     1       1.102   4.174  20.653  0.00  0.00    +0.000 OA
ATOM     13  C   UNL     1       2.820   4.527  19.032  0.00  0.00    +0.000 C 
ATOM     14  S   UNL     1       4.107   3.370  18.515  0.00  0.00    +0.000 S 
ENDBRANCH   7  13
ENDBRANCH   1   7
BRANCH   4  15
ATOM     15  O   UNL     1       0.460  10.649  18.932  0.00  0.00    +0.000 OA
BRANCH  15  16
ATOM     16  C   UNL     1       0.617  11.504  20.070  0.00  0.00    +0.000 C 
BRANCH  16  17
ATOM     17  C   UNL     1      -0.640  11.424  20.932  0.00  0.00    +0.000 C 
ATOM     18  C   UNL     1      -1.498  12.689  20.729  0.00  0.00    +0.000 C 
ATOM     19  N   UNL     1      -2.655  12.592  21.614  0.00  0.00    +0.000 N 
ATOM     20  C   UNL     1      -3.943  12.804  21.196  0.00  0.00    +0.000 A 
ATOM     21  C   UNL     1      -4.344  12.477  19.898  0.00  0.00    +0.000 A 
ATOM     22  C   UNL     1      -5.656  12.692  19.484  0.00  0.00    +0.000 A 
ATOM     23  C   UNL     1      -6.557  13.237  20.378  0.00  0.00    +0.000 A 
ATOM     24  C   UNL     1      -6.104  13.521  21.653  0.00  0.00    +0.000 A 
ATOM     25  N   UNL     1      -4.837  13.302  22.076  0.00  0.00    +0.000 NA
ATOM     26  C   UNL     1      -2.311  12.475  23.029  0.00  0.00    +0.000 C 
ATOM     27  C   UNL     1      -1.399  11.240  23.185  0.00  0.00    +0.000 C 
ATOM     28  O   UNL     1      -0.244  11.294  22.320  0.00  0.00    +0.000 OA
ENDBRANCH  16  17
ENDBRANCH  15  16
ENDBRANCH   4  15
TORSDOF 5
ENDMDL
MODEL 8
REMARK VINA RESULT:      -7.7      4.329     10.508
REMARK  Name = 
REMARK  5 active torsions:
REMARK  status: ('A' for Active; 'I' for Inactive)
REMARK    1  A    between atoms: C_6  and  C_7
REMARK    2  A    between atoms: C_7  and  C_8
REMARK    3  A    between atoms: C_11  and  O_12
REMARK    4  A    between atoms: O_12  and  C_13
REMARK    5  A    between atoms: C_13  and  C_14
REMARK                            x       y       z     vdW  Elec       q    Type
REMARK                         _______ _______ _______ _____ _____    ______ ____
ROOT
ATOM      1  C   UNL     1      -1.186  11.808  22.301  0.00  0.00    +0.000 A 
ATOM      2  C   UNL     1      -0.446  11.713  21.117  0.00  0.00    +0.000 A 
ATOM      3  C   UNL     1       0.352  10.591  20.869  0.00  0.00    +0.000 A 
ATOM      4  C   UNL     1       0.426   9.563  21.806  0.00  0.00    +0.000 A 
ATOM      5  C   UNL     1      -0.380   9.612  22.942  0.00  0.00    +0.000 A 
ATOM      6  C   UNL     1      -1.173  10.732  23.195  0.00  0.00    +0.000 A 
ENDROOT
BRANCH   1   7
ATOM      7  C   UNL     1      -1.967  13.060  22.617  0.00  0.00    +0.000 C 
BRANCH   7  13
ATOM      8  O   UNL     1      -4.752  16.184  24.154  0.00  0.00    +0.000 OA
ATOM      9  C   UNL     1      -4.485  15.029  23.851  0.00  0.00    +0.000 C 
ATOM     10  N   UNL     1      -5.001  14.322  22.866  0.00  0.00    +0.000 NA
ATOM     11  C   UNL     1      -4.503  13.095  22.721  0.00  0.00    +0.000 C 
ATOM     12  O   UNL     1      -4.974  12.223  22.006  0.00  0.00    +0.000 OA
ATOM     13  C   UNL     1      -3.214  12.870  23.485  0.00  0.00    +0.000 C 
ATOM     14  S   UNL     1      -3.244  14.170  24.739  0.00  0.00    +0.000 S 
ENDBRANCH   7  13
ENDBRANCH   1   7
BRANCH   4  15
ATOM     15  O   UNL     1       1.258   8.527  21.487  0.00  0.00    +0.000 OA
BRANCH  15  16
ATOM     16  C   UNL     1       1.543   8.351  20.095  0.00  0.00    +0.000 C 
BRANCH  16  17
ATOM     17  C   UNL     1       2.324   7.053  19.905  0.00  0.00    +0.000 C 
ATOM     18  C   UNL     1       2.423   6.714  18.404  0.00  0.00    +0.000 C 
ATOM     19  N   UNL     1       3.126   5.441  18.277  0.00  0.00    +0.000 N 
ATOM     20  C   UNL     1       4.176   5.243  17.418  0.00  0.00    +0.000 A 
ATOM     21  C   UNL     1       5.064   6.277  17.113  0.00  0.00    +0.000 A 
ATOM     22  C   UNL     1       6.130   6.064  16.243  0.00  0.00    +0.000 A 
ATOM     23  C   UNL     1       6.296   4.812  15.684  0.00  0.00    +0.000 A 
ATOM     24  C   UNL     1       5.395   3.826  16.040  0.00  0.00    +0.000 A 
ATOM     25  N   UNL     1       4.364   4.012  16.897  0.00  0.00    +0.000 NA
ATOM     26  C   UNL     1       2.475   4.332  18.972  0.00  0.00    +0.000 C 
ATOM     27  C   UNL     1       2.334   4.734  20.456  0.00  0.00    +0.000 C 
ATOM     28  O   UNL     1       1.648   5.993  20.624  0.00  0.00    +0.000 OA
ENDBRANCH  16  17
ENDBRANCH  15  16
ENDBRANCH   4  15
TORSDOF 5
ENDMDL
MODEL 9
REMARK VINA RESULT:      -7.7      6.756      8.640
REMARK  Name = 
REMARK  5 active torsions:
REMARK  status: ('A' for Active; 'I' for Inactive)
REMARK    1  A    between atoms: C_6  and  C_7
REMARK    2  A    between atoms: C_7  and  C_8
REMARK    3  A    between atoms: C_11  and  O_12
REMARK    4  A    between atoms: O_12  and  C_13
REMARK    5  A    between atoms: C_13  and  C_14
REMARK                            x       y       z     vdW  Elec       q    Type
REMARK                         _______ _______ _______ _____ _____    ______ ____
ROOT
ATOM      1  C   UNL     1       5.420   5.294  18.077  0.00  0.00    +0.000 A 
ATOM      2  C   UNL     1       6.543   5.113  18.892  0.00  0.00    +0.000 A 
ATOM      3  C   UNL     1       7.560   6.074  18.917  0.00  0.00    +0.000 A 
ATOM      4  C   UNL     1       7.468   7.214  18.122  0.00  0.00    +0.000 A 
ATOM      5  C   UNL     1       6.309   7.440  17.382  0.00  0.00    +0.000 A 
ATOM      6  C   UNL     1       5.295   6.482  17.350  0.00  0.00    +0.000 A 
ENDROOT
BRANCH   1   7
ATOM      7  C   UNL     1       4.371   4.214  17.971  0.00  0.00    +0.000 C 
BRANCH   7  13
ATOM      8  O   UNL     1       0.457   2.133  18.451  0.00  0.00    +0.000 OA
ATOM      9  C   UNL     1       1.548   2.492  18.871  0.00  0.00    +0.000 C 
ATOM     10  N   UNL     1       2.577   1.727  19.180  0.00  0.00    +0.000 NA
ATOM     11  C   UNL     1       3.672   2.374  19.576  0.00  0.00    +0.000 C 
ATOM     12  O   UNL     1       4.653   1.855  20.086  0.00  0.00    +0.000 OA
ATOM     13  C   UNL     1       3.642   3.859  19.270  0.00  0.00    +0.000 C 
ATOM     14  S   UNL     1       1.882   4.201  19.054  0.00  0.00    +0.000 S 
ENDBRANCH   7  13
ENDBRANCH   1   7
BRANCH   4  15
ATOM     15  O   UNL     1       8.526   8.075  18.192  0.00  0.00    +0.000 OA
BRANCH  15  16
ATOM     16  C   UNL     1       8.357   9.339  17.542  0.00  0.00    +0.000 C 
BRANCH  16  17
ATOM     17  C   UNL     1       8.532  10.457  18.567  0.00  0.00    +0.000 C 
ATOM     18  C   UNL     1       9.106  11.713  17.882  0.00  0.00    +0.000 C 
ATOM     19  N   UNL     1       9.308  12.731  18.909  0.00  0.00    +0.000 N 
ATOM     20  C   UNL     1       8.871  14.024  18.784  0.00  0.00    +0.000 A 
ATOM     21  C   UNL     1       7.705  14.327  18.076  0.00  0.00    +0.000 A 
ATOM     22  C   UNL     1       7.267  15.643  17.959  0.00  0.00    +0.000 A 
ATOM     23  C   UNL     1       8.006  16.648  18.553  0.00  0.00    +0.000 A 
ATOM     24  C   UNL     1       9.139  16.282  19.255  0.00  0.00    +0.000 A 
ATOM     25  N   UNL     1       9.569  15.006  19.392  0.00  0.00    +0.000 NA
ATOM     26  C   UNL     1      10.212  12.320  19.982  0.00  0.00    +0.000 C 
ATOM     27  C   UNL     1       9.641  11.025  20.599  0.00  0.00    +0.000 C 
ATOM     28  O   UNL     1       9.421   9.994  19.613  0.00  0.00    +0.000 OA
ENDBRANCH  16  17
ENDBRANCH  15  16
ENDBRANCH   4  15
TORSDOF 5
ENDMDL
