MODEL 1
REMARK VINA RESULT:      -7.1      0.000      0.000
REMARK  Name = 
REMARK  3 active torsions:
REMARK  status: ('A' for Active; 'I' for Inactive)
REMARK    1  A    between atoms: C_2  and  O_3
REMARK    2  A    between atoms: C_2  and  C_10
REMARK    3  A    between atoms: O_3  and  C_4
REMARK                            x       y       z     vdW  Elec       q    Type
REMARK                         _______ _______ _______ _____ _____    ______ ____
ROOT
ATOM      1  O   UNL     1       2.444   7.008  18.393  0.00  0.00    +0.000 OA
ATOM      2  C   UNL     1       3.030   5.978  18.094  0.00  0.00    +0.000 C 
ENDROOT
BRANCH   2   3
ATOM      3  C   UNL     1       2.552   4.629  18.514  0.00  0.00    +0.000 A 
ATOM      4  C   UNL     1       2.518   3.618  17.537  0.00  0.00    +0.000 A 
ATOM      5  C   UNL     1       2.109   2.325  17.864  0.00  0.00    +0.000 A 
ATOM      6  C   UNL     1       1.728   2.030  19.171  0.00  0.00    +0.000 A 
ATOM      7  C   UNL     1       1.752   3.030  20.141  0.00  0.00    +0.000 A 
ATOM      8 CL   UNL     1       1.280   2.654  21.754  0.00  0.00    +0.000 Cl
ATOM      9  C   UNL     1       2.158   4.328  19.825  0.00  0.00    +0.000 A 
ENDBRANCH   2   3
BRANCH   2  10
ATOM     10  O   UNL     1       4.183   5.871  17.329  0.00  0.00    +0.000 OA
BRANCH  10  11
ATOM     11  C   UNL     1       5.458   6.054  17.899  0.00  0.00    +0.000 A 
ATOM     12  C   UNL     1       6.463   6.834  17.337  0.00  0.00    +0.000 A 
ATOM     13  C   UNL     1       7.716   6.868  17.949  0.00  0.00    +0.000 A 
ATOM     14  C   UNL     1       7.917   6.105  19.090  0.00  0.00    +0.000 A 
ATOM     15  N   UNL     1       6.962   5.332  19.653  0.00  0.00    +0.000 NA
ATOM     16  C   UNL     1       5.754   5.324  19.043  0.00  0.00    +0.000 A 
ENDBRANCH  10  11
ENDBRANCH   2  10
TORSDOF 3
ENDMDL
MODEL 2
REMARK VINA RESULT:      -7.0      2.345      2.903
REMARK  Name = 
REMARK  3 active torsions:
REMARK  status: ('A' for Active; 'I' for Inactive)
REMARK    1  A    between atoms: C_2  and  O_3
REMARK    2  A    between atoms: C_2  and  C_10
REMARK    3  A    between atoms: O_3  and  C_4
REMARK                            x       y       z     vdW  Elec       q    Type
REMARK                         _______ _______ _______ _____ _____    ______ ____
ROOT
ATOM      1  O   UNL     1       5.922   3.824  19.153  0.00  0.00    +0.000 OA
ATOM      2  C   UNL     1       4.945   4.328  18.620  0.00  0.00    +0.000 C 
ENDROOT
BRANCH   2   3
ATOM      3  C   UNL     1       3.548   3.934  18.964  0.00  0.00    +0.000 A 
ATOM      4  C   UNL     1       2.574   4.049  17.956  0.00  0.00    +0.000 A 
ATOM      5  C   UNL     1       1.252   3.672  18.195  0.00  0.00    +0.000 A 
ATOM      6  C   UNL     1       0.890   3.178  19.447  0.00  0.00    +0.000 A 
ATOM      7  C   UNL     1       1.850   3.069  20.452  0.00  0.00    +0.000 A 
ATOM      8 CL   UNL     1       1.392   2.455  21.994  0.00  0.00    +0.000 Cl
ATOM      9  C   UNL     1       3.175   3.445  20.223  0.00  0.00    +0.000 A 
ENDBRANCH   2   3
BRANCH   2  10
ATOM     10  O   UNL     1       4.947   5.325  17.655  0.00  0.00    +0.000 OA
BRANCH  10  11
ATOM     11  C   UNL     1       5.594   5.144  16.418  0.00  0.00    +0.000 A 
ATOM     12  C   UNL     1       5.102   4.356  15.383  0.00  0.00    +0.000 A 
ATOM     13  C   UNL     1       5.876   4.181  14.236  0.00  0.00    +0.000 A 
ATOM     14  C   UNL     1       7.120   4.791  14.178  0.00  0.00    +0.000 A 
ATOM     15  N   UNL     1       7.628   5.555  15.170  0.00  0.00    +0.000 NA
ATOM     16  C   UNL     1       6.853   5.713  16.268  0.00  0.00    +0.000 A 
ENDBRANCH  10  11
ENDBRANCH   2  10
TORSDOF 3
ENDMDL
MODEL 3
REMARK VINA RESULT:      -7.0      1.969      2.353
REMARK  Name = 
REMARK  3 active torsions:
REMARK  status: ('A' for Active; 'I' for Inactive)
REMARK    1  A    between atoms: C_2  and  O_3
REMARK    2  A    between atoms: C_2  and  C_10
REMARK    3  A    between atoms: O_3  and  C_4
REMARK                            x       y       z     vdW  Elec       q    Type
REMARK                         _______ _______ _______ _____ _____    ______ ____
ROOT
ATOM      1  O   UNL     1       3.512   6.994  18.265  0.00  0.00    +0.000 OA
ATOM      2  C   UNL     1       3.807   5.820  18.432  0.00  0.00    +0.000 C 
ENDROOT
BRANCH   2   3
ATOM      3  C   UNL     1       2.809   4.790  18.843  0.00  0.00    +0.000 A 
ATOM      4  C   UNL     1       1.930   4.308  17.857  0.00  0.00    +0.000 A 
ATOM      5  C   UNL     1       0.988   3.324  18.160  0.00  0.00    +0.000 A 
ATOM      6  C   UNL     1       0.915   2.813  19.455  0.00  0.00    +0.000 A 
ATOM      7  C   UNL     1       1.778   3.293  20.438  0.00  0.00    +0.000 A 
ATOM      8 CL   UNL     1       1.680   2.654  22.033  0.00  0.00    +0.000 Cl
ATOM      9  C   UNL     1       2.723   4.279  20.145  0.00  0.00    +0.000 A 
ENDBRANCH   2   3
BRANCH   2  10
ATOM     10  O   UNL     1       5.059   5.246  18.264  0.00  0.00    +0.000 OA
BRANCH  10  11
ATOM     11  C   UNL     1       5.625   5.087  16.985  0.00  0.00    +0.000 A 
ATOM     12  C   UNL     1       5.092   4.277  15.986  0.00  0.00    +0.000 A 
ATOM     13  C   UNL     1       5.790   4.130  14.788  0.00  0.00    +0.000 A 
ATOM     14  C   UNL     1       7.004   4.786  14.644  0.00  0.00    +0.000 A 
ATOM     15  N   UNL     1       7.550   5.572  15.598  0.00  0.00    +0.000 NA
ATOM     16  C   UNL     1       6.847   5.703  16.748  0.00  0.00    +0.000 A 
ENDBRANCH  10  11
ENDBRANCH   2  10
TORSDOF 3
ENDMDL
MODEL 4
REMARK VINA RESULT:      -6.9      1.267      1.878
REMARK  Name = 
REMARK  3 active torsions:
REMARK  status: ('A' for Active; 'I' for Inactive)
REMARK    1  A    between atoms: C_2  and  O_3
REMARK    2  A    between atoms: C_2  and  C_10
REMARK    3  A    between atoms: O_3  and  C_4
REMARK                            x       y       z     vdW  Elec       q    Type
REMARK                         _______ _______ _______ _____ _____    ______ ____
ROOT
ATOM      1  O   UNL     1       2.846   7.829  17.519  0.00  0.00    +0.000 OA
ATOM      2  C   UNL     1       3.221   6.689  17.750  0.00  0.00    +0.000 C 
ENDROOT
BRANCH   2   3
ATOM      3  C   UNL     1       2.473   5.763  18.650  0.00  0.00    +0.000 A 
ATOM      4  C   UNL     1       2.242   6.186  19.971  0.00  0.00    +0.000 A 
ATOM      5  C   UNL     1       1.525   5.386  20.861  0.00  0.00    +0.000 A 
ATOM      6  C   UNL     1       1.033   4.152  20.439  0.00  0.00    +0.000 A 
ATOM      7  C   UNL     1       1.266   3.725  19.133  0.00  0.00    +0.000 A 
ATOM      8 CL   UNL     1       0.651   2.200  18.621  0.00  0.00    +0.000 Cl
ATOM      9  C   UNL     1       1.983   4.518  18.235  0.00  0.00    +0.000 A 
ENDBRANCH   2   3
BRANCH   2  10
ATOM     10  O   UNL     1       4.347   6.064  17.234  0.00  0.00    +0.000 OA
BRANCH  10  11
ATOM     11  C   UNL     1       5.601   6.176  17.865  0.00  0.00    +0.000 A 
ATOM     12  C   UNL     1       6.637   6.987  17.414  0.00  0.00    +0.000 A 
ATOM     13  C   UNL     1       7.865   6.947  18.073  0.00  0.00    +0.000 A 
ATOM     14  C   UNL     1       8.011   6.084  19.149  0.00  0.00    +0.000 A 
ATOM     15  N   UNL     1       7.026   5.280  19.605  0.00  0.00    +0.000 NA
ATOM     16  C   UNL     1       5.842   5.344  18.951  0.00  0.00    +0.000 A 
ENDBRANCH  10  11
ENDBRANCH   2  10
TORSDOF 3
ENDMDL
MODEL 5
REMARK VINA RESULT:      -6.7      2.061      2.805
REMARK  Name = 
REMARK  3 active torsions:
REMARK  status: ('A' for Active; 'I' for Inactive)
REMARK    1  A    between atoms: C_2  and  O_3
REMARK    2  A    between atoms: C_2  and  C_10
REMARK    3  A    between atoms: O_3  and  C_4
REMARK                            x       y       z     vdW  Elec       q    Type
REMARK                         _______ _______ _______ _____ _____    ______ ____
ROOT
ATOM      1  O   UNL     1       2.857   7.414  17.389  0.00  0.00    +0.000 OA
ATOM      2  C   UNL     1       3.423   6.524  18.007  0.00  0.00    +0.000 C 
ENDROOT
BRANCH   2   3
ATOM      3  C   UNL     1       2.689   5.540  18.854  0.00  0.00    +0.000 A 
ATOM      4  C   UNL     1       2.647   5.780  20.239  0.00  0.00    +0.000 A 
ATOM      5  C   UNL     1       1.955   4.918  21.091  0.00  0.00    +0.000 A 
ATOM      6  C   UNL     1       1.298   3.806  20.566  0.00  0.00    +0.000 A 
ATOM      7  C   UNL     1       1.343   3.561  19.194  0.00  0.00    +0.000 A 
ATOM      8 CL   UNL     1       0.527   2.186  18.556  0.00  0.00    +0.000 Cl
ATOM      9  C   UNL     1       2.035   4.416  18.334  0.00  0.00    +0.000 A 
ENDBRANCH   2   3
BRANCH   2  10
ATOM     10  O   UNL     1       4.786   6.263  18.024  0.00  0.00    +0.000 OA
BRANCH  10  11
ATOM     11  C   UNL     1       5.444   5.735  16.897  0.00  0.00    +0.000 A 
ATOM     12  C   UNL     1       4.913   4.751  16.068  0.00  0.00    +0.000 A 
ATOM     13  C   UNL     1       5.696   4.243  15.032  0.00  0.00    +0.000 A 
ATOM     14  C   UNL     1       6.986   4.729  14.877  0.00  0.00    +0.000 A 
ATOM     15  N   UNL     1       7.531   5.677  15.671  0.00  0.00    +0.000 NA
ATOM     16  C   UNL     1       6.746   6.158  16.664  0.00  0.00    +0.000 A 
ENDBRANCH  10  11
ENDBRANCH   2  10
TORSDOF 3
ENDMDL
MODEL 6
REMARK VINA RESULT:      -6.7      1.251      1.454
REMARK  Name = 
REMARK  3 active torsions:
REMARK  status: ('A' for Active; 'I' for Inactive)
REMARK    1  A    between atoms: C_2  and  O_3
REMARK    2  A    between atoms: C_2  and  C_10
REMARK    3  A    between atoms: O_3  and  C_4
REMARK                            x       y       z     vdW  Elec       q    Type
REMARK                         _______ _______ _______ _____ _____    ______ ____
ROOT
ATOM      1  O   UNL     1       2.383   7.367  18.297  0.00  0.00    +0.000 OA
ATOM      2  C   UNL     1       2.958   6.394  18.762  0.00  0.00    +0.000 C 
ENDROOT
BRANCH   2   3
ATOM      3  C   UNL     1       2.269   5.094  19.008  0.00  0.00    +0.000 A 
ATOM      4  C   UNL     1       1.756   4.410  17.892  0.00  0.00    +0.000 A 
ATOM      5  C   UNL     1       1.124   3.175  18.041  0.00  0.00    +0.000 A 
ATOM      6  C   UNL     1       0.997   2.612  19.309  0.00  0.00    +0.000 A 
ATOM      7  C   UNL     1       1.497   3.290  20.420  0.00  0.00    +0.000 A 
ATOM      8 CL   UNL     1       1.336   2.584  21.982  0.00  0.00    +0.000 Cl
ATOM      9  C   UNL     1       2.129   4.527  20.282  0.00  0.00    +0.000 A 
ENDBRANCH   2   3
BRANCH   2  10
ATOM     10  O   UNL     1       4.296   6.313  19.118  0.00  0.00    +0.000 OA
BRANCH  10  11
ATOM     11  C   UNL     1       5.259   5.796  18.229  0.00  0.00    +0.000 A 
ATOM     12  C   UNL     1       5.122   5.784  16.845  0.00  0.00    +0.000 A 
ATOM     13  C   UNL     1       6.104   5.164  16.072  0.00  0.00    +0.000 A 
ATOM     14  C   UNL     1       7.176   4.568  16.719  0.00  0.00    +0.000 A 
ATOM     15  N   UNL     1       7.332   4.557  18.061  0.00  0.00    +0.000 NA
ATOM     16  C   UNL     1       6.368   5.171  18.786  0.00  0.00    +0.000 A 
ENDBRANCH  10  11
ENDBRANCH   2  10
TORSDOF 3
ENDMDL
MODEL 7
REMARK VINA RESULT:      -6.7      1.502      2.215
REMARK  Name = 
REMARK  3 active torsions:
REMARK  status: ('A' for Active; 'I' for Inactive)
REMARK    1  A    between atoms: C_2  and  O_3
REMARK    2  A    between atoms: C_2  and  C_10
REMARK    3  A    between atoms: O_3  and  C_4
REMARK                            x       y       z     vdW  Elec       q    Type
REMARK                         _______ _______ _______ _____ _____    ______ ____
ROOT
ATOM      1  O   UNL     1       2.832   7.669  17.612  0.00  0.00    +0.000 OA
ATOM      2  C   UNL     1       3.189   6.513  17.791  0.00  0.00    +0.000 C 
ENDROOT
BRANCH   2   3
ATOM      3  C   UNL     1       2.461   5.578  18.697  0.00  0.00    +0.000 A 
ATOM      4  C   UNL     1       2.303   5.967  20.040  0.00  0.00    +0.000 A 
ATOM      5  C   UNL     1       1.609   5.157  20.940  0.00  0.00    +0.000 A 
ATOM      6  C   UNL     1       1.068   3.949  20.506  0.00  0.00    +0.000 A 
ATOM      7  C   UNL     1       1.228   3.555  19.179  0.00  0.00    +0.000 A 
ATOM      8 CL   UNL     1       0.553   2.061  18.653  0.00  0.00    +0.000 Cl
ATOM      9  C   UNL     1       1.922   4.358  18.271  0.00  0.00    +0.000 A 
ENDBRANCH   2   3
BRANCH   2  10
ATOM     10  O   UNL     1       4.272   5.878  17.202  0.00  0.00    +0.000 OA
BRANCH  10  11
ATOM     11  C   UNL     1       5.591   6.144  17.617  0.00  0.00    +0.000 A 
ATOM     12  C   UNL     1       6.228   5.496  18.670  0.00  0.00    +0.000 A 
ATOM     13  C   UNL     1       7.506   5.908  19.046  0.00  0.00    +0.000 A 
ATOM     14  C   UNL     1       8.089   6.964  18.363  0.00  0.00    +0.000 A 
ATOM     15  N   UNL     1       7.492   7.618  17.342  0.00  0.00    +0.000 NA
ATOM     16  C   UNL     1       6.255   7.193  16.993  0.00  0.00    +0.000 A 
ENDBRANCH  10  11
ENDBRANCH   2  10
TORSDOF 3
ENDMDL
MODEL 8
REMARK VINA RESULT:      -6.6      3.559      5.752
REMARK  Name = 
REMARK  3 active torsions:
REMARK  status: ('A' for Active; 'I' for Inactive)
REMARK    1  A    between atoms: C_2  and  O_3
REMARK    2  A    between atoms: C_2  and  C_10
REMARK    3  A    between atoms: O_3  and  C_4
REMARK                            x       y       z     vdW  Elec       q    Type
REMARK                         _______ _______ _______ _____ _____    ______ ____
ROOT
ATOM      1  O   UNL     1       6.119   4.517  19.845  0.00  0.00    +0.000 OA
ATOM      2  C   UNL     1       5.406   4.080  18.953  0.00  0.00    +0.000 C 
ENDROOT
BRANCH   2   3
ATOM      3  C   UNL     1       5.354   4.690  17.592  0.00  0.00    +0.000 A 
ATOM      4  C   UNL     1       4.949   6.033  17.499  0.00  0.00    +0.000 A 
ATOM      5  C   UNL     1       4.903   6.680  16.263  0.00  0.00    +0.000 A 
ATOM      6  C   UNL     1       5.261   5.988  15.108  0.00  0.00    +0.000 A 
ATOM      7  C   UNL     1       5.657   4.655  15.194  0.00  0.00    +0.000 A 
ATOM      8 CL   UNL     1       6.099   3.810  13.760  0.00  0.00    +0.000 Cl
ATOM      9  C   UNL     1       5.704   3.998  16.426  0.00  0.00    +0.000 A 
ENDBRANCH   2   3
BRANCH   2  10
ATOM     10  O   UNL     1       4.566   2.978  19.026  0.00  0.00    +0.000 OA
BRANCH  10  11
ATOM     11  C   UNL     1       3.175   3.128  19.185  0.00  0.00    +0.000 A 
ATOM     12  C   UNL     1       2.573   3.777  20.258  0.00  0.00    +0.000 A 
ATOM     13  C   UNL     1       1.182   3.786  20.352  0.00  0.00    +0.000 A 
ATOM     14  C   UNL     1       0.449   3.129  19.375  0.00  0.00    +0.000 A 
ATOM     15  N   UNL     1       1.004   2.484  18.326  0.00  0.00    +0.000 NA
ATOM     16  C   UNL     1       2.357   2.498  18.256  0.00  0.00    +0.000 A 
ENDBRANCH  10  11
ENDBRANCH   2  10
TORSDOF 3
ENDMDL
MODEL 9
REMARK VINA RESULT:      -6.6      4.403      6.373
REMARK  Name = 
REMARK  3 active torsions:
REMARK  status: ('A' for Active; 'I' for Inactive)
REMARK    1  A    between atoms: C_2  and  O_3
REMARK    2  A    between atoms: C_2  and  C_10
REMARK    3  A    between atoms: O_3  and  C_4
REMARK                            x       y       z     vdW  Elec       q    Type
REMARK                         _______ _______ _______ _____ _____    ______ ____
ROOT
ATOM      1  O   UNL     1       7.896   4.374  16.852  0.00  0.00    +0.000 OA
ATOM      2  C   UNL     1       6.920   4.649  16.169  0.00  0.00    +0.000 C 
ENDROOT
BRANCH   2   3
ATOM      3  C   UNL     1       6.924   4.547  14.681  0.00  0.00    +0.000 A 
ATOM      4  C   UNL     1       7.793   5.398  13.974  0.00  0.00    +0.000 A 
ATOM      5  C   UNL     1       7.872   5.339  12.582  0.00  0.00    +0.000 A 
ATOM      6  C   UNL     1       7.081   4.430  11.883  0.00  0.00    +0.000 A 
ATOM      7  C   UNL     1       6.213   3.590  12.578  0.00  0.00    +0.000 A 
ATOM      8 CL   UNL     1       5.241   2.469  11.704  0.00  0.00    +0.000 Cl
ATOM      9  C   UNL     1       6.125   3.642  13.971  0.00  0.00    +0.000 A 
ENDBRANCH   2   3
BRANCH   2  10
ATOM     10  O   UNL     1       5.679   5.072  16.626  0.00  0.00    +0.000 OA
BRANCH  10  11
ATOM     11  C   UNL     1       4.847   4.219  17.377  0.00  0.00    +0.000 A 
ATOM     12  C   UNL     1       3.718   3.581  16.872  0.00  0.00    +0.000 A 
ATOM     13  C   UNL     1       2.921   2.830  17.736  0.00  0.00    +0.000 A 
ATOM     14  C   UNL     1       3.278   2.762  19.074  0.00  0.00    +0.000 A 
ATOM     15  N   UNL     1       4.363   3.376  19.594  0.00  0.00    +0.000 NA
ATOM     16  C   UNL     1       5.123   4.092  18.733  0.00  0.00    +0.000 A 
ENDBRANCH  10  11
ENDBRANCH   2  10
TORSDOF 3
ENDMDL
