MODEL 1
REMARK VINA RESULT:      -8.2      0.000      0.000
REMARK  Name = 
REMARK  5 active torsions:
REMARK  status: ('A' for Active; 'I' for Inactive)
REMARK    1  A    between atoms: C_1  and  N_2
REMARK    2  A    between atoms: N_10  and  C_11
REMARK    3  A    between atoms: C_15  and  C_16
REMARK    4  A    between atoms: N_18  and  C_19
REMARK    5  A    between atoms: C_19  and  C_20
REMARK                            x       y       z     vdW  Elec       q    Type
REMARK                         _______ _______ _______ _____ _____    ______ ____
ROOT
ATOM      1  C   UNL     1       5.156   4.516  17.177  0.00  0.00    +0.000 A 
ATOM      2  C   UNL     1       5.476   4.562  15.814  0.00  0.00    +0.000 A 
ATOM      3  C   UNL     1       6.520   5.363  15.352  0.00  0.00    +0.000 A 
ATOM      4  N   UNL     1       7.303   6.125  16.142  0.00  0.00    +0.000 NA
ATOM      5  C   UNL     1       6.985   6.091  17.460  0.00  0.00    +0.000 A 
ATOM      6  C   UNL     1       5.933   5.340  17.995  0.00  0.00    +0.000 A 
ENDROOT
BRANCH   1  16
ATOM      7  C   UNL     1       2.847   6.181  19.528  0.00  0.00    +0.000 C 
ATOM      8  N   UNL     1       1.994   5.024  19.265  0.00  0.00    +0.000 NA
ATOM      9  C   UNL     1       2.328   3.889  20.128  0.00  0.00    +0.000 C 
ATOM     10  C   UNL     1       3.775   3.358  20.101  0.00  0.00    +0.000 C 
ATOM     11  C   UNL     1       4.272   2.755  18.780  0.00  0.00    +0.000 C 
ATOM     12  C   UNL     1       3.404   1.585  18.314  0.00  0.00    +0.000 C 
ATOM     13  C   UNL     1       2.308   2.214  17.466  0.00  0.00    +0.000 C 
ATOM     14  C   UNL     1       2.780   3.650  17.155  0.00  0.00    +0.000 C 
ATOM     15  C   UNL     1       1.876   4.723  17.824  0.00  0.00    +0.000 C 
ATOM     16  N   UNL     1       4.157   3.708  17.673  0.00  0.00    +0.000 N 
ENDBRANCH   1  16
BRANCH   5  17
ATOM     17  C   UNL     1       7.854   6.888  18.391  0.00  0.00    +0.000 C 
ATOM     18  O   UNL     1       8.339   6.364  19.388  0.00  0.00    +0.000 OA
ATOM     19  N   UNL     1       8.077   8.206  18.048  0.00  0.00    +0.000 N 
ATOM     20  H   UNL     1       7.669   8.538  17.179  0.00  0.00    +0.000 HD
BRANCH  19  21
ATOM     21  C   UNL     1       8.963   9.062  18.814  0.00  0.00    +0.000 C 
BRANCH  21  22
ATOM     22  C   UNL     1       9.071  10.467  18.285  0.00  0.00    +0.000 A 
ATOM     23  C   UNL     1       7.972  11.199  17.827  0.00  0.00    +0.000 A 
ATOM     24  C   UNL     1       8.142  12.512  17.392  0.00  0.00    +0.000 A 
ATOM     25  C   UNL     1       9.409  13.067  17.447  0.00  0.00    +0.000 A 
ATOM     26  N   UNL     1      10.492  12.407  17.907  0.00  0.00    +0.000 NA
ATOM     27  C   UNL     1      10.296  11.133  18.321  0.00  0.00    +0.000 A 
ENDBRANCH  21  22
ENDBRANCH  19  21
ENDBRANCH   5  17
TORSDOF 4
ENDMDL
MODEL 2
REMARK VINA RESULT:      -8.2      3.719      6.601
REMARK  Name = 
REMARK  5 active torsions:
REMARK  status: ('A' for Active; 'I' for Inactive)
REMARK    1  A    between atoms: C_1  and  N_2
REMARK    2  A    between atoms: N_10  and  C_11
REMARK    3  A    between atoms: C_15  and  C_16
REMARK    4  A    between atoms: N_18  and  C_19
REMARK    5  A    between atoms: C_19  and  C_20
REMARK                            x       y       z     vdW  Elec       q    Type
REMARK                         _______ _______ _______ _____ _____    ______ ____
ROOT
ATOM      1  C   UNL     1       4.833   4.986  18.646  0.00  0.00    +0.000 A 
ATOM      2  C   UNL     1       6.034   5.204  19.332  0.00  0.00    +0.000 A 
ATOM      3  C   UNL     1       7.212   5.487  18.640  0.00  0.00    +0.000 A 
ATOM      4  N   UNL     1       7.300   5.591  17.299  0.00  0.00    +0.000 NA
ATOM      5  C   UNL     1       6.140   5.366  16.633  0.00  0.00    +0.000 A 
ATOM      6  C   UNL     1       4.928   5.045  17.253  0.00  0.00    +0.000 A 
ENDROOT
BRANCH   1  16
ATOM      7  C   UNL     1       3.262   1.744  17.835  0.00  0.00    +0.000 C 
ATOM      8  N   UNL     1       2.477   2.001  19.041  0.00  0.00    +0.000 NA
ATOM      9  C   UNL     1       1.304   2.833  18.765  0.00  0.00    +0.000 C 
ATOM     10  C   UNL     1       1.530   4.211  18.110  0.00  0.00    +0.000 C 
ATOM     11  C   UNL     1       2.321   5.247  18.921  0.00  0.00    +0.000 C 
ATOM     12  C   UNL     1       1.672   5.543  20.274  0.00  0.00    +0.000 C 
ATOM     13  C   UNL     1       2.269   4.525  21.235  0.00  0.00    +0.000 C 
ATOM     14  C   UNL     1       3.500   3.932  20.518  0.00  0.00    +0.000 C 
ATOM     15  C   UNL     1       3.313   2.426  20.181  0.00  0.00    +0.000 C 
ATOM     16  N   UNL     1       3.645   4.742  19.298  0.00  0.00    +0.000 N 
ENDBRANCH   1  16
BRANCH   5  17
ATOM     17  C   UNL     1       6.173   5.513  15.137  0.00  0.00    +0.000 C 
ATOM     18  O   UNL     1       5.434   6.314  14.576  0.00  0.00    +0.000 OA
ATOM     19  N   UNL     1       7.080   4.721  14.461  0.00  0.00    +0.000 N 
ATOM     20  H   UNL     1       7.681   4.120  15.017  0.00  0.00    +0.000 HD
BRANCH  19  21
ATOM     21  C   UNL     1       7.272   4.823  13.027  0.00  0.00    +0.000 C 
BRANCH  21  22
ATOM     22  C   UNL     1       6.770   3.635  12.252  0.00  0.00    +0.000 A 
ATOM     23  C   UNL     1       7.614   2.677  11.688  0.00  0.00    +0.000 A 
ATOM     24  C   UNL     1       7.075   1.579  11.020  0.00  0.00    +0.000 A 
ATOM     25  C   UNL     1       5.697   1.459  10.953  0.00  0.00    +0.000 A 
ATOM     26  N   UNL     1       4.844   2.346  11.507  0.00  0.00    +0.000 NA
ATOM     27  C   UNL     1       5.399   3.402  12.148  0.00  0.00    +0.000 A 
ENDBRANCH  21  22
ENDBRANCH  19  21
ENDBRANCH   5  17
TORSDOF 4
ENDMDL
MODEL 3
REMARK VINA RESULT:      -8.1      3.435      6.433
REMARK  Name = 
REMARK  5 active torsions:
REMARK  status: ('A' for Active; 'I' for Inactive)
REMARK    1  A    between atoms: C_1  and  N_2
REMARK    2  A    between atoms: N_10  and  C_11
REMARK    3  A    between atoms: C_15  and  C_16
REMARK    4  A    between atoms: N_18  and  C_19
REMARK    5  A    between atoms: C_19  and  C_20
REMARK                            x       y       z     vdW  Elec       q    Type
REMARK                         _______ _______ _______ _____ _____    ______ ____
ROOT
ATOM      1  C   UNL     1       4.308   4.111  17.650  0.00  0.00    +0.000 A 
ATOM      2  C   UNL     1       4.115   2.723  17.655  0.00  0.00    +0.000 A 
ATOM      3  C   UNL     1       3.164   2.137  18.490  0.00  0.00    +0.000 A 
ATOM      4  N   UNL     1       2.359   2.822  19.327  0.00  0.00    +0.000 NA
ATOM      5  C   UNL     1       2.555   4.164  19.333  0.00  0.00    +0.000 A 
ATOM      6  C   UNL     1       3.510   4.822  18.550  0.00  0.00    +0.000 A 
ENDROOT
BRANCH   1  16
ATOM      7  C   UNL     1       7.167   5.703  19.361  0.00  0.00    +0.000 C 
ATOM      8  N   UNL     1       7.763   5.703  18.026  0.00  0.00    +0.000 NA
ATOM      9  C   UNL     1       7.358   6.873  17.244  0.00  0.00    +0.000 C 
ATOM     10  C   UNL     1       5.851   7.116  17.030  0.00  0.00    +0.000 C 
ATOM     11  C   UNL     1       5.083   6.062  16.220  0.00  0.00    +0.000 C 
ATOM     12  C   UNL     1       5.665   5.869  14.819  0.00  0.00    +0.000 C 
ATOM     13  C   UNL     1       6.728   4.791  14.972  0.00  0.00    +0.000 C 
ATOM     14  C   UNL     1       6.473   4.132  16.345  0.00  0.00    +0.000 C 
ATOM     15  C   UNL     1       7.631   4.398  17.347  0.00  0.00    +0.000 C 
ATOM     16  N   UNL     1       5.210   4.727  16.812  0.00  0.00    +0.000 N 
ENDBRANCH   1  16
BRANCH   5  17
ATOM     17  C   UNL     1       1.653   4.980  20.215  0.00  0.00    +0.000 C 
ATOM     18  O   UNL     1       0.683   4.463  20.759  0.00  0.00    +0.000 OA
ATOM     19  N   UNL     1       1.992   6.308  20.381  0.00  0.00    +0.000 N 
ATOM     20  H   UNL     1       2.839   6.635  19.925  0.00  0.00    +0.000 HD
BRANCH  19  21
ATOM     21  C   UNL     1       1.255   7.186  21.271  0.00  0.00    +0.000 C 
BRANCH  21  22
ATOM     22  C   UNL     1       1.198   8.619  20.815  0.00  0.00    +0.000 A 
ATOM     23  C   UNL     1       1.221   8.995  19.470  0.00  0.00    +0.000 A 
ATOM     24  C   UNL     1       1.120  10.340  19.121  0.00  0.00    +0.000 A 
ATOM     25  C   UNL     1       0.978  11.275  20.132  0.00  0.00    +0.000 A 
ATOM     26  N   UNL     1       0.923  10.955  21.441  0.00  0.00    +0.000 NA
ATOM     27  C   UNL     1       1.025   9.640  21.749  0.00  0.00    +0.000 A 
ENDBRANCH  21  22
ENDBRANCH  19  21
ENDBRANCH   5  17
TORSDOF 4
ENDMDL
MODEL 4
REMARK VINA RESULT:      -7.9      4.276      6.746
REMARK  Name = 
REMARK  5 active torsions:
REMARK  status: ('A' for Active; 'I' for Inactive)
REMARK    1  A    between atoms: C_1  and  N_2
REMARK    2  A    between atoms: N_10  and  C_11
REMARK    3  A    between atoms: C_15  and  C_16
REMARK    4  A    between atoms: N_18  and  C_19
REMARK    5  A    between atoms: C_19  and  C_20
REMARK                            x       y       z     vdW  Elec       q    Type
REMARK                         _______ _______ _______ _____ _____    ______ ____
ROOT
ATOM      1  C   UNL     1       2.995   5.434  18.868  0.00  0.00    +0.000 A 
ATOM      2  C   UNL     1       4.188   5.445  18.134  0.00  0.00    +0.000 A 
ATOM      3  C   UNL     1       4.589   6.586  17.438  0.00  0.00    +0.000 A 
ATOM      4  N   UNL     1       3.903   7.747  17.420  0.00  0.00    +0.000 NA
ATOM      5  C   UNL     1       2.741   7.732  18.119  0.00  0.00    +0.000 A 
ATOM      6  C   UNL     1       2.256   6.619  18.813  0.00  0.00    +0.000 A 
ENDROOT
BRANCH   1  16
ATOM      7  C   UNL     1       3.160   2.222  17.054  0.00  0.00    +0.000 C 
ATOM      8  N   UNL     1       3.046   1.642  18.390  0.00  0.00    +0.000 NA
ATOM      9  C   UNL     1       1.651   1.524  18.820  0.00  0.00    +0.000 C 
ATOM     10  C   UNL     1       0.789   2.802  18.843  0.00  0.00    +0.000 C 
ATOM     11  C   UNL     1       1.206   3.906  19.825  0.00  0.00    +0.000 C 
ATOM     12  C   UNL     1       1.238   3.414  21.272  0.00  0.00    +0.000 C 
ATOM     13  C   UNL     1       2.647   2.876  21.480  0.00  0.00    +0.000 C 
ATOM     14  C   UNL     1       3.485   3.408  20.299  0.00  0.00    +0.000 C 
ATOM     15  C   UNL     1       3.967   2.267  19.360  0.00  0.00    +0.000 C 
ATOM     16  N   UNL     1       2.587   4.339  19.596  0.00  0.00    +0.000 N 
ENDBRANCH   1  16
BRANCH   5  17
ATOM     17  C   UNL     1       1.960   9.015  18.168  0.00  0.00    +0.000 C 
ATOM     18  O   UNL     1       2.161   9.896  17.339  0.00  0.00    +0.000 OA
ATOM     19  N   UNL     1       1.015   9.122  19.169  0.00  0.00    +0.000 N 
ATOM     20  H   UNL     1       0.890   8.322  19.781  0.00  0.00    +0.000 HD
BRANCH  19  21
ATOM     21  C   UNL     1       0.136  10.271  19.278  0.00  0.00    +0.000 C 
BRANCH  21  22
ATOM     22  C   UNL     1      -0.403  10.504  20.664  0.00  0.00    +0.000 A 
ATOM     23  C   UNL     1      -0.121   9.667  21.746  0.00  0.00    +0.000 A 
ATOM     24  C   UNL     1      -0.620   9.970  23.011  0.00  0.00    +0.000 A 
ATOM     25  C   UNL     1      -1.375  11.121  23.163  0.00  0.00    +0.000 A 
ATOM     26  N   UNL     1      -1.649  11.972  22.153  0.00  0.00    +0.000 NA
ATOM     27  C   UNL     1      -1.152  11.649  20.936  0.00  0.00    +0.000 A 
ENDBRANCH  21  22
ENDBRANCH  19  21
ENDBRANCH   5  17
TORSDOF 4
ENDMDL
MODEL 5
REMARK VINA RESULT:      -7.9      4.597      7.706
REMARK  Name = 
REMARK  5 active torsions:
REMARK  status: ('A' for Active; 'I' for Inactive)
REMARK    1  A    between atoms: C_1  and  N_2
REMARK    2  A    between atoms: N_10  and  C_11
REMARK    3  A    between atoms: C_15  and  C_16
REMARK    4  A    between atoms: N_18  and  C_19
REMARK    5  A    between atoms: C_19  and  C_20
REMARK                            x       y       z     vdW  Elec       q    Type
REMARK                         _______ _______ _______ _____ _____    ______ ____
ROOT
ATOM      1  C   UNL     1       3.608   6.482  18.061  0.00  0.00    +0.000 A 
ATOM      2  C   UNL     1       3.134   5.867  19.227  0.00  0.00    +0.000 A 
ATOM      3  C   UNL     1       2.217   6.516  20.054  0.00  0.00    +0.000 A 
ATOM      4  N   UNL     1       1.706   7.739  19.812  0.00  0.00    +0.000 NA
ATOM      5  C   UNL     1       2.175   8.340  18.691  0.00  0.00    +0.000 A 
ATOM      6  C   UNL     1       3.119   7.770  17.830  0.00  0.00    +0.000 A 
ENDROOT
BRANCH   1  16
ATOM      7  C   UNL     1       6.781   5.398  19.608  0.00  0.00    +0.000 C 
ATOM      8  N   UNL     1       6.906   4.579  18.403  0.00  0.00    +0.000 NA
ATOM      9  C   UNL     1       7.503   5.324  17.293  0.00  0.00    +0.000 C 
ATOM     10  C   UNL     1       6.816   6.629  16.843  0.00  0.00    +0.000 C 
ATOM     11  C   UNL     1       5.401   6.508  16.261  0.00  0.00    +0.000 C 
ATOM     12  C   UNL     1       5.351   5.584  15.043  0.00  0.00    +0.000 C 
ATOM     13  C   UNL     1       5.101   4.193  15.607  0.00  0.00    +0.000 C 
ATOM     14  C   UNL     1       4.640   4.399  17.065  0.00  0.00    +0.000 C 
ATOM     15  C   UNL     1       5.668   3.840  18.089  0.00  0.00    +0.000 C 
ATOM     16  N   UNL     1       4.484   5.856  17.202  0.00  0.00    +0.000 N 
ENDBRANCH   1  16
BRANCH   5  17
ATOM     17  C   UNL     1       1.604   9.688  18.351  0.00  0.00    +0.000 C 
ATOM     18  O   UNL     1       2.163  10.410  17.532  0.00  0.00    +0.000 OA
ATOM     19  N   UNL     1       0.432  10.039  18.990  0.00  0.00    +0.000 N 
ATOM     20  H   UNL     1       0.020   9.356  19.619  0.00  0.00    +0.000 HD
BRANCH  19  21
ATOM     21  C   UNL     1      -0.268  11.274  18.692  0.00  0.00    +0.000 C 
BRANCH  21  22
ATOM     22  C   UNL     1      -1.659  11.079  18.151  0.00  0.00    +0.000 A 
ATOM     23  C   UNL     1      -1.969  10.149  17.156  0.00  0.00    +0.000 A 
ATOM     24  C   UNL     1      -3.288   9.993  16.735  0.00  0.00    +0.000 A 
ATOM     25  C   UNL     1      -4.269  10.760  17.340  0.00  0.00    +0.000 A 
ATOM     26  N   UNL     1      -4.019  11.649  18.323  0.00  0.00    +0.000 NA
ATOM     27  C   UNL     1      -2.727  11.780  18.709  0.00  0.00    +0.000 A 
ENDBRANCH  21  22
ENDBRANCH  19  21
ENDBRANCH   5  17
TORSDOF 4
ENDMDL
MODEL 6
REMARK VINA RESULT:      -7.8      3.925      5.762
REMARK  Name = 
REMARK  5 active torsions:
REMARK  status: ('A' for Active; 'I' for Inactive)
REMARK    1  A    between atoms: C_1  and  N_2
REMARK    2  A    between atoms: N_10  and  C_11
REMARK    3  A    between atoms: C_15  and  C_16
REMARK    4  A    between atoms: N_18  and  C_19
REMARK    5  A    between atoms: C_19  and  C_20
REMARK                            x       y       z     vdW  Elec       q    Type
REMARK                         _______ _______ _______ _____ _____    ______ ____
ROOT
ATOM      1  C   UNL     1       2.857   5.391  19.080  0.00  0.00    +0.000 A 
ATOM      2  C   UNL     1       2.211   6.622  19.252  0.00  0.00    +0.000 A 
ATOM      3  C   UNL     1       2.583   7.736  18.500  0.00  0.00    +0.000 A 
ATOM      4  N   UNL     1       3.551   7.732  17.561  0.00  0.00    +0.000 NA
ATOM      5  C   UNL     1       4.186   6.544  17.404  0.00  0.00    +0.000 A 
ATOM      6  C   UNL     1       3.893   5.393  18.143  0.00  0.00    +0.000 A 
ENDROOT
BRANCH   1  16
ATOM      7  C   UNL     1       2.874   2.276  17.098  0.00  0.00    +0.000 C 
ATOM      8  N   UNL     1       2.845   1.628  18.408  0.00  0.00    +0.000 NA
ATOM      9  C   UNL     1       1.481   1.495  18.924  0.00  0.00    +0.000 C 
ATOM     10  C   UNL     1       0.633   2.774  19.070  0.00  0.00    +0.000 C 
ATOM     11  C   UNL     1       1.123   3.825  20.077  0.00  0.00    +0.000 C 
ATOM     12  C   UNL     1       1.249   3.259  21.492  0.00  0.00    +0.000 C 
ATOM     13  C   UNL     1       2.663   2.704  21.576  0.00  0.00    +0.000 C 
ATOM     14  C   UNL     1       3.426   3.292  20.370  0.00  0.00    +0.000 C 
ATOM     15  C   UNL     1       3.834   2.198  19.344  0.00  0.00    +0.000 C 
ATOM     16  N   UNL     1       2.490   4.262  19.778  0.00  0.00    +0.000 N 
ENDBRANCH   1  16
BRANCH   5  17
ATOM     17  C   UNL     1       5.244   6.473  16.339  0.00  0.00    +0.000 C 
ATOM     18  O   UNL     1       5.201   7.225  15.371  0.00  0.00    +0.000 OA
ATOM     19  N   UNL     1       6.246   5.542  16.527  0.00  0.00    +0.000 N 
ATOM     20  H   UNL     1       6.220   4.994  17.382  0.00  0.00    +0.000 HD
BRANCH  19  21
ATOM     21  C   UNL     1       7.371   5.427  15.619  0.00  0.00    +0.000 C 
BRANCH  21  22
ATOM     22  C   UNL     1       7.026   4.818  14.287  0.00  0.00    +0.000 A 
ATOM     23  C   UNL     1       7.701   5.132  13.104  0.00  0.00    +0.000 A 
ATOM     24  C   UNL     1       7.355   4.495  11.914  0.00  0.00    +0.000 A 
ATOM     25  C   UNL     1       6.353   3.541  11.944  0.00  0.00    +0.000 A 
ATOM     26  N   UNL     1       5.694   3.186  13.067  0.00  0.00    +0.000 NA
ATOM     27  C   UNL     1       6.052   3.824  14.207  0.00  0.00    +0.000 A 
ENDBRANCH  21  22
ENDBRANCH  19  21
ENDBRANCH   5  17
TORSDOF 4
ENDMDL
MODEL 7
REMARK VINA RESULT:      -7.8      3.497      6.706
REMARK  Name = 
REMARK  5 active torsions:
REMARK  status: ('A' for Active; 'I' for Inactive)
REMARK    1  A    between atoms: C_1  and  N_2
REMARK    2  A    between atoms: N_10  and  C_11
REMARK    3  A    between atoms: C_15  and  C_16
REMARK    4  A    between atoms: N_18  and  C_19
REMARK    5  A    between atoms: C_19  and  C_20
REMARK                            x       y       z     vdW  Elec       q    Type
REMARK                         _______ _______ _______ _____ _____    ______ ____
ROOT
ATOM      1  C   UNL     1       4.901   4.994  18.921  0.00  0.00    +0.000 A 
ATOM      2  C   UNL     1       4.956   3.615  19.159  0.00  0.00    +0.000 A 
ATOM      3  C   UNL     1       3.932   2.967  19.852  0.00  0.00    +0.000 A 
ATOM      4  N   UNL     1       2.828   3.579  20.324  0.00  0.00    +0.000 NA
ATOM      5  C   UNL     1       2.780   4.916  20.105  0.00  0.00    +0.000 A 
ATOM      6  C   UNL     1       3.781   5.641  19.450  0.00  0.00    +0.000 A 
ENDROOT
BRANCH   1  16
ATOM      7  C   UNL     1       5.172   4.001  15.375  0.00  0.00    +0.000 C 
ATOM      8  N   UNL     1       5.933   5.242  15.249  0.00  0.00    +0.000 NA
ATOM      9  C   UNL     1       7.346   5.056  15.587  0.00  0.00    +0.000 C 
ATOM     10  C   UNL     1       7.690   4.493  16.980  0.00  0.00    +0.000 C 
ATOM     11  C   UNL     1       7.308   5.353  18.194  0.00  0.00    +0.000 C 
ATOM     12  C   UNL     1       7.951   6.740  18.147  0.00  0.00    +0.000 C 
ATOM     13  C   UNL     1       6.966   7.611  17.381  0.00  0.00    +0.000 C 
ATOM     14  C   UNL     1       5.640   6.823  17.340  0.00  0.00    +0.000 C 
ATOM     15  C   UNL     1       5.262   6.387  15.897  0.00  0.00    +0.000 C 
ATOM     16  N   UNL     1       5.874   5.659  18.209  0.00  0.00    +0.000 N 
ENDBRANCH   1  16
BRANCH   5  17
ATOM     17  C   UNL     1       1.548   5.639  20.573  0.00  0.00    +0.000 C 
ATOM     18  O   UNL     1       0.482   5.044  20.677  0.00  0.00    +0.000 OA
ATOM     19  N   UNL     1       1.700   6.976  20.884  0.00  0.00    +0.000 N 
ATOM     20  H   UNL     1       2.633   7.370  20.808  0.00  0.00    +0.000 HD
BRANCH  19  21
ATOM     21  C   UNL     1       0.613   7.769  21.425  0.00  0.00    +0.000 C 
BRANCH  21  22
ATOM     22  C   UNL     1       0.658   9.222  21.036  0.00  0.00    +0.000 A 
ATOM     23  C   UNL     1       0.877   9.657  19.727  0.00  0.00    +0.000 A 
ATOM     24  C   UNL     1       0.861  11.019  19.433  0.00  0.00    +0.000 A 
ATOM     25  C   UNL     1       0.605  11.912  20.460  0.00  0.00    +0.000 A 
ATOM     26  N   UNL     1       0.360  11.535  21.732  0.00  0.00    +0.000 NA
ATOM     27  C   UNL     1       0.384  10.206  21.986  0.00  0.00    +0.000 A 
ENDBRANCH  21  22
ENDBRANCH  19  21
ENDBRANCH   5  17
TORSDOF 4
ENDMDL
MODEL 8
REMARK VINA RESULT:      -7.8      4.400      7.126
REMARK  Name = 
REMARK  5 active torsions:
REMARK  status: ('A' for Active; 'I' for Inactive)
REMARK    1  A    between atoms: C_1  and  N_2
REMARK    2  A    between atoms: N_10  and  C_11
REMARK    3  A    between atoms: C_15  and  C_16
REMARK    4  A    between atoms: N_18  and  C_19
REMARK    5  A    between atoms: C_19  and  C_20
REMARK                            x       y       z     vdW  Elec       q    Type
REMARK                         _______ _______ _______ _____ _____    ______ ____
ROOT
ATOM      1  C   UNL     1       2.821   5.853  18.645  0.00  0.00    +0.000 A 
ATOM      2  C   UNL     1       3.909   5.847  17.763  0.00  0.00    +0.000 A 
ATOM      3  C   UNL     1       4.262   6.996  17.055  0.00  0.00    +0.000 A 
ATOM      4  N   UNL     1       3.626   8.180  17.160  0.00  0.00    +0.000 NA
ATOM      5  C   UNL     1       2.564   8.183  18.003  0.00  0.00    +0.000 A 
ATOM      6  C   UNL     1       2.129   7.064  18.722  0.00  0.00    +0.000 A 
ENDROOT
BRANCH   1  16
ATOM      7  C   UNL     1       3.990   2.630  17.273  0.00  0.00    +0.000 C 
ATOM      8  N   UNL     1       3.682   2.128  18.611  0.00  0.00    +0.000 NA
ATOM      9  C   UNL     1       2.273   1.755  18.748  0.00  0.00    +0.000 C 
ATOM     10  C   UNL     1       1.207   2.828  18.447  0.00  0.00    +0.000 C 
ATOM     11  C   UNL     1       1.176   4.057  19.366  0.00  0.00    +0.000 C 
ATOM     12  C   UNL     1       0.967   3.680  20.833  0.00  0.00    +0.000 C 
ATOM     13  C   UNL     1       2.365   3.457  21.391  0.00  0.00    +0.000 C 
ATOM     14  C   UNL     1       3.338   4.071  20.363  0.00  0.00    +0.000 C 
ATOM     15  C   UNL     1       4.225   2.993  19.678  0.00  0.00    +0.000 C 
ATOM     16  N   UNL     1       2.468   4.749  19.388  0.00  0.00    +0.000 N 
ENDBRANCH   1  16
BRANCH   5  17
ATOM     17  C   UNL     1       1.847   9.490  18.191  0.00  0.00    +0.000 C 
ATOM     18  O   UNL     1       2.275  10.513  17.668  0.00  0.00    +0.000 OA
ATOM     19  N   UNL     1       0.698   9.457  18.956  0.00  0.00    +0.000 N 
ATOM     20  H   UNL     1       0.398   8.553  19.311  0.00  0.00    +0.000 HD
BRANCH  19  21
ATOM     21  C   UNL     1      -0.134  10.629  19.147  0.00  0.00    +0.000 C 
BRANCH  21  22
ATOM     22  C   UNL     1      -1.365  10.658  18.281  0.00  0.00    +0.000 A 
ATOM     23  C   UNL     1      -1.541   9.827  17.173  0.00  0.00    +0.000 A 
ATOM     24  C   UNL     1      -2.728   9.879  16.444  0.00  0.00    +0.000 A 
ATOM     25  C   UNL     1      -3.719  10.752  16.859  0.00  0.00    +0.000 A 
ATOM     26  N   UNL     1      -3.603  11.552  17.939  0.00  0.00    +0.000 NA
ATOM     27  C   UNL     1      -2.439  11.480  18.626  0.00  0.00    +0.000 A 
ENDBRANCH  21  22
ENDBRANCH  19  21
ENDBRANCH   5  17
TORSDOF 4
ENDMDL
MODEL 9
REMARK VINA RESULT:      -7.8      4.789      7.417
REMARK  Name = 
REMARK  5 active torsions:
REMARK  status: ('A' for Active; 'I' for Inactive)
REMARK    1  A    between atoms: C_1  and  N_2
REMARK    2  A    between atoms: N_10  and  C_11
REMARK    3  A    between atoms: C_15  and  C_16
REMARK    4  A    between atoms: N_18  and  C_19
REMARK    5  A    between atoms: C_19  and  C_20
REMARK                            x       y       z     vdW  Elec       q    Type
REMARK                         _______ _______ _______ _____ _____    ______ ____
ROOT
ATOM      1  C   UNL     1       2.975   5.849  19.176  0.00  0.00    +0.000 A 
ATOM      2  C   UNL     1       2.502   5.674  20.483  0.00  0.00    +0.000 A 
ATOM      3  C   UNL     1       1.730   6.658  21.102  0.00  0.00    +0.000 A 
ATOM      4  N   UNL     1       1.364   7.817  20.519  0.00  0.00    +0.000 NA
ATOM      5  C   UNL     1       1.833   7.993  19.259  0.00  0.00    +0.000 A 
ATOM      6  C   UNL     1       2.639   7.069  18.584  0.00  0.00    +0.000 A 
ENDROOT
BRANCH   1  16
ATOM      7  C   UNL     1       1.443   2.489  19.165  0.00  0.00    +0.000 C 
ATOM      8  N   UNL     1       2.402   2.228  18.093  0.00  0.00    +0.000 NA
ATOM      9  C   UNL     1       3.708   1.819  18.613  0.00  0.00    +0.000 C 
ATOM     10  C   UNL     1       4.426   2.765  19.597  0.00  0.00    +0.000 C 
ATOM     11  C   UNL     1       4.849   4.139  19.058  0.00  0.00    +0.000 C 
ATOM     12  C   UNL     1       5.781   4.028  17.851  0.00  0.00    +0.000 C 
ATOM     13  C   UNL     1       4.861   3.979  16.640  0.00  0.00    +0.000 C 
ATOM     14  C   UNL     1       3.475   4.439  17.137  0.00  0.00    +0.000 C 
ATOM     15  C   UNL     1       2.421   3.298  17.077  0.00  0.00    +0.000 C 
ATOM     16  N   UNL     1       3.707   4.884  18.521  0.00  0.00    +0.000 N 
ENDBRANCH   1  16
BRANCH   5  17
ATOM     17  C   UNL     1       1.417   9.249  18.547  0.00  0.00    +0.000 C 
ATOM     18  O   UNL     1       1.889   9.526  17.450  0.00  0.00    +0.000 OA
ATOM     19  N   UNL     1       0.482  10.038  19.186  0.00  0.00    +0.000 N 
ATOM     20  H   UNL     1       0.116   9.704  20.073  0.00  0.00    +0.000 HD
BRANCH  19  21
ATOM     21  C   UNL     1      -0.067  11.233  18.573  0.00  0.00    +0.000 C 
BRANCH  21  22
ATOM     22  C   UNL     1      -1.510  11.109  18.165  0.00  0.00    +0.000 A 
ATOM     23  C   UNL     1      -1.962  10.184  17.221  0.00  0.00    +0.000 A 
ATOM     24  C   UNL     1      -3.321  10.097  16.925  0.00  0.00    +0.000 A 
ATOM     25  C   UNL     1      -4.197  10.927  17.602  0.00  0.00    +0.000 A 
ATOM     26  N   UNL     1      -3.809  11.814  18.541  0.00  0.00    +0.000 NA
ATOM     27  C   UNL     1      -2.482  11.877  18.805  0.00  0.00    +0.000 A 
ENDBRANCH  21  22
ENDBRANCH  19  21
ENDBRANCH   5  17
TORSDOF 4
ENDMDL
