MODEL 1
REMARK VINA RESULT:      -7.5      0.000      0.000
REMARK  Name = 
REMARK  13 active torsions:
REMARK  status: ('A' for Active; 'I' for Inactive)
REMARK    1  A    between atoms: C_1  and  O_2
REMARK    2  A    between atoms: O_2  and  C_3
REMARK    3  A    between atoms: C_6  and  C_7
REMARK    4  A    between atoms: N_9  and  C_10
REMARK    5  A    between atoms: C_10  and  C_11
REMARK    6  A    between atoms: C_11  and  C_12
REMARK    7  A    between atoms: C_12  and  C_13
REMARK    8  A    between atoms: C_13  and  C_14
REMARK    9  A    between atoms: C_14  and  C_15
REMARK   10  A    between atoms: N_16  and  C_18
REMARK   11  A    between atoms: C_18  and  C_19
REMARK   12  A    between atoms: C_26  and  O_27
REMARK   13  A    between atoms: O_27  and  C_28
REMARK                            x       y       z     vdW  Elec       q    Type
REMARK                         _______ _______ _______ _____ _____    ______ ____
ROOT
ATOM      1  C   UNL     1       2.247   9.154  17.959  0.00  0.00    +0.000 C 
ENDROOT
BRANCH   1   4
ATOM      2  C   UNL     1       0.108  10.207  18.547  0.00  0.00    +0.000 C 
ATOM      3  O   UNL     1       0.517  10.608  19.630  0.00  0.00    +0.000 OA
ATOM      4  N   UNL     1       0.871   9.480  17.658  0.00  0.00    +0.000 N 
ATOM      5  H   UNL     1       0.437   9.045  16.855  0.00  0.00    +0.000 HD
BRANCH   2   9
ATOM      6  C   UNL     1      -3.838  11.289  17.279  0.00  0.00    +0.000 A 
ATOM      7  C   UNL     1      -3.301  11.769  18.485  0.00  0.00    +0.000 A 
ATOM      8  C   UNL     1      -2.020  11.407  18.896  0.00  0.00    +0.000 A 
ATOM      9  C   UNL     1      -1.287  10.489  18.143  0.00  0.00    +0.000 A 
ATOM     10  C   UNL     1      -1.861   9.924  17.002  0.00  0.00    +0.000 A 
ATOM     11  C   UNL     1      -3.141  10.305  16.561  0.00  0.00    +0.000 A 
BRANCH   6  13
ATOM     12  C   UNL     1      -5.913  12.280  17.815  0.00  0.00    +0.000 C 
ATOM     13  O   UNL     1      -5.021  11.796  16.802  0.00  0.00    +0.000 OA
ENDBRANCH   6  13
BRANCH  11  14
ATOM     14  O   UNL     1      -3.480   9.638  15.416  0.00  0.00    +0.000 OA
ATOM     15  C   UNL     1      -3.072  10.128  14.154  0.00  0.00    +0.000 C 
ENDBRANCH  11  14
ENDBRANCH   2   9
ENDBRANCH   1   4
BRANCH   1  16
ATOM     16  C   UNL     1       2.368   7.806  18.664  0.00  0.00    +0.000 C 
BRANCH  16  17
ATOM     17  C   UNL     1       3.086   6.758  17.811  0.00  0.00    +0.000 C 
BRANCH  17  18
ATOM     18  C   UNL     1       4.395   7.275  17.216  0.00  0.00    +0.000 C 
BRANCH  18  19
ATOM     19  C   UNL     1       5.510   6.244  17.334  0.00  0.00    +0.000 C 
BRANCH  19  20
ATOM     20  C   UNL     1       4.937   4.957  17.851  0.00  0.00    +0.000 C 
ATOM     21  N   UNL     1       5.364   4.473  18.990  0.00  0.00    +0.000 N 
ATOM     22  O   UNL     1       6.294   5.051  19.649  0.00  0.00    +0.000 OA
BRANCH  21  23
ATOM     23  C   UNL     1       4.802   3.211  19.543  0.00  0.00    +0.000 C 
BRANCH  23  24
ATOM     24  C   UNL     1       3.293   3.163  19.618  0.00  0.00    +0.000 A 
ATOM     25  C   UNL     1       2.607   2.252  18.799  0.00  0.00    +0.000 A 
ATOM     26  C   UNL     1       1.218   2.133  18.867  0.00  0.00    +0.000 A 
ATOM     27  C   UNL     1       0.494   2.916  19.762  0.00  0.00    +0.000 A 
ATOM     28  C   UNL     1       1.160   3.810  20.596  0.00  0.00    +0.000 A 
ATOM     29  C   UNL     1       2.553   3.927  20.532  0.00  0.00    +0.000 A 
ENDBRANCH  23  24
ENDBRANCH  21  23
ENDBRANCH  19  20
ENDBRANCH  18  19
ENDBRANCH  17  18
ENDBRANCH  16  17
ENDBRANCH   1  16
TORSDOF 11
ENDMDL
MODEL 2
REMARK VINA RESULT:      -7.1      3.012      5.083
REMARK  Name = 
REMARK  13 active torsions:
REMARK  status: ('A' for Active; 'I' for Inactive)
REMARK    1  A    between atoms: C_1  and  O_2
REMARK    2  A    between atoms: O_2  and  C_3
REMARK    3  A    between atoms: C_6  and  C_7
REMARK    4  A    between atoms: N_9  and  C_10
REMARK    5  A    between atoms: C_10  and  C_11
REMARK    6  A    between atoms: C_11  and  C_12
REMARK    7  A    between atoms: C_12  and  C_13
REMARK    8  A    between atoms: C_13  and  C_14
REMARK    9  A    between atoms: C_14  and  C_15
REMARK   10  A    between atoms: N_16  and  C_18
REMARK   11  A    between atoms: C_18  and  C_19
REMARK   12  A    between atoms: C_26  and  O_27
REMARK   13  A    between atoms: O_27  and  C_28
REMARK                            x       y       z     vdW  Elec       q    Type
REMARK                         _______ _______ _______ _____ _____    ______ ____
ROOT
ATOM      1  C   UNL     1       2.684   5.465  20.243  0.00  0.00    +0.000 C 
ENDROOT
BRANCH   1   4
ATOM      2  C   UNL     1       1.846   7.750  19.918  0.00  0.00    +0.000 C 
ATOM      3  O   UNL     1       2.411   7.884  18.839  0.00  0.00    +0.000 OA
ATOM      4  N   UNL     1       1.920   6.609  20.688  0.00  0.00    +0.000 N 
ATOM      5  H   UNL     1       1.563   6.611  21.634  0.00  0.00    +0.000 HD
BRANCH   2   9
ATOM      6  C   UNL     1      -0.276  11.023  21.687  0.00  0.00    +0.000 A 
ATOM      7  C   UNL     1      -0.230   9.763  22.306  0.00  0.00    +0.000 A 
ATOM      8  C   UNL     1       0.455   8.700  21.721  0.00  0.00    +0.000 A 
ATOM      9  C   UNL     1       1.036   8.862  20.463  0.00  0.00    +0.000 A 
ATOM     10  C   UNL     1       0.897  10.080  19.795  0.00  0.00    +0.000 A 
ATOM     11  C   UNL     1       0.234  11.169  20.387  0.00  0.00    +0.000 A 
BRANCH   6  13
ATOM     12  C   UNL     1      -1.940  11.802  23.170  0.00  0.00    +0.000 C 
ATOM     13  O   UNL     1      -0.797  12.102  22.359  0.00  0.00    +0.000 OA
ENDBRANCH   6  13
BRANCH  11  14
ATOM     14  O   UNL     1       0.244  12.256  19.558  0.00  0.00    +0.000 OA
ATOM     15  C   UNL     1      -0.854  12.516  18.705  0.00  0.00    +0.000 C 
ENDBRANCH  11  14
ENDBRANCH   2   9
ENDBRANCH   1   4
BRANCH   1  16
ATOM     16  C   UNL     1       2.420   4.236  21.109  0.00  0.00    +0.000 C 
BRANCH  16  17
ATOM     17  C   UNL     1       1.098   3.546  20.764  0.00  0.00    +0.000 C 
BRANCH  17  18
ATOM     18  C   UNL     1       0.859   3.446  19.258  0.00  0.00    +0.000 C 
BRANCH  18  19
ATOM     19  C   UNL     1       1.639   2.290  18.644  0.00  0.00    +0.000 C 
BRANCH  19  20
ATOM     20  C   UNL     1       2.523   2.817  17.553  0.00  0.00    +0.000 C 
ATOM     21  N   UNL     1       3.813   2.908  17.755  0.00  0.00    +0.000 N 
ATOM     22  O   UNL     1       4.330   2.600  18.882  0.00  0.00    +0.000 OA
BRANCH  21  23
ATOM     23  C   UNL     1       4.722   3.405  16.687  0.00  0.00    +0.000 C 
BRANCH  23  24
ATOM     24  C   UNL     1       5.442   4.694  17.010  0.00  0.00    +0.000 A 
ATOM     25  C   UNL     1       6.760   4.627  17.491  0.00  0.00    +0.000 A 
ATOM     26  C   UNL     1       7.487   5.789  17.755  0.00  0.00    +0.000 A 
ATOM     27  C   UNL     1       6.910   7.037  17.534  0.00  0.00    +0.000 A 
ATOM     28  C   UNL     1       5.611   7.122  17.040  0.00  0.00    +0.000 A 
ATOM     29  C   UNL     1       4.884   5.958  16.770  0.00  0.00    +0.000 A 
ENDBRANCH  23  24
ENDBRANCH  21  23
ENDBRANCH  19  20
ENDBRANCH  18  19
ENDBRANCH  17  18
ENDBRANCH  16  17
ENDBRANCH   1  16
TORSDOF 11
ENDMDL
MODEL 3
REMARK VINA RESULT:      -7.1      3.297      5.297
REMARK  Name = 
REMARK  13 active torsions:
REMARK  status: ('A' for Active; 'I' for Inactive)
REMARK    1  A    between atoms: C_1  and  O_2
REMARK    2  A    between atoms: O_2  and  C_3
REMARK    3  A    between atoms: C_6  and  C_7
REMARK    4  A    between atoms: N_9  and  C_10
REMARK    5  A    between atoms: C_10  and  C_11
REMARK    6  A    between atoms: C_11  and  C_12
REMARK    7  A    between atoms: C_12  and  C_13
REMARK    8  A    between atoms: C_13  and  C_14
REMARK    9  A    between atoms: C_14  and  C_15
REMARK   10  A    between atoms: N_16  and  C_18
REMARK   11  A    between atoms: C_18  and  C_19
REMARK   12  A    between atoms: C_26  and  O_27
REMARK   13  A    between atoms: O_27  and  C_28
REMARK                            x       y       z     vdW  Elec       q    Type
REMARK                         _______ _______ _______ _____ _____    ______ ____
ROOT
ATOM      1  C   UNL     1       2.537   5.560  20.046  0.00  0.00    +0.000 C 
ENDROOT
BRANCH   1   4
ATOM      2  C   UNL     1       1.947   7.831  19.322  0.00  0.00    +0.000 C 
ATOM      3  O   UNL     1       2.326   7.644  18.172  0.00  0.00    +0.000 OA
ATOM      4  N   UNL     1       2.012   6.880  20.318  0.00  0.00    +0.000 N 
ATOM      5  H   UNL     1       1.831   7.138  21.278  0.00  0.00    +0.000 HD
BRANCH   2   9
ATOM      6  C   UNL     1       0.080  11.558  20.309  0.00  0.00    +0.000 A 
ATOM      7  C   UNL     1       0.530  11.289  19.005  0.00  0.00    +0.000 A 
ATOM      8  C   UNL     1       1.144  10.078  18.692  0.00  0.00    +0.000 A 
ATOM      9  C   UNL     1       1.392   9.148  19.703  0.00  0.00    +0.000 A 
ATOM     10  C   UNL     1       1.047   9.459  21.020  0.00  0.00    +0.000 A 
ATOM     11  C   UNL     1       0.399  10.665  21.343  0.00  0.00    +0.000 A 
BRANCH   6  13
ATOM     12  C   UNL     1       0.072  13.839  20.916  0.00  0.00    +0.000 C 
ATOM     13  O   UNL     1      -0.681  12.673  20.558  0.00  0.00    +0.000 OA
ENDBRANCH   6  13
BRANCH  11  14
ATOM     14  O   UNL     1       0.142  10.736  22.684  0.00  0.00    +0.000 OA
ATOM     15  C   UNL     1      -0.234   9.579  23.404  0.00  0.00    +0.000 C 
ENDBRANCH  11  14
ENDBRANCH   2   9
ENDBRANCH   1   4
BRANCH   1  16
ATOM     16  C   UNL     1       2.285   4.601  21.207  0.00  0.00    +0.000 C 
BRANCH  16  17
ATOM     17  C   UNL     1       1.328   3.466  20.836  0.00  0.00    +0.000 C 
BRANCH  17  18
ATOM     18  C   UNL     1       0.972   3.455  19.350  0.00  0.00    +0.000 C 
BRANCH  18  19
ATOM     19  C   UNL     1       1.632   2.288  18.626  0.00  0.00    +0.000 C 
BRANCH  19  20
ATOM     20  C   UNL     1       2.515   2.821  17.536  0.00  0.00    +0.000 C 
ATOM     21  N   UNL     1       3.796   2.967  17.757  0.00  0.00    +0.000 N 
ATOM     22  O   UNL     1       4.305   2.708  18.900  0.00  0.00    +0.000 OA
BRANCH  21  23
ATOM     23  C   UNL     1       4.704   3.470  16.692  0.00  0.00    +0.000 C 
BRANCH  23  24
ATOM     24  C   UNL     1       5.507   4.697  17.063  0.00  0.00    +0.000 A 
ATOM     25  C   UNL     1       6.778   4.523  17.632  0.00  0.00    +0.000 A 
ATOM     26  C   UNL     1       7.580   5.621  17.945  0.00  0.00    +0.000 A 
ATOM     27  C   UNL     1       7.126   6.911  17.685  0.00  0.00    +0.000 A 
ATOM     28  C   UNL     1       5.875   7.102  17.103  0.00  0.00    +0.000 A 
ATOM     29  C   UNL     1       5.073   6.001  16.784  0.00  0.00    +0.000 A 
ENDBRANCH  23  24
ENDBRANCH  21  23
ENDBRANCH  19  20
ENDBRANCH  18  19
ENDBRANCH  17  18
ENDBRANCH  16  17
ENDBRANCH   1  16
TORSDOF 11
ENDMDL
MODEL 4
REMARK VINA RESULT:      -7.1      2.619      5.066
REMARK  Name = 
REMARK  13 active torsions:
REMARK  status: ('A' for Active; 'I' for Inactive)
REMARK    1  A    between atoms: C_1  and  O_2
REMARK    2  A    between atoms: O_2  and  C_3
REMARK    3  A    between atoms: C_6  and  C_7
REMARK    4  A    between atoms: N_9  and  C_10
REMARK    5  A    between atoms: C_10  and  C_11
REMARK    6  A    between atoms: C_11  and  C_12
REMARK    7  A    between atoms: C_12  and  C_13
REMARK    8  A    between atoms: C_13  and  C_14
REMARK    9  A    between atoms: C_14  and  C_15
REMARK   10  A    between atoms: N_16  and  C_18
REMARK   11  A    between atoms: C_18  and  C_19
REMARK   12  A    between atoms: C_26  and  O_27
REMARK   13  A    between atoms: O_27  and  C_28
REMARK                            x       y       z     vdW  Elec       q    Type
REMARK                         _______ _______ _______ _____ _____    ______ ____
ROOT
ATOM      1  C   UNL     1       2.497   5.474  20.422  0.00  0.00    +0.000 C 
ENDROOT
BRANCH   1   4
ATOM      2  C   UNL     1       1.674   7.776  20.184  0.00  0.00    +0.000 C 
ATOM      3  O   UNL     1       2.327   7.984  19.169  0.00  0.00    +0.000 OA
ATOM      4  N   UNL     1       1.691   6.584  20.878  0.00  0.00    +0.000 N 
ATOM      5  H   UNL     1       1.256   6.522  21.788  0.00  0.00    +0.000 HD
BRANCH   2   9
ATOM      6  C   UNL     1      -0.566  11.011  21.875  0.00  0.00    +0.000 A 
ATOM      7  C   UNL     1      -0.080   9.963  22.675  0.00  0.00    +0.000 A 
ATOM      8  C   UNL     1       0.641   8.909  22.117  0.00  0.00    +0.000 A 
ATOM      9  C   UNL     1       0.815   8.847  20.734  0.00  0.00    +0.000 A 
ATOM     10  C   UNL     1       0.239   9.829  19.926  0.00  0.00    +0.000 A 
ATOM     11  C   UNL     1      -0.465  10.914  20.479  0.00  0.00    +0.000 A 
BRANCH   6  13
ATOM     12  C   UNL     1      -0.350  13.327  22.282  0.00  0.00    +0.000 C 
ATOM     13  O   UNL     1      -1.113  12.127  22.461  0.00  0.00    +0.000 OA
ENDBRANCH   6  13
BRANCH  11  14
ATOM     14  O   UNL     1      -0.916  11.753  19.498  0.00  0.00    +0.000 OA
ATOM     15  C   UNL     1      -2.230  11.624  18.992  0.00  0.00    +0.000 C 
ENDBRANCH  11  14
ENDBRANCH   2   9
ENDBRANCH   1   4
BRANCH   1  16
ATOM     16  C   UNL     1       2.370   4.265  21.345  0.00  0.00    +0.000 C 
BRANCH  16  17
ATOM     17  C   UNL     1       1.182   3.371  20.983  0.00  0.00    +0.000 C 
BRANCH  17  18
ATOM     18  C   UNL     1       0.944   3.285  19.476  0.00  0.00    +0.000 C 
BRANCH  18  19
ATOM     19  C   UNL     1       1.704   2.119  18.856  0.00  0.00    +0.000 C 
BRANCH  19  20
ATOM     20  C   UNL     1       2.481   2.612  17.671  0.00  0.00    +0.000 C 
ATOM     21  N   UNL     1       3.754   2.887  17.804  0.00  0.00    +0.000 N 
ATOM     22  O   UNL     1       4.339   2.787  18.936  0.00  0.00    +0.000 OA
BRANCH  21  23
ATOM     23  C   UNL     1       4.560   3.357  16.645  0.00  0.00    +0.000 C 
BRANCH  23  24
ATOM     24  C   UNL     1       5.330   4.636  16.879  0.00  0.00    +0.000 A 
ATOM     25  C   UNL     1       4.627   5.851  16.901  0.00  0.00    +0.000 A 
ATOM     26  C   UNL     1       5.284   7.055  17.163  0.00  0.00    +0.000 A 
ATOM     27  C   UNL     1       6.652   7.060  17.418  0.00  0.00    +0.000 A 
ATOM     28  C   UNL     1       7.362   5.862  17.420  0.00  0.00    +0.000 A 
ATOM     29  C   UNL     1       6.704   4.655  17.162  0.00  0.00    +0.000 A 
ENDBRANCH  23  24
ENDBRANCH  21  23
ENDBRANCH  19  20
ENDBRANCH  18  19
ENDBRANCH  17  18
ENDBRANCH  16  17
ENDBRANCH   1  16
TORSDOF 11
ENDMDL
MODEL 5
REMARK VINA RESULT:      -6.8      2.653      9.163
REMARK  Name = 
REMARK  13 active torsions:
REMARK  status: ('A' for Active; 'I' for Inactive)
REMARK    1  A    between atoms: C_1  and  O_2
REMARK    2  A    between atoms: O_2  and  C_3
REMARK    3  A    between atoms: C_6  and  C_7
REMARK    4  A    between atoms: N_9  and  C_10
REMARK    5  A    between atoms: C_10  and  C_11
REMARK    6  A    between atoms: C_11  and  C_12
REMARK    7  A    between atoms: C_12  and  C_13
REMARK    8  A    between atoms: C_13  and  C_14
REMARK    9  A    between atoms: C_14  and  C_15
REMARK   10  A    between atoms: N_16  and  C_18
REMARK   11  A    between atoms: C_18  and  C_19
REMARK   12  A    between atoms: C_26  and  O_27
REMARK   13  A    between atoms: O_27  and  C_28
REMARK                            x       y       z     vdW  Elec       q    Type
REMARK                         _______ _______ _______ _____ _____    ______ ____
ROOT
ATOM      1  C   UNL     1       1.295   8.608  20.066  0.00  0.00    +0.000 C 
ENDROOT
BRANCH   1   4
ATOM      2  C   UNL     1       2.570   7.884  18.096  0.00  0.00    +0.000 C 
ATOM      3  O   UNL     1       2.284   8.885  17.450  0.00  0.00    +0.000 OA
ATOM      4  N   UNL     1       2.132   7.648  19.382  0.00  0.00    +0.000 N 
ATOM      5  H   UNL     1       2.270   6.741  19.806  0.00  0.00    +0.000 HD
BRANCH   2   9
ATOM      6  C   UNL     1       5.255   4.940  16.524  0.00  0.00    +0.000 A 
ATOM      7  C   UNL     1       5.359   6.293  16.159  0.00  0.00    +0.000 A 
ATOM      8  C   UNL     1       4.477   7.244  16.667  0.00  0.00    +0.000 A 
ATOM      9  C   UNL     1       3.423   6.840  17.488  0.00  0.00    +0.000 A 
ATOM     10  C   UNL     1       3.251   5.482  17.763  0.00  0.00    +0.000 A 
ATOM     11  C   UNL     1       4.151   4.516  17.281  0.00  0.00    +0.000 A 
BRANCH   6  13
ATOM     12  C   UNL     1       6.314   3.793  14.753  0.00  0.00    +0.000 C 
ATOM     13  O   UNL     1       6.237   4.051  16.161  0.00  0.00    +0.000 OA
ENDBRANCH   6  13
BRANCH  11  14
ATOM     14  O   UNL     1       3.792   3.264  17.696  0.00  0.00    +0.000 OA
ATOM     15  C   UNL     1       4.105   2.826  19.004  0.00  0.00    +0.000 C 
ENDBRANCH  11  14
ENDBRANCH   2   9
ENDBRANCH   1   4
BRANCH   1  16
ATOM     16  C   UNL     1       1.245   8.346  21.569  0.00  0.00    +0.000 C 
BRANCH  16  17
ATOM     17  C   UNL     1       1.033   9.625  22.383  0.00  0.00    +0.000 C 
BRANCH  17  18
ATOM     18  C   UNL     1      -0.197   9.553  23.287  0.00  0.00    +0.000 C 
BRANCH  18  19
ATOM     19  C   UNL     1      -1.096  10.769  23.104  0.00  0.00    +0.000 C 
BRANCH  19  20
ATOM     20  C   UNL     1      -0.963  11.274  21.698  0.00  0.00    +0.000 C 
ATOM     21  N   UNL     1      -1.875  12.076  21.211  0.00  0.00    +0.000 N 
ATOM     22  O   UNL     1      -2.904  12.403  21.896  0.00  0.00    +0.000 OA
BRANCH  21  23
ATOM     23  C   UNL     1      -1.763  12.613  19.829  0.00  0.00    +0.000 C 
BRANCH  23  24
ATOM     24  C   UNL     1      -2.236  11.678  18.739  0.00  0.00    +0.000 A 
ATOM     25  C   UNL     1      -1.312  10.793  18.162  0.00  0.00    +0.000 A 
ATOM     26  C   UNL     1      -1.709   9.875  17.189  0.00  0.00    +0.000 A 
ATOM     27  C   UNL     1      -3.040   9.821  16.785  0.00  0.00    +0.000 A 
ATOM     28  C   UNL     1      -3.975  10.678  17.361  0.00  0.00    +0.000 A 
ATOM     29  C   UNL     1      -3.578  11.595  18.340  0.00  0.00    +0.000 A 
ENDBRANCH  23  24
ENDBRANCH  21  23
ENDBRANCH  19  20
ENDBRANCH  18  19
ENDBRANCH  17  18
ENDBRANCH  16  17
ENDBRANCH   1  16
TORSDOF 11
ENDMDL
MODEL 6
REMARK VINA RESULT:      -6.7      2.247      3.520
REMARK  Name = 
REMARK  13 active torsions:
REMARK  status: ('A' for Active; 'I' for Inactive)
REMARK    1  A    between atoms: C_1  and  O_2
REMARK    2  A    between atoms: O_2  and  C_3
REMARK    3  A    between atoms: C_6  and  C_7
REMARK    4  A    between atoms: N_9  and  C_10
REMARK    5  A    between atoms: C_10  and  C_11
REMARK    6  A    between atoms: C_11  and  C_12
REMARK    7  A    between atoms: C_12  and  C_13
REMARK    8  A    between atoms: C_13  and  C_14
REMARK    9  A    between atoms: C_14  and  C_15
REMARK   10  A    between atoms: N_16  and  C_18
REMARK   11  A    between atoms: C_18  and  C_19
REMARK   12  A    between atoms: C_26  and  O_27
REMARK   13  A    between atoms: O_27  and  C_28
REMARK                            x       y       z     vdW  Elec       q    Type
REMARK                         _______ _______ _______ _____ _____    ______ ____
ROOT
ATOM      1  C   UNL     1       2.136   8.654  17.805  0.00  0.00    +0.000 C 
ENDROOT
BRANCH   1   4
ATOM      2  C   UNL     1       0.198   9.981  18.523  0.00  0.00    +0.000 C 
ATOM      3  O   UNL     1      -0.396   9.826  17.462  0.00  0.00    +0.000 OA
ATOM      4  N   UNL     1       1.444   9.455  18.790  0.00  0.00    +0.000 N 
ATOM      5  H   UNL     1       1.949   9.743  19.617  0.00  0.00    +0.000 HD
BRANCH   2   9
ATOM      6  C   UNL     1      -1.850  12.143  21.601  0.00  0.00    +0.000 A 
ATOM      7  C   UNL     1      -2.073  12.421  20.242  0.00  0.00    +0.000 A 
ATOM      8  C   UNL     1      -1.397  11.720  19.246  0.00  0.00    +0.000 A 
ATOM      9  C   UNL     1      -0.424  10.783  19.599  0.00  0.00    +0.000 A 
ATOM     10  C   UNL     1      -0.122  10.584  20.947  0.00  0.00    +0.000 A 
ATOM     11  C   UNL     1      -0.818  11.264  21.963  0.00  0.00    +0.000 A 
BRANCH   6  13
ATOM     12  C   UNL     1      -4.051  12.706  22.246  0.00  0.00    +0.000 C 
ATOM     13  O   UNL     1      -2.652  12.712  22.560  0.00  0.00    +0.000 OA
ENDBRANCH   6  13
BRANCH  11  14
ATOM     14  O   UNL     1      -0.365  10.891  23.198  0.00  0.00    +0.000 OA
ATOM     15  C   UNL     1      -0.070   9.536  23.474  0.00  0.00    +0.000 C 
ENDBRANCH  11  14
ENDBRANCH   2   9
ENDBRANCH   1   4
BRANCH   1  16
ATOM     16  C   UNL     1       2.747   7.400  18.423  0.00  0.00    +0.000 C 
BRANCH  16  17
ATOM     17  C   UNL     1       3.415   6.497  17.383  0.00  0.00    +0.000 C 
BRANCH  17  18
ATOM     18  C   UNL     1       4.794   7.001  16.961  0.00  0.00    +0.000 C 
BRANCH  18  19
ATOM     19  C   UNL     1       5.896   6.043  17.395  0.00  0.00    +0.000 C 
BRANCH  19  20
ATOM     20  C   UNL     1       5.292   4.704  17.702  0.00  0.00    +0.000 C 
ATOM     21  N   UNL     1       5.394   4.212  18.910  0.00  0.00    +0.000 N 
ATOM     22  O   UNL     1       6.038   4.829  19.825  0.00  0.00    +0.000 OA
BRANCH  21  23
ATOM     23  C   UNL     1       4.787   2.898  19.255  0.00  0.00    +0.000 C 
BRANCH  23  24
ATOM     24  C   UNL     1       3.325   2.950  19.636  0.00  0.00    +0.000 A 
ATOM     25  C   UNL     1       2.980   2.845  20.993  0.00  0.00    +0.000 A 
ATOM     26  C   UNL     1       1.649   2.937  21.403  0.00  0.00    +0.000 A 
ATOM     27  C   UNL     1       0.643   3.146  20.462  0.00  0.00    +0.000 A 
ATOM     28  C   UNL     1       0.970   3.272  19.114  0.00  0.00    +0.000 A 
ATOM     29  C   UNL     1       2.305   3.184  18.704  0.00  0.00    +0.000 A 
ENDBRANCH  23  24
ENDBRANCH  21  23
ENDBRANCH  19  20
ENDBRANCH  18  19
ENDBRANCH  17  18
ENDBRANCH  16  17
ENDBRANCH   1  16
TORSDOF 11
ENDMDL
MODEL 7
REMARK VINA RESULT:      -6.7      2.680      5.683
REMARK  Name = 
REMARK  13 active torsions:
REMARK  status: ('A' for Active; 'I' for Inactive)
REMARK    1  A    between atoms: C_1  and  O_2
REMARK    2  A    between atoms: O_2  and  C_3
REMARK    3  A    between atoms: C_6  and  C_7
REMARK    4  A    between atoms: N_9  and  C_10
REMARK    5  A    between atoms: C_10  and  C_11
REMARK    6  A    between atoms: C_11  and  C_12
REMARK    7  A    between atoms: C_12  and  C_13
REMARK    8  A    between atoms: C_13  and  C_14
REMARK    9  A    between atoms: C_14  and  C_15
REMARK   10  A    between atoms: N_16  and  C_18
REMARK   11  A    between atoms: C_18  and  C_19
REMARK   12  A    between atoms: C_26  and  O_27
REMARK   13  A    between atoms: O_27  and  C_28
REMARK                            x       y       z     vdW  Elec       q    Type
REMARK                         _______ _______ _______ _____ _____    ______ ____
ROOT
ATOM      1  C   UNL     1       2.391   3.969  21.626  0.00  0.00    +0.000 C 
ENDROOT
BRANCH   1   4
ATOM      2  C   UNL     1       2.766   5.994  20.288  0.00  0.00    +0.000 C 
ATOM      3  O   UNL     1       3.875   5.632  19.914  0.00  0.00    +0.000 OA
ATOM      4  N   UNL     1       1.961   5.258  21.132  0.00  0.00    +0.000 N 
ATOM      5  H   UNL     1       1.129   5.673  21.528  0.00  0.00    +0.000 HD
BRANCH   2   9
ATOM      6  C   UNL     1       0.988   9.624  18.871  0.00  0.00    +0.000 A 
ATOM      7  C   UNL     1       1.693   8.769  18.006  0.00  0.00    +0.000 A 
ATOM      8  C   UNL     1       2.276   7.594  18.475  0.00  0.00    +0.000 A 
ATOM      9  C   UNL     1       2.233   7.298  19.838  0.00  0.00    +0.000 A 
ATOM     10  C   UNL     1       1.630   8.200  20.717  0.00  0.00    +0.000 A 
ATOM     11  C   UNL     1       1.011   9.374  20.252  0.00  0.00    +0.000 A 
BRANCH   6  13
ATOM     12  C   UNL     1      -1.108  10.382  18.092  0.00  0.00    +0.000 C 
ATOM     13  O   UNL     1       0.269  10.677  18.363  0.00  0.00    +0.000 OA
ENDBRANCH   6  13
BRANCH  11  14
ATOM     14  O   UNL     1       0.472  10.085  21.289  0.00  0.00    +0.000 OA
ATOM     15  C   UNL     1      -0.404   9.460  22.206  0.00  0.00    +0.000 C 
ENDBRANCH  11  14
ENDBRANCH   2   9
ENDBRANCH   1   4
BRANCH   1  16
ATOM     16  C   UNL     1       1.368   2.877  21.323  0.00  0.00    +0.000 C 
BRANCH  16  17
ATOM     17  C   UNL     1       1.669   2.136  20.017  0.00  0.00    +0.000 C 
BRANCH  17  18
ATOM     18  C   UNL     1       0.702   2.504  18.893  0.00  0.00    +0.000 C 
BRANCH  18  19
ATOM     19  C   UNL     1       1.233   3.660  18.054  0.00  0.00    +0.000 C 
BRANCH  19  20
ATOM     20  C   UNL     1       2.731   3.592  18.015  0.00  0.00    +0.000 C 
ATOM     21  N   UNL     1       3.338   3.390  16.873  0.00  0.00    +0.000 N 
ATOM     22  O   UNL     1       2.677   3.203  15.795  0.00  0.00    +0.000 OA
BRANCH  21  23
ATOM     23  C   UNL     1       4.822   3.339  16.794  0.00  0.00    +0.000 C 
BRANCH  23  24
ATOM     24  C   UNL     1       5.523   4.647  17.086  0.00  0.00    +0.000 A 
ATOM     25  C   UNL     1       6.718   4.621  17.823  0.00  0.00    +0.000 A 
ATOM     26  C   UNL     1       7.430   5.794  18.076  0.00  0.00    +0.000 A 
ATOM     27  C   UNL     1       6.963   7.011  17.587  0.00  0.00    +0.000 A 
ATOM     28  C   UNL     1       5.789   7.053  16.837  0.00  0.00    +0.000 A 
ATOM     29  C   UNL     1       5.078   5.876  16.579  0.00  0.00    +0.000 A 
ENDBRANCH  23  24
ENDBRANCH  21  23
ENDBRANCH  19  20
ENDBRANCH  18  19
ENDBRANCH  17  18
ENDBRANCH  16  17
ENDBRANCH   1  16
TORSDOF 11
ENDMDL
MODEL 8
REMARK VINA RESULT:      -6.7      2.301      4.464
REMARK  Name = 
REMARK  13 active torsions:
REMARK  status: ('A' for Active; 'I' for Inactive)
REMARK    1  A    between atoms: C_1  and  O_2
REMARK    2  A    between atoms: O_2  and  C_3
REMARK    3  A    between atoms: C_6  and  C_7
REMARK    4  A    between atoms: N_9  and  C_10
REMARK    5  A    between atoms: C_10  and  C_11
REMARK    6  A    between atoms: C_11  and  C_12
REMARK    7  A    between atoms: C_12  and  C_13
REMARK    8  A    between atoms: C_13  and  C_14
REMARK    9  A    between atoms: C_14  and  C_15
REMARK   10  A    between atoms: N_16  and  C_18
REMARK   11  A    between atoms: C_18  and  C_19
REMARK   12  A    between atoms: C_26  and  O_27
REMARK   13  A    between atoms: O_27  and  C_28
REMARK                            x       y       z     vdW  Elec       q    Type
REMARK                         _______ _______ _______ _____ _____    ______ ____
ROOT
ATOM      1  C   UNL     1       2.668   7.082  18.952  0.00  0.00    +0.000 C 
ENDROOT
BRANCH   1   4
ATOM      2  C   UNL     1       1.444   9.114  18.316  0.00  0.00    +0.000 C 
ATOM      3  O   UNL     1       2.132   9.307  17.321  0.00  0.00    +0.000 OA
ATOM      4  N   UNL     1       1.627   8.059  19.185  0.00  0.00    +0.000 N 
ATOM      5  H   UNL     1       1.135   8.037  20.067  0.00  0.00    +0.000 HD
BRANCH   2   9
ATOM      6  C   UNL     1      -1.888  11.604  19.337  0.00  0.00    +0.000 A 
ATOM      7  C   UNL     1      -1.831  10.929  18.106  0.00  0.00    +0.000 A 
ATOM      8  C   UNL     1      -0.741  10.127  17.777  0.00  0.00    +0.000 A 
ATOM      9  C   UNL     1       0.351  10.055  18.643  0.00  0.00    +0.000 A 
ATOM     10  C   UNL     1       0.346  10.813  19.816  0.00  0.00    +0.000 A 
ATOM     11  C   UNL     1      -0.762  11.603  20.174  0.00  0.00    +0.000 A 
BRANCH   6  13
ATOM     12  C   UNL     1      -4.189  11.928  18.916  0.00  0.00    +0.000 C 
ATOM     13  O   UNL     1      -3.044  12.240  19.720  0.00  0.00    +0.000 OA
ENDBRANCH   6  13
BRANCH  11  14
ATOM     14  O   UNL     1      -0.546  12.231  21.369  0.00  0.00    +0.000 OA
ATOM     15  C   UNL     1      -0.802  11.562  22.587  0.00  0.00    +0.000 C 
ENDBRANCH  11  14
ENDBRANCH   2   9
ENDBRANCH   1   4
BRANCH   1  16
ATOM     16  C   UNL     1       2.815   6.121  20.130  0.00  0.00    +0.000 C 
BRANCH  16  17
ATOM     17  C   UNL     1       1.475   5.537  20.583  0.00  0.00    +0.000 C 
BRANCH  17  18
ATOM     18  C   UNL     1       1.565   4.050  20.927  0.00  0.00    +0.000 C 
BRANCH  18  19
ATOM     19  C   UNL     1       0.962   3.185  19.827  0.00  0.00    +0.000 C 
BRANCH  19  20
ATOM     20  C   UNL     1       2.052   2.737  18.899  0.00  0.00    +0.000 C 
ATOM     21  N   UNL     1       2.192   3.324  17.737  0.00  0.00    +0.000 N 
ATOM     22  O   UNL     1       1.387   4.241  17.357  0.00  0.00    +0.000 OA
BRANCH  21  23
ATOM     23  C   UNL     1       3.276   2.921  16.802  0.00  0.00    +0.000 C 
BRANCH  23  24
ATOM     24  C   UNL     1       4.572   3.683  16.959  0.00  0.00    +0.000 A 
ATOM     25  C   UNL     1       4.961   4.091  18.245  0.00  0.00    +0.000 A 
ATOM     26  C   UNL     1       6.173   4.753  18.451  0.00  0.00    +0.000 A 
ATOM     27  C   UNL     1       7.019   5.008  17.375  0.00  0.00    +0.000 A 
ATOM     28  C   UNL     1       6.657   4.593  16.096  0.00  0.00    +0.000 A 
ATOM     29  C   UNL     1       5.445   3.925  15.889  0.00  0.00    +0.000 A 
ENDBRANCH  23  24
ENDBRANCH  21  23
ENDBRANCH  19  20
ENDBRANCH  18  19
ENDBRANCH  17  18
ENDBRANCH  16  17
ENDBRANCH   1  16
TORSDOF 11
ENDMDL
MODEL 9
REMARK VINA RESULT:      -6.6      2.548      9.018
REMARK  Name = 
REMARK  13 active torsions:
REMARK  status: ('A' for Active; 'I' for Inactive)
REMARK    1  A    between atoms: C_1  and  O_2
REMARK    2  A    between atoms: O_2  and  C_3
REMARK    3  A    between atoms: C_6  and  C_7
REMARK    4  A    between atoms: N_9  and  C_10
REMARK    5  A    between atoms: C_10  and  C_11
REMARK    6  A    between atoms: C_11  and  C_12
REMARK    7  A    between atoms: C_12  and  C_13
REMARK    8  A    between atoms: C_13  and  C_14
REMARK    9  A    between atoms: C_14  and  C_15
REMARK   10  A    between atoms: N_16  and  C_18
REMARK   11  A    between atoms: C_18  and  C_19
REMARK   12  A    between atoms: C_26  and  O_27
REMARK   13  A    between atoms: O_27  and  C_28
REMARK                            x       y       z     vdW  Elec       q    Type
REMARK                         _______ _______ _______ _____ _____    ______ ____
ROOT
ATOM      1  C   UNL     1       1.019   8.366  20.967  0.00  0.00    +0.000 C 
ENDROOT
BRANCH   1   4
ATOM      2  C   UNL     1       2.192   7.684  18.920  0.00  0.00    +0.000 C 
ATOM      3  O   UNL     1       1.705   8.586  18.250  0.00  0.00    +0.000 OA
ATOM      4  N   UNL     1       1.918   7.483  20.256  0.00  0.00    +0.000 N 
ATOM      5  H   UNL     1       2.225   6.637  20.716  0.00  0.00    +0.000 HD
BRANCH   2   9
ATOM      6  C   UNL     1       5.104   5.003  17.282  0.00  0.00    +0.000 A 
ATOM      7  C   UNL     1       5.098   6.368  16.948  0.00  0.00    +0.000 A 
ATOM      8  C   UNL     1       4.143   7.233  17.478  0.00  0.00    +0.000 A 
ATOM      9  C   UNL     1       3.126   6.726  18.288  0.00  0.00    +0.000 A 
ATOM     10  C   UNL     1       3.063   5.353  18.531  0.00  0.00    +0.000 A 
ATOM     11  C   UNL     1       4.039   4.474  18.027  0.00  0.00    +0.000 A 
BRANCH   6  13
ATOM     12  C   UNL     1       7.434   4.636  17.375  0.00  0.00    +0.000 C 
ATOM     13  O   UNL     1       6.153   4.205  16.898  0.00  0.00    +0.000 OA
ENDBRANCH   6  13
BRANCH  11  14
ATOM     14  O   UNL     1       3.782   3.188  18.413  0.00  0.00    +0.000 OA
ATOM     15  C   UNL     1       2.975   2.927  19.545  0.00  0.00    +0.000 C 
ENDBRANCH  11  14
ENDBRANCH   2   9
ENDBRANCH   1   4
BRANCH   1  16
ATOM     16  C   UNL     1       1.729   9.105  22.099  0.00  0.00    +0.000 C 
BRANCH  16  17
ATOM     17  C   UNL     1       0.803   9.399  23.281  0.00  0.00    +0.000 C 
BRANCH  17  18
ATOM     18  C   UNL     1      -0.653   9.592  22.858  0.00  0.00    +0.000 C 
BRANCH  18  19
ATOM     19  C   UNL     1      -1.114  11.027  23.081  0.00  0.00    +0.000 C 
BRANCH  19  20
ATOM     20  C   UNL     1      -1.578  11.603  21.776  0.00  0.00    +0.000 C 
ATOM     21  N   UNL     1      -0.724  12.229  21.007  0.00  0.00    +0.000 N 
ATOM     22  O   UNL     1       0.490  12.400  21.366  0.00  0.00    +0.000 OA
BRANCH  21  23
ATOM     23  C   UNL     1      -1.146  12.793  19.696  0.00  0.00    +0.000 C 
BRANCH  23  24
ATOM     24  C   UNL     1      -1.827  11.812  18.768  0.00  0.00    +0.000 A 
ATOM     25  C   UNL     1      -1.053  10.807  18.166  0.00  0.00    +0.000 A 
ATOM     26  C   UNL     1      -1.642   9.846  17.342  0.00  0.00    +0.000 A 
ATOM     27  C   UNL     1      -3.015   9.871  17.114  0.00  0.00    +0.000 A 
ATOM     28  C   UNL     1      -3.800  10.850  17.719  0.00  0.00    +0.000 A 
ATOM     29  C   UNL     1      -3.211  11.809  18.549  0.00  0.00    +0.000 A 
ENDBRANCH  23  24
ENDBRANCH  21  23
ENDBRANCH  19  20
ENDBRANCH  18  19
ENDBRANCH  17  18
ENDBRANCH  16  17
ENDBRANCH   1  16
TORSDOF 11
ENDMDL
