MODEL 1
REMARK VINA RESULT:      -9.3      0.000      0.000
REMARK  Name = 
REMARK  8 active torsions:
REMARK  status: ('A' for Active; 'I' for Inactive)
REMARK    1  A    between atoms: C_1  and  C_2
REMARK    2  A    between atoms: C_6  and  C_7
REMARK    3  A    between atoms: C_11  and  C_12
REMARK    4  A    between atoms: N_14  and  C_15
REMARK    5  A    between atoms: N_18  and  C_19
REMARK    6  A    between atoms: C_19  and  C_20
REMARK    7  A    between atoms: C_20  and  N_21
REMARK    8  A    between atoms: N_30  and  C_31
REMARK                            x       y       z     vdW  Elec       q    Type
REMARK                         _______ _______ _______ _____ _____    ______ ____
ROOT
ATOM      1  C   UNL     1       2.226   7.484  19.578  0.00  0.00    +0.000 A 
ATOM      2  C   UNL     1       2.207   8.226  18.381  0.00  0.00    +0.000 A 
ATOM      3  N   UNL     1       1.477   9.341  18.478  0.00  0.00    +0.000 NA
ATOM      4  N   UNL     1       1.033   9.318  19.755  0.00  0.00    +0.000 N 
ATOM      5  C   UNL     1       1.442   8.208  20.443  0.00  0.00    +0.000 A 
ENDROOT
BRANCH   1   8
ATOM      6  C   UNL     1       2.437   5.077  19.443  0.00  0.00    +0.000 C 
ATOM      7  O   UNL     1       1.415   4.887  18.786  0.00  0.00    +0.000 OA
ATOM      8  N   UNL     1       2.907   6.313  19.845  0.00  0.00    +0.000 N 
ATOM      9  H   UNL     1       3.885   6.369  20.098  0.00  0.00    +0.000 HD
BRANCH   6  14
ATOM     10  C   UNL     1       4.587   3.734  19.227  0.00  0.00    +0.000 A 
ATOM     11  O   UNL     1       5.036   2.554  19.778  0.00  0.00    +0.000 OA
ATOM     12  C   UNL     1       4.065   2.204  20.662  0.00  0.00    +0.000 A 
ATOM     13  N   UNL     1       3.060   3.044  20.753  0.00  0.00    +0.000 NA
ATOM     14  C   UNL     1       3.344   3.988  19.779  0.00  0.00    +0.000 A 
BRANCH  10  20
ATOM     15  C   UNL     1       8.097   7.216  18.447  0.00  0.00    +0.000 C 
ATOM     16  C   UNL     1       7.213   6.124  17.921  0.00  0.00    +0.000 A 
ATOM     17  C   UNL     1       7.211   5.798  16.561  0.00  0.00    +0.000 A 
ATOM     18  C   UNL     1       6.375   4.791  16.085  0.00  0.00    +0.000 A 
ATOM     19  C   UNL     1       5.534   4.103  16.961  0.00  0.00    +0.000 A 
ATOM     20  C   UNL     1       5.517   4.408  18.330  0.00  0.00    +0.000 A 
ATOM     21  C   UNL     1       6.369   5.421  18.793  0.00  0.00    +0.000 A 
ENDBRANCH  10  20
ENDBRANCH   6  14
ENDBRANCH   1   8
BRANCH   4  22
ATOM     22  C   UNL     1       0.317  10.457  20.308  0.00  0.00    +0.000 C 
BRANCH  22  23
ATOM     23  C   UNL     1       0.245  11.650  19.351  0.00  0.00    +0.000 C 
BRANCH  23  24
ATOM     24  N   UNL     1      -0.597  11.387  18.166  0.00  0.00    +0.000 N 
ATOM     25  C   UNL     1      -1.927  11.607  18.299  0.00  0.00    +0.000 A 
ATOM     26  N   UNL     1      -2.522  12.160  19.326  0.00  0.00    +0.000 NA
ATOM     27  C   UNL     1      -3.861  12.076  19.074  0.00  0.00    +0.000 A 
ATOM     28  C   UNL     1      -4.936  12.415  19.906  0.00  0.00    +0.000 A 
ATOM     29  C   UNL     1      -6.236  12.196  19.443  0.00  0.00    +0.000 A 
ATOM     30  C   UNL     1      -6.457  11.709  18.153  0.00  0.00    +0.000 A 
ATOM     31  C   UNL     1      -5.397  11.387  17.300  0.00  0.00    +0.000 A 
ATOM     32  C   UNL     1      -4.102  11.544  17.812  0.00  0.00    +0.000 A 
ATOM     33  N   UNL     1      -2.846  11.226  17.344  0.00  0.00    +0.000 N 
ATOM     34  C   UNL     1      -2.559  10.515  16.122  0.00  0.00    +0.000 C 
ATOM     35  H   UNL     1      -0.321  10.529  17.698  0.00  0.00    +0.000 HD
ENDBRANCH  23  24
ENDBRANCH  22  23
ENDBRANCH   4  22
TORSDOF 6
ENDMDL
MODEL 2
REMARK VINA RESULT:      -8.7      0.770      1.083
REMARK  Name = 
REMARK  8 active torsions:
REMARK  status: ('A' for Active; 'I' for Inactive)
REMARK    1  A    between atoms: C_1  and  C_2
REMARK    2  A    between atoms: C_6  and  C_7
REMARK    3  A    between atoms: C_11  and  C_12
REMARK    4  A    between atoms: N_14  and  C_15
REMARK    5  A    between atoms: N_18  and  C_19
REMARK    6  A    between atoms: C_19  and  C_20
REMARK    7  A    between atoms: C_20  and  N_21
REMARK    8  A    between atoms: N_30  and  C_31
REMARK                            x       y       z     vdW  Elec       q    Type
REMARK                         _______ _______ _______ _____ _____    ______ ____
ROOT
ATOM      1  C   UNL     1       2.204   7.363  19.730  0.00  0.00    +0.000 A 
ATOM      2  C   UNL     1       2.071   8.110  18.544  0.00  0.00    +0.000 A 
ATOM      3  N   UNL     1       1.322   9.205  18.707  0.00  0.00    +0.000 NA
ATOM      4  N   UNL     1       0.982   9.165  20.015  0.00  0.00    +0.000 N 
ATOM      5  C   UNL     1       1.472   8.062  20.660  0.00  0.00    +0.000 A 
ENDROOT
BRANCH   1   8
ATOM      6  C   UNL     1       2.488   4.969  19.519  0.00  0.00    +0.000 C 
ATOM      7  O   UNL     1       1.445   4.762  18.902  0.00  0.00    +0.000 OA
ATOM      8  N   UNL     1       2.934   6.210  19.935  0.00  0.00    +0.000 N 
ATOM      9  H   UNL     1       3.920   6.292  20.146  0.00  0.00    +0.000 HD
BRANCH   6  14
ATOM     10  C   UNL     1       4.681   3.722  19.192  0.00  0.00    +0.000 A 
ATOM     11  O   UNL     1       5.188   2.538  19.679  0.00  0.00    +0.000 OA
ATOM     12  C   UNL     1       4.255   2.112  20.569  0.00  0.00    +0.000 A 
ATOM     13  N   UNL     1       3.221   2.907  20.721  0.00  0.00    +0.000 NA
ATOM     14  C   UNL     1       3.443   3.903  19.784  0.00  0.00    +0.000 A 
BRANCH  10  20
ATOM     15  C   UNL     1       8.148   7.267  18.510  0.00  0.00    +0.000 C 
ATOM     16  C   UNL     1       7.235   6.220  17.945  0.00  0.00    +0.000 A 
ATOM     17  C   UNL     1       7.158   6.007  16.565  0.00  0.00    +0.000 A 
ATOM     18  C   UNL     1       6.295   5.041  16.054  0.00  0.00    +0.000 A 
ATOM     19  C   UNL     1       5.502   4.280  16.915  0.00  0.00    +0.000 A 
ATOM     20  C   UNL     1       5.562   4.470  18.304  0.00  0.00    +0.000 A 
ATOM     21  C   UNL     1       6.439   5.445  18.801  0.00  0.00    +0.000 A 
ENDBRANCH  10  20
ENDBRANCH   6  14
ENDBRANCH   1   8
BRANCH   4  22
ATOM     22  C   UNL     1       0.283  10.281  20.630  0.00  0.00    +0.000 C 
BRANCH  22  23
ATOM     23  C   UNL     1       0.239  11.530  19.747  0.00  0.00    +0.000 C 
BRANCH  23  24
ATOM     24  N   UNL     1      -0.922  11.549  18.834  0.00  0.00    +0.000 N 
ATOM     25  C   UNL     1      -2.104  11.952  19.355  0.00  0.00    +0.000 A 
ATOM     26  N   UNL     1      -2.294  12.459  20.548  0.00  0.00    +0.000 NA
ATOM     27  C   UNL     1      -3.643  12.613  20.680  0.00  0.00    +0.000 A 
ATOM     28  C   UNL     1      -4.377  13.008  21.807  0.00  0.00    +0.000 A 
ATOM     29  C   UNL     1      -5.770  13.051  21.717  0.00  0.00    +0.000 A 
ATOM     30  C   UNL     1      -6.413  12.767  20.511  0.00  0.00    +0.000 A 
ATOM     31  C   UNL     1      -5.695  12.394  19.369  0.00  0.00    +0.000 A 
ATOM     32  C   UNL     1      -4.305  12.285  19.502  0.00  0.00    +0.000 A 
ATOM     33  N   UNL     1      -3.299  11.838  18.674  0.00  0.00    +0.000 N 
ATOM     34  C   UNL     1      -3.483  11.249  17.370  0.00  0.00    +0.000 C 
ATOM     35  H   UNL     1      -0.942  10.723  18.242  0.00  0.00    +0.000 HD
ENDBRANCH  23  24
ENDBRANCH  22  23
ENDBRANCH   4  22
TORSDOF 6
ENDMDL
MODEL 3
REMARK VINA RESULT:      -8.5      1.096      2.255
REMARK  Name = 
REMARK  8 active torsions:
REMARK  status: ('A' for Active; 'I' for Inactive)
REMARK    1  A    between atoms: C_1  and  C_2
REMARK    2  A    between atoms: C_6  and  C_7
REMARK    3  A    between atoms: C_11  and  C_12
REMARK    4  A    between atoms: N_14  and  C_15
REMARK    5  A    between atoms: N_18  and  C_19
REMARK    6  A    between atoms: C_19  and  C_20
REMARK    7  A    between atoms: C_20  and  N_21
REMARK    8  A    between atoms: N_30  and  C_31
REMARK                            x       y       z     vdW  Elec       q    Type
REMARK                         _______ _______ _______ _____ _____    ______ ____
ROOT
ATOM      1  C   UNL     1       1.781   7.762  20.261  0.00  0.00    +0.000 A 
ATOM      2  C   UNL     1       0.888   8.367  21.168  0.00  0.00    +0.000 A 
ATOM      3  N   UNL     1       0.476   9.570  20.760  0.00  0.00    +0.000 NA
ATOM      4  N   UNL     1       1.102   9.734  19.573  0.00  0.00    +0.000 N 
ATOM      5  C   UNL     1       1.913   8.681  19.247  0.00  0.00    +0.000 A 
ENDROOT
BRANCH   1   8
ATOM      6  C   UNL     1       2.430   5.658  19.260  0.00  0.00    +0.000 C 
ATOM      7  O   UNL     1       2.027   5.915  18.127  0.00  0.00    +0.000 OA
ATOM      8  N   UNL     1       2.365   6.515  20.342  0.00  0.00    +0.000 N 
ATOM      9  H   UNL     1       2.990   6.322  21.114  0.00  0.00    +0.000 HD
BRANCH   6  14
ATOM     10  C   UNL     1       4.260   3.926  18.910  0.00  0.00    +0.000 A 
ATOM     11  O   UNL     1       4.526   2.692  19.461  0.00  0.00    +0.000 OA
ATOM     12  C   UNL     1       3.590   2.548  20.434  0.00  0.00    +0.000 A 
ATOM     13  N   UNL     1       2.772   3.567  20.581  0.00  0.00    +0.000 NA
ATOM     14  C   UNL     1       3.141   4.422  19.555  0.00  0.00    +0.000 A 
BRANCH  10  20
ATOM     15  C   UNL     1       5.970   3.920  14.206  0.00  0.00    +0.000 C 
ATOM     16  C   UNL     1       6.087   4.382  15.628  0.00  0.00    +0.000 A 
ATOM     17  C   UNL     1       7.152   5.194  16.031  0.00  0.00    +0.000 A 
ATOM     18  C   UNL     1       7.255   5.603  17.358  0.00  0.00    +0.000 A 
ATOM     19  C   UNL     1       6.297   5.206  18.293  0.00  0.00    +0.000 A 
ATOM     20  C   UNL     1       5.217   4.394  17.915  0.00  0.00    +0.000 A 
ATOM     21  C   UNL     1       5.127   3.995  16.574  0.00  0.00    +0.000 A 
ENDBRANCH  10  20
ENDBRANCH   6  14
ENDBRANCH   1   8
BRANCH   4  22
ATOM     22  C   UNL     1       0.790  10.873  18.725  0.00  0.00    +0.000 C 
BRANCH  22  23
ATOM     23  C   UNL     1      -0.699  10.991  18.392  0.00  0.00    +0.000 C 
BRANCH  23  24
ATOM     24  N   UNL     1      -1.475  11.662  19.455  0.00  0.00    +0.000 N 
ATOM     25  C   UNL     1      -2.806  11.797  19.249  0.00  0.00    +0.000 A 
ATOM     26  N   UNL     1      -3.497  11.270  18.268  0.00  0.00    +0.000 NA
ATOM     27  C   UNL     1      -4.765  11.759  18.398  0.00  0.00    +0.000 A 
ATOM     28  C   UNL     1      -5.860  11.598  17.540  0.00  0.00    +0.000 A 
ATOM     29  C   UNL     1      -7.061  12.237  17.861  0.00  0.00    +0.000 A 
ATOM     30  C   UNL     1      -7.182  12.967  19.045  0.00  0.00    +0.000 A 
ATOM     31  C   UNL     1      -6.105  13.119  19.925  0.00  0.00    +0.000 A 
ATOM     32  C   UNL     1      -4.890  12.533  19.546  0.00  0.00    +0.000 A 
ATOM     33  N   UNL     1      -3.614  12.564  20.063  0.00  0.00    +0.000 N 
ATOM     34  C   UNL     1      -3.182  13.356  21.189  0.00  0.00    +0.000 C 
ATOM     35  H   UNL     1      -0.984  12.475  19.815  0.00  0.00    +0.000 HD
ENDBRANCH  23  24
ENDBRANCH  22  23
ENDBRANCH   4  22
TORSDOF 6
ENDMDL
MODEL 4
REMARK VINA RESULT:      -8.4      2.526      3.615
REMARK  Name = 
REMARK  8 active torsions:
REMARK  status: ('A' for Active; 'I' for Inactive)
REMARK    1  A    between atoms: C_1  and  C_2
REMARK    2  A    between atoms: C_6  and  C_7
REMARK    3  A    between atoms: C_11  and  C_12
REMARK    4  A    between atoms: N_14  and  C_15
REMARK    5  A    between atoms: N_18  and  C_19
REMARK    6  A    between atoms: C_19  and  C_20
REMARK    7  A    between atoms: C_20  and  N_21
REMARK    8  A    between atoms: N_30  and  C_31
REMARK                            x       y       z     vdW  Elec       q    Type
REMARK                         _______ _______ _______ _____ _____    ______ ____
ROOT
ATOM      1  C   UNL     1       2.009   7.475  20.186  0.00  0.00    +0.000 A 
ATOM      2  C   UNL     1       1.165   8.022  21.173  0.00  0.00    +0.000 A 
ATOM      3  N   UNL     1       0.526   9.118  20.753  0.00  0.00    +0.000 NA
ATOM      4  N   UNL     1       0.956   9.267  19.480  0.00  0.00    +0.000 N 
ATOM      5  C   UNL     1       1.865   8.315  19.108  0.00  0.00    +0.000 A 
ENDROOT
BRANCH   1   8
ATOM      6  C   UNL     1       2.281   5.083  19.940  0.00  0.00    +0.000 C 
ATOM      7  O   UNL     1       1.146   4.858  19.525  0.00  0.00    +0.000 OA
ATOM      8  N   UNL     1       2.779   6.332  20.261  0.00  0.00    +0.000 N 
ATOM      9  H   UNL     1       3.786   6.428  20.288  0.00  0.00    +0.000 HD
BRANCH   6  14
ATOM     10  C   UNL     1       4.519   3.995  19.411  0.00  0.00    +0.000 A 
ATOM     11  O   UNL     1       5.081   2.774  19.708  0.00  0.00    +0.000 OA
ATOM     12  C   UNL     1       4.179   2.177  20.529  0.00  0.00    +0.000 A 
ATOM     13  N   UNL     1       3.114   2.896  20.808  0.00  0.00    +0.000 NA
ATOM     14  C   UNL     1       3.283   4.031  20.032  0.00  0.00    +0.000 A 
BRANCH  10  20
ATOM     15  C   UNL     1       5.391   6.569  15.208  0.00  0.00    +0.000 C 
ATOM     16  C   UNL     1       5.816   6.150  16.584  0.00  0.00    +0.000 A 
ATOM     17  C   UNL     1       7.047   6.557  17.108  0.00  0.00    +0.000 A 
ATOM     18  C   UNL     1       7.434   6.148  18.382  0.00  0.00    +0.000 A 
ATOM     19  C   UNL     1       6.597   5.328  19.141  0.00  0.00    +0.000 A 
ATOM     20  C   UNL     1       5.356   4.907  18.641  0.00  0.00    +0.000 A 
ATOM     21  C   UNL     1       4.980   5.332  17.359  0.00  0.00    +0.000 A 
ENDBRANCH  10  20
ENDBRANCH   6  14
ENDBRANCH   1   8
BRANCH   4  22
ATOM     22  C   UNL     1       0.366  10.276  18.616  0.00  0.00    +0.000 C 
BRANCH  22  23
ATOM     23  C   UNL     1      -0.655  11.165  19.331  0.00  0.00    +0.000 C 
BRANCH  23  24
ATOM     24  N   UNL     1      -0.026  12.171  20.211  0.00  0.00    +0.000 N 
ATOM     25  C   UNL     1      -0.730  12.555  21.302  0.00  0.00    +0.000 A 
ATOM     26  N   UNL     1      -1.849  12.025  21.729  0.00  0.00    +0.000 NA
ATOM     27  C   UNL     1      -2.251  12.795  22.783  0.00  0.00    +0.000 A 
ATOM     28  C   UNL     1      -3.441  12.726  23.518  0.00  0.00    +0.000 A 
ATOM     29  C   UNL     1      -3.654  13.660  24.535  0.00  0.00    +0.000 A 
ATOM     30  C   UNL     1      -2.672  14.601  24.852  0.00  0.00    +0.000 A 
ATOM     31  C   UNL     1      -1.467  14.669  24.144  0.00  0.00    +0.000 A 
ATOM     32  C   UNL     1      -1.307  13.772  23.080  0.00  0.00    +0.000 A 
ATOM     33  N   UNL     1      -0.352  13.615  22.099  0.00  0.00    +0.000 N 
ATOM     34  C   UNL     1       0.780  14.483  21.882  0.00  0.00    +0.000 C 
ATOM     35  H   UNL     1       0.420  12.908  19.673  0.00  0.00    +0.000 HD
ENDBRANCH  23  24
ENDBRANCH  22  23
ENDBRANCH   4  22
TORSDOF 6
ENDMDL
MODEL 5
REMARK VINA RESULT:      -8.4      1.526      2.569
REMARK  Name = 
REMARK  8 active torsions:
REMARK  status: ('A' for Active; 'I' for Inactive)
REMARK    1  A    between atoms: C_1  and  C_2
REMARK    2  A    between atoms: C_6  and  C_7
REMARK    3  A    between atoms: C_11  and  C_12
REMARK    4  A    between atoms: N_14  and  C_15
REMARK    5  A    between atoms: N_18  and  C_19
REMARK    6  A    between atoms: C_19  and  C_20
REMARK    7  A    between atoms: C_20  and  N_21
REMARK    8  A    between atoms: N_30  and  C_31
REMARK                            x       y       z     vdW  Elec       q    Type
REMARK                         _______ _______ _______ _____ _____    ______ ____
ROOT
ATOM      1  C   UNL     1       1.391   8.661  20.843  0.00  0.00    +0.000 A 
ATOM      2  C   UNL     1       0.950   9.470  21.908  0.00  0.00    +0.000 A 
ATOM      3  N   UNL     1       0.734  10.735  21.537  0.00  0.00    +0.000 NA
ATOM      4  N   UNL     1       1.028  10.734  20.218  0.00  0.00    +0.000 N 
ATOM      5  C   UNL     1       1.449   9.513  19.766  0.00  0.00    +0.000 A 
ENDROOT
BRANCH   1   8
ATOM      6  C   UNL     1       2.325   6.679  19.817  0.00  0.00    +0.000 C 
ATOM      7  O   UNL     1       2.762   7.238  18.813  0.00  0.00    +0.000 OA
ATOM      8  N   UNL     1       1.668   7.309  20.857  0.00  0.00    +0.000 N 
ATOM      9  H   UNL     1       1.636   6.817  21.741  0.00  0.00    +0.000 HD
BRANCH   6  14
ATOM     10  C   UNL     1       3.558   4.474  19.522  0.00  0.00    +0.000 A 
ATOM     11  O   UNL     1       3.341   3.190  19.970  0.00  0.00    +0.000 OA
ATOM     12  C   UNL     1       2.269   3.298  20.798  0.00  0.00    +0.000 A 
ATOM     13  N   UNL     1       1.796   4.515  20.945  0.00  0.00    +0.000 NA
ATOM     14  C   UNL     1       2.564   5.264  20.069  0.00  0.00    +0.000 A 
BRANCH  10  20
ATOM     15  C   UNL     1       5.993   3.883  15.189  0.00  0.00    +0.000 C 
ATOM     16  C   UNL     1       5.972   4.361  16.610  0.00  0.00    +0.000 A 
ATOM     17  C   UNL     1       7.114   4.918  17.195  0.00  0.00    +0.000 A 
ATOM     18  C   UNL     1       7.083   5.344  18.519  0.00  0.00    +0.000 A 
ATOM     19  C   UNL     1       5.915   5.218  19.272  0.00  0.00    +0.000 A 
ATOM     20  C   UNL     1       4.754   4.666  18.711  0.00  0.00    +0.000 A 
ATOM     21  C   UNL     1       4.801   4.245  17.374  0.00  0.00    +0.000 A 
ENDBRANCH  10  20
ENDBRANCH   6  14
ENDBRANCH   1   8
BRANCH   4  22
ATOM     22  C   UNL     1       0.768  11.909  19.402  0.00  0.00    +0.000 C 
BRANCH  22  23
ATOM     23  C   UNL     1      -0.676  11.993  18.902  0.00  0.00    +0.000 C 
BRANCH  23  24
ATOM     24  N   UNL     1      -1.645  12.262  19.983  0.00  0.00    +0.000 N 
ATOM     25  C   UNL     1      -2.958  12.167  19.667  0.00  0.00    +0.000 A 
ATOM     26  N   UNL     1      -3.454  11.727  18.537  0.00  0.00    +0.000 NA
ATOM     27  C   UNL     1      -4.803  11.914  18.621  0.00  0.00    +0.000 A 
ATOM     28  C   UNL     1      -5.780  11.718  17.636  0.00  0.00    +0.000 A 
ATOM     29  C   UNL     1      -7.109  12.024  17.943  0.00  0.00    +0.000 A 
ATOM     30  C   UNL     1      -7.461  12.456  19.222  0.00  0.00    +0.000 A 
ATOM     31  C   UNL     1      -6.502  12.635  20.225  0.00  0.00    +0.000 A 
ATOM     32  C   UNL     1      -5.167  12.395  19.874  0.00  0.00    +0.000 A 
ATOM     33  N   UNL     1      -3.963  12.574  20.519  0.00  0.00    +0.000 N 
ATOM     34  C   UNL     1      -3.787  13.188  21.813  0.00  0.00    +0.000 C 
ATOM     35  H   UNL     1      -1.367  13.065  20.540  0.00  0.00    +0.000 HD
ENDBRANCH  23  24
ENDBRANCH  22  23
ENDBRANCH   4  22
TORSDOF 6
ENDMDL
MODEL 6
REMARK VINA RESULT:      -8.4      1.324      1.880
REMARK  Name = 
REMARK  8 active torsions:
REMARK  status: ('A' for Active; 'I' for Inactive)
REMARK    1  A    between atoms: C_1  and  C_2
REMARK    2  A    between atoms: C_6  and  C_7
REMARK    3  A    between atoms: C_11  and  C_12
REMARK    4  A    between atoms: N_14  and  C_15
REMARK    5  A    between atoms: N_18  and  C_19
REMARK    6  A    between atoms: C_19  and  C_20
REMARK    7  A    between atoms: C_20  and  N_21
REMARK    8  A    between atoms: N_30  and  C_31
REMARK                            x       y       z     vdW  Elec       q    Type
REMARK                         _______ _______ _______ _____ _____    ______ ____
ROOT
ATOM      1  C   UNL     1       1.374   8.740  20.304  0.00  0.00    +0.000 A 
ATOM      2  C   UNL     1       1.299   9.446  19.088  0.00  0.00    +0.000 A 
ATOM      3  N   UNL     1       0.953  10.726  19.255  0.00  0.00    +0.000 NA
ATOM      4  N   UNL     1       0.817  10.844  20.595  0.00  0.00    +0.000 N 
ATOM      5  C   UNL     1       1.038   9.669  21.260  0.00  0.00    +0.000 A 
ENDROOT
BRANCH   1   8
ATOM      6  C   UNL     1       2.375   6.677  19.534  0.00  0.00    +0.000 C 
ATOM      7  O   UNL     1       2.716   7.095  18.429  0.00  0.00    +0.000 OA
ATOM      8  N   UNL     1       1.739   7.425  20.506  0.00  0.00    +0.000 N 
ATOM      9  H   UNL     1       1.790   7.077  21.455  0.00  0.00    +0.000 HD
BRANCH   6  14
ATOM     10  C   UNL     1       3.770   4.550  19.541  0.00  0.00    +0.000 A 
ATOM     11  O   UNL     1       3.651   3.332  20.172  0.00  0.00    +0.000 OA
ATOM     12  C   UNL     1       2.577   3.479  20.991  0.00  0.00    +0.000 A 
ATOM     13  N   UNL     1       2.014   4.666  20.968  0.00  0.00    +0.000 NA
ATOM     14  C   UNL     1       2.720   5.336  19.983  0.00  0.00    +0.000 A 
BRANCH  10  20
ATOM     15  C   UNL     1       6.071   3.859  15.150  0.00  0.00    +0.000 C 
ATOM     16  C   UNL     1       6.098   4.357  16.564  0.00  0.00    +0.000 A 
ATOM     17  C   UNL     1       7.265   4.902  17.109  0.00  0.00    +0.000 A 
ATOM     18  C   UNL     1       7.279   5.348  18.428  0.00  0.00    +0.000 A 
ATOM     19  C   UNL     1       6.130   5.251  19.215  0.00  0.00    +0.000 A 
ATOM     20  C   UNL     1       4.945   4.711  18.694  0.00  0.00    +0.000 A 
ATOM     21  C   UNL     1       4.947   4.271  17.362  0.00  0.00    +0.000 A 
ENDBRANCH  10  20
ENDBRANCH   6  14
ENDBRANCH   1   8
BRANCH   4  22
ATOM     22  C   UNL     1       0.592  12.146  21.202  0.00  0.00    +0.000 C 
BRANCH  22  23
ATOM     23  C   UNL     1      -0.771  12.750  20.854  0.00  0.00    +0.000 C 
BRANCH  23  24
ATOM     24  N   UNL     1      -1.276  12.311  19.537  0.00  0.00    +0.000 N 
ATOM     25  C   UNL     1      -2.620  12.237  19.390  0.00  0.00    +0.000 A 
ATOM     26  N   UNL     1      -3.518  12.647  20.250  0.00  0.00    +0.000 NA
ATOM     27  C   UNL     1      -4.727  12.274  19.737  0.00  0.00    +0.000 A 
ATOM     28  C   UNL     1      -5.997  12.371  20.320  0.00  0.00    +0.000 A 
ATOM     29  C   UNL     1      -7.097  11.876  19.615  0.00  0.00    +0.000 A 
ATOM     30  C   UNL     1      -6.939  11.353  18.330  0.00  0.00    +0.000 A 
ATOM     31  C   UNL     1      -5.681  11.270  17.723  0.00  0.00    +0.000 A 
ATOM     32  C   UNL     1      -4.583  11.703  18.477  0.00  0.00    +0.000 A 
ATOM     33  N   UNL     1      -3.220  11.666  18.286  0.00  0.00    +0.000 N 
ATOM     34  C   UNL     1      -2.543  11.036  17.180  0.00  0.00    +0.000 C 
ATOM     35  H   UNL     1      -0.733  11.534  19.172  0.00  0.00    +0.000 HD
ENDBRANCH  23  24
ENDBRANCH  22  23
ENDBRANCH   4  22
TORSDOF 6
ENDMDL
MODEL 7
REMARK VINA RESULT:      -8.4      1.816      2.539
REMARK  Name = 
REMARK  8 active torsions:
REMARK  status: ('A' for Active; 'I' for Inactive)
REMARK    1  A    between atoms: C_1  and  C_2
REMARK    2  A    between atoms: C_6  and  C_7
REMARK    3  A    between atoms: C_11  and  C_12
REMARK    4  A    between atoms: N_14  and  C_15
REMARK    5  A    between atoms: N_18  and  C_19
REMARK    6  A    between atoms: C_19  and  C_20
REMARK    7  A    between atoms: C_20  and  N_21
REMARK    8  A    between atoms: N_30  and  C_31
REMARK                            x       y       z     vdW  Elec       q    Type
REMARK                         _______ _______ _______ _____ _____    ______ ____
ROOT
ATOM      1  C   UNL     1       1.289   8.601  20.811  0.00  0.00    +0.000 A 
ATOM      2  C   UNL     1       1.303   9.509  21.887  0.00  0.00    +0.000 A 
ATOM      3  N   UNL     1       0.968  10.749  21.518  0.00  0.00    +0.000 NA
ATOM      4  N   UNL     1       0.726  10.631  20.193  0.00  0.00    +0.000 N 
ATOM      5  C   UNL     1       0.930   9.362  19.725  0.00  0.00    +0.000 A 
ENDROOT
BRANCH   1   8
ATOM      6  C   UNL     1       2.239   6.602  19.833  0.00  0.00    +0.000 C 
ATOM      7  O   UNL     1       2.740   7.154  18.855  0.00  0.00    +0.000 OA
ATOM      8  N   UNL     1       1.539   7.244  20.837  0.00  0.00    +0.000 N 
ATOM      9  H   UNL     1       1.451   6.752  21.717  0.00  0.00    +0.000 HD
BRANCH   6  14
ATOM     10  C   UNL     1       3.403   4.359  19.546  0.00  0.00    +0.000 A 
ATOM     11  O   UNL     1       3.152   3.086  20.007  0.00  0.00    +0.000 OA
ATOM     12  C   UNL     1       2.091   3.233  20.842  0.00  0.00    +0.000 A 
ATOM     13  N   UNL     1       1.655   4.465  20.984  0.00  0.00    +0.000 NA
ATOM     14  C   UNL     1       2.438   5.184  20.095  0.00  0.00    +0.000 A 
BRANCH  10  20
ATOM     15  C   UNL     1       8.045   6.128  18.931  0.00  0.00    +0.000 C 
ATOM     16  C   UNL     1       6.856   5.391  18.391  0.00  0.00    +0.000 A 
ATOM     17  C   UNL     1       6.845   4.915  17.076  0.00  0.00    +0.000 A 
ATOM     18  C   UNL     1       5.728   4.244  16.585  0.00  0.00    +0.000 A 
ATOM     19  C   UNL     1       4.613   4.045  17.399  0.00  0.00    +0.000 A 
ATOM     20  C   UNL     1       4.597   4.509  18.723  0.00  0.00    +0.000 A 
ATOM     21  C   UNL     1       5.732   5.179  19.203  0.00  0.00    +0.000 A 
ENDBRANCH  10  20
ENDBRANCH   6  14
ENDBRANCH   1   8
BRANCH   4  22
ATOM     22  C   UNL     1       0.179  11.748  19.441  0.00  0.00    +0.000 C 
BRANCH  22  23
ATOM     23  C   UNL     1      -0.891  12.530  20.208  0.00  0.00    +0.000 C 
BRANCH  23  24
ATOM     24  N   UNL     1      -2.218  12.476  19.562  0.00  0.00    +0.000 N 
ATOM     25  C   UNL     1      -3.297  12.624  20.366  0.00  0.00    +0.000 A 
ATOM     26  N   UNL     1      -3.280  12.949  21.635  0.00  0.00    +0.000 NA
ATOM     27  C   UNL     1      -4.575  12.874  22.059  0.00  0.00    +0.000 A 
ATOM     28  C   UNL     1      -5.084  13.011  23.357  0.00  0.00    +0.000 A 
ATOM     29  C   UNL     1      -6.457  12.846  23.557  0.00  0.00    +0.000 A 
ATOM     30  C   UNL     1      -7.310  12.612  22.477  0.00  0.00    +0.000 A 
ATOM     31  C   UNL     1      -6.822  12.495  21.171  0.00  0.00    +0.000 A 
ATOM     32  C   UNL     1      -5.434  12.589  21.003  0.00  0.00    +0.000 A 
ATOM     33  N   UNL     1      -4.588  12.407  19.931  0.00  0.00    +0.000 N 
ATOM     34  C   UNL     1      -4.980  11.956  18.618  0.00  0.00    +0.000 C 
ATOM     35  H   UNL     1      -2.263  11.733  18.870  0.00  0.00    +0.000 HD
ENDBRANCH  23  24
ENDBRANCH  22  23
ENDBRANCH   4  22
TORSDOF 6
ENDMDL
MODEL 8
REMARK VINA RESULT:      -8.4      1.228      1.904
REMARK  Name = 
REMARK  8 active torsions:
REMARK  status: ('A' for Active; 'I' for Inactive)
REMARK    1  A    between atoms: C_1  and  C_2
REMARK    2  A    between atoms: C_6  and  C_7
REMARK    3  A    between atoms: C_11  and  C_12
REMARK    4  A    between atoms: N_14  and  C_15
REMARK    5  A    between atoms: N_18  and  C_19
REMARK    6  A    between atoms: C_19  and  C_20
REMARK    7  A    between atoms: C_20  and  N_21
REMARK    8  A    between atoms: N_30  and  C_31
REMARK                            x       y       z     vdW  Elec       q    Type
REMARK                         _______ _______ _______ _____ _____    ______ ____
ROOT
ATOM      1  C   UNL     1       1.344   8.286  21.131  0.00  0.00    +0.000 A 
ATOM      2  C   UNL     1       1.498   9.101  22.270  0.00  0.00    +0.000 A 
ATOM      3  N   UNL     1       1.044  10.342  22.080  0.00  0.00    +0.000 NA
ATOM      4  N   UNL     1       0.583  10.320  20.809  0.00  0.00    +0.000 N 
ATOM      5  C   UNL     1       0.765   9.110  20.196  0.00  0.00    +0.000 A 
ENDROOT
BRANCH   1   8
ATOM      6  C   UNL     1       2.367   6.472  19.900  0.00  0.00    +0.000 C 
ATOM      7  O   UNL     1       2.814   7.162  18.986  0.00  0.00    +0.000 OA
ATOM      8  N   UNL     1       1.662   6.951  20.988  0.00  0.00    +0.000 N 
ATOM      9  H   UNL     1       1.622   6.353  21.803  0.00  0.00    +0.000 HD
BRANCH   6  14
ATOM     10  C   UNL     1       3.615   4.338  19.298  0.00  0.00    +0.000 A 
ATOM     11  O   UNL     1       3.445   3.010  19.618  0.00  0.00    +0.000 OA
ATOM     12  C   UNL     1       2.424   3.006  20.514  0.00  0.00    +0.000 A 
ATOM     13  N   UNL     1       1.942   4.190  20.819  0.00  0.00    +0.000 NA
ATOM     14  C   UNL     1       2.643   5.045  19.984  0.00  0.00    +0.000 A 
BRANCH  10  20
ATOM     15  C   UNL     1       5.792   4.261  14.792  0.00  0.00    +0.000 C 
ATOM     16  C   UNL     1       5.849   4.587  16.254  0.00  0.00    +0.000 A 
ATOM     17  C   UNL     1       7.015   5.106  16.827  0.00  0.00    +0.000 A 
ATOM     18  C   UNL     1       7.057   5.391  18.189  0.00  0.00    +0.000 A 
ATOM     19  C   UNL     1       5.939   5.159  18.991  0.00  0.00    +0.000 A 
ATOM     20  C   UNL     1       4.755   4.643  18.443  0.00  0.00    +0.000 A 
ATOM     21  C   UNL     1       4.728   4.365  17.069  0.00  0.00    +0.000 A 
ENDBRANCH  10  20
ENDBRANCH   6  14
ENDBRANCH   1   8
BRANCH   4  22
ATOM     22  C   UNL     1      -0.141  11.458  20.266  0.00  0.00    +0.000 C 
BRANCH  22  23
ATOM     23  C   UNL     1       0.187  11.741  18.798  0.00  0.00    +0.000 C 
BRANCH  23  24
ATOM     24  N   UNL     1      -0.831  11.214  17.868  0.00  0.00    +0.000 N 
ATOM     25  C   UNL     1      -2.127  11.465  18.171  0.00  0.00    +0.000 A 
ATOM     26  N   UNL     1      -2.561  12.246  19.129  0.00  0.00    +0.000 NA
ATOM     27  C   UNL     1      -3.920  12.111  19.135  0.00  0.00    +0.000 A 
ATOM     28  C   UNL     1      -4.851  12.641  20.038  0.00  0.00    +0.000 A 
ATOM     29  C   UNL     1      -6.202  12.327  19.866  0.00  0.00    +0.000 A 
ATOM     30  C   UNL     1      -6.619  11.553  18.782  0.00  0.00    +0.000 A 
ATOM     31  C   UNL     1      -5.705  11.035  17.857  0.00  0.00    +0.000 A 
ATOM     32  C   UNL     1      -4.349  11.300  18.091  0.00  0.00    +0.000 A 
ATOM     33  N   UNL     1      -3.179  10.876  17.501  0.00  0.00    +0.000 N 
ATOM     34  C   UNL     1      -3.076   9.898  16.446  0.00  0.00    +0.000 C 
ATOM     35  H   UNL     1      -0.608  10.268  17.571  0.00  0.00    +0.000 HD
ENDBRANCH  23  24
ENDBRANCH  22  23
ENDBRANCH   4  22
TORSDOF 6
ENDMDL
MODEL 9
REMARK VINA RESULT:      -8.4      3.321      4.549
REMARK  Name = 
REMARK  8 active torsions:
REMARK  status: ('A' for Active; 'I' for Inactive)
REMARK    1  A    between atoms: C_1  and  C_2
REMARK    2  A    between atoms: C_6  and  C_7
REMARK    3  A    between atoms: C_11  and  C_12
REMARK    4  A    between atoms: N_14  and  C_15
REMARK    5  A    between atoms: N_18  and  C_19
REMARK    6  A    between atoms: C_19  and  C_20
REMARK    7  A    between atoms: C_20  and  N_21
REMARK    8  A    between atoms: N_30  and  C_31
REMARK                            x       y       z     vdW  Elec       q    Type
REMARK                         _______ _______ _______ _____ _____    ______ ____
ROOT
ATOM      1  C   UNL     1       1.486   8.253  20.771  0.00  0.00    +0.000 A 
ATOM      2  C   UNL     1       1.154   9.022  21.903  0.00  0.00    +0.000 A 
ATOM      3  N   UNL     1       0.813  10.276  21.591  0.00  0.00    +0.000 NA
ATOM      4  N   UNL     1       0.918  10.307  20.243  0.00  0.00    +0.000 N 
ATOM      5  C   UNL     1       1.341   9.118  19.714  0.00  0.00    +0.000 A 
ENDROOT
BRANCH   1   8
ATOM      6  C   UNL     1       2.396   6.346  19.592  0.00  0.00    +0.000 C 
ATOM      7  O   UNL     1       2.668   6.945  18.553  0.00  0.00    +0.000 OA
ATOM      8  N   UNL     1       1.841   6.920  20.720  0.00  0.00    +0.000 N 
ATOM      9  H   UNL     1       1.951   6.414  21.589  0.00  0.00    +0.000 HD
BRANCH   6  14
ATOM     10  C   UNL     1       3.829   4.274  19.240  0.00  0.00    +0.000 A 
ATOM     11  O   UNL     1       3.706   2.953  19.609  0.00  0.00    +0.000 OA
ATOM     12  C   UNL     1       2.595   2.923  20.390  0.00  0.00    +0.000 A 
ATOM     13  N   UNL     1       2.011   4.085  20.579  0.00  0.00    +0.000 NA
ATOM     14  C   UNL     1       2.746   4.945  19.780  0.00  0.00    +0.000 A 
BRANCH  10  20
ATOM     15  C   UNL     1       6.522   4.066  15.026  0.00  0.00    +0.000 C 
ATOM     16  C   UNL     1       6.381   4.498  16.455  0.00  0.00    +0.000 A 
ATOM     17  C   UNL     1       7.429   5.152  17.112  0.00  0.00    +0.000 A 
ATOM     18  C   UNL     1       7.288   5.535  18.443  0.00  0.00    +0.000 A 
ATOM     19  C   UNL     1       6.103   5.266  19.131  0.00  0.00    +0.000 A 
ATOM     20  C   UNL     1       5.036   4.613  18.496  0.00  0.00    +0.000 A 
ATOM     21  C   UNL     1       5.193   4.239  17.154  0.00  0.00    +0.000 A 
ENDBRANCH  10  20
ENDBRANCH   6  14
ENDBRANCH   1   8
BRANCH   4  22
ATOM     22  C   UNL     1       0.477  11.473  19.495  0.00  0.00    +0.000 C 
BRANCH  22  23
ATOM     23  C   UNL     1       0.647  12.786  20.264  0.00  0.00    +0.000 C 
BRANCH  23  24
ATOM     24  N   UNL     1       1.736  13.629  19.730  0.00  0.00    +0.000 N 
ATOM     25  C   UNL     1       1.378  14.806  19.165  0.00  0.00    +0.000 A 
ATOM     26  N   UNL     1       0.180  15.336  19.170  0.00  0.00    +0.000 NA
ATOM     27  C   UNL     1       0.263  16.457  18.396  0.00  0.00    +0.000 A 
ATOM     28  C   UNL     1      -0.762  17.319  17.984  0.00  0.00    +0.000 A 
ATOM     29  C   UNL     1      -0.440  18.390  17.146  0.00  0.00    +0.000 A 
ATOM     30  C   UNL     1       0.885  18.631  16.780  0.00  0.00    +0.000 A 
ATOM     31  C   UNL     1       1.925  17.795  17.201  0.00  0.00    +0.000 A 
ATOM     32  C   UNL     1       1.570  16.684  17.978  0.00  0.00    +0.000 A 
ATOM     33  N   UNL     1       2.263  15.597  18.462  0.00  0.00    +0.000 N 
ATOM     34  C   UNL     1       3.644  15.288  18.182  0.00  0.00    +0.000 C 
ATOM     35  H   UNL     1       2.423  13.073  19.229  0.00  0.00    +0.000 HD
ENDBRANCH  23  24
ENDBRANCH  22  23
ENDBRANCH   4  22
TORSDOF 6
ENDMDL
