MODEL 1
REMARK VINA RESULT:      -7.2      0.000      0.000
REMARK  Name = 
REMARK  7 active torsions:
REMARK  status: ('A' for Active; 'I' for Inactive)
REMARK    1  A    between atoms: C_1  and  C_2
REMARK    2  A    between atoms: C_2  and  C_3
REMARK    3  A    between atoms: N_5  and  C1*_6
REMARK    4  A    between atoms: C4*_8  and  C5*_9
REMARK    5  A    between atoms: C5*_9  and  O5*_10
REMARK    6  A    between atoms: C3*_11  and  O3*_12
REMARK    7  A    between atoms: C2*_13  and  O2*_14
REMARK                            x       y       z     vdW  Elec       q    Type
REMARK                         _______ _______ _______ _____ _____    ______ ____
ROOT
ATOM      1  C1* UNL     1       4.395   4.144  19.543  0.00  0.00    +0.000 C 
ATOM      2  O4* UNL     1       4.008   2.764  19.411  0.00  0.00    +0.000 OA
ATOM      3  C4* UNL     1       2.597   2.650  19.738  0.00  0.00    +0.000 C 
ATOM      4  C3* UNL     1       2.121   4.033  20.186  0.00  0.00    +0.000 C 
ATOM      5  C2* UNL     1       3.099   4.971  19.504  0.00  0.00    +0.000 C 
ENDROOT
BRANCH   1   8
ATOM      6  C   UNL     1       5.682   4.868  16.163  0.00  0.00    +0.000 A 
ATOM      7  C   UNL     1       4.976   4.338  17.163  0.00  0.00    +0.000 A 
ATOM      8  N   UNL     1       5.333   4.491  18.481  0.00  0.00    +0.000 N 
ATOM      9  C   UNL     1       6.485   5.168  18.830  0.00  0.00    +0.000 A 
ATOM     10  O   UNL     1       6.883   5.411  19.958  0.00  0.00    +0.000 OA
ATOM     11  C   UNL     1       7.321   5.649  17.712  0.00  0.00    +0.000 A 
ATOM     12  N   UNL     1       6.940   5.526  16.473  0.00  0.00    +0.000 N 
ATOM     13  O   UNL     1       7.717   5.993  15.573  0.00  0.00    +0.000 OA
BRANCH   6  15
ATOM     14  C   UNL     1       5.948   3.797  13.946  0.00  0.00    +0.000 C 
ATOM     15  C   UNL     1       5.257   4.907  14.732  0.00  0.00    +0.000 C 
ENDBRANCH   6  15
ENDBRANCH   1   8
BRANCH   4  16
ATOM     16  O3* UNL     1       2.234   4.213  21.609  0.00  0.00    +0.000 OA
ATOM     17  H3* UNL     1       3.126   4.548  21.823  0.00  0.00    +0.000 HD
ENDBRANCH   4  16
BRANCH   5  18
ATOM     18  O2* UNL     1       3.194   6.228  20.159  0.00  0.00    +0.000 OA
ATOM     19  H2* UNL     1       3.283   6.040  21.116  0.00  0.00    +0.000 HD
ENDBRANCH   5  18
BRANCH   3  20
ATOM     20  C5* UNL     1       1.880   2.140  18.486  0.00  0.00    +0.000 C 
BRANCH  20  21
ATOM     21  O5* UNL     1       2.827   1.583  17.576  0.00  0.00    +0.000 OA
ATOM     22  H5* UNL     1       3.208   0.797  18.015  0.00  0.00    +0.000 HD
ENDBRANCH  20  21
ENDBRANCH   3  20
TORSDOF 6
ENDMDL
MODEL 2
REMARK VINA RESULT:      -7.0      1.862      5.686
REMARK  Name = 
REMARK  7 active torsions:
REMARK  status: ('A' for Active; 'I' for Inactive)
REMARK    1  A    between atoms: C_1  and  C_2
REMARK    2  A    between atoms: C_2  and  C_3
REMARK    3  A    between atoms: N_5  and  C1*_6
REMARK    4  A    between atoms: C4*_8  and  C5*_9
REMARK    5  A    between atoms: C5*_9  and  O5*_10
REMARK    6  A    between atoms: C3*_11  and  O3*_12
REMARK    7  A    between atoms: C2*_13  and  O2*_14
REMARK                            x       y       z     vdW  Elec       q    Type
REMARK                         _______ _______ _______ _____ _____    ______ ____
ROOT
ATOM      1  C1* UNL     1       5.470   4.240  17.765  0.00  0.00    +0.000 C 
ATOM      2  O4* UNL     1       6.623   4.130  18.620  0.00  0.00    +0.000 OA
ATOM      3  C4* UNL     1       7.653   5.023  18.117  0.00  0.00    +0.000 C 
ATOM      4  C3* UNL     1       7.126   5.643  16.822  0.00  0.00    +0.000 C 
ATOM      5  C2* UNL     1       5.620   5.560  16.989  0.00  0.00    +0.000 C 
ENDROOT
BRANCH   1   8
ATOM      6  C   UNL     1       2.585   5.372  19.765  0.00  0.00    +0.000 A 
ATOM      7  C   UNL     1       3.804   5.300  19.229  0.00  0.00    +0.000 A 
ATOM      8  N   UNL     1       4.256   4.180  18.572  0.00  0.00    +0.000 N 
ATOM      9  C   UNL     1       3.474   3.046  18.483  0.00  0.00    +0.000 A 
ATOM     10  O   UNL     1       3.740   2.013  17.890  0.00  0.00    +0.000 OA
ATOM     11  C   UNL     1       2.174   3.095  19.180  0.00  0.00    +0.000 A 
ATOM     12  N   UNL     1       1.751   4.182  19.761  0.00  0.00    +0.000 N 
ATOM     13  O   UNL     1       0.604   4.138  20.319  0.00  0.00    +0.000 OA
BRANCH   6  15
ATOM     14  C   UNL     1       2.112   7.765  19.338  0.00  0.00    +0.000 C 
ATOM     15  C   UNL     1       1.959   6.609  20.321  0.00  0.00    +0.000 C 
ENDBRANCH   6  15
ENDBRANCH   1   8
BRANCH   4  16
ATOM     16  O3* UNL     1       7.497   4.877  15.661  0.00  0.00    +0.000 OA
ATOM     17  H3* UNL     1       8.009   5.442  15.051  0.00  0.00    +0.000 HD
ENDBRANCH   4  16
BRANCH   5  18
ATOM     18  O2* UNL     1       4.932   5.583  15.747  0.00  0.00    +0.000 OA
ATOM     19  H2* UNL     1       5.355   6.283  15.206  0.00  0.00    +0.000 HD
ENDBRANCH   5  18
BRANCH   3  20
ATOM     20  C5* UNL     1       7.934   6.055  19.211  0.00  0.00    +0.000 C 
BRANCH  20  21
ATOM     21  O5* UNL     1       8.014   5.409  20.480  0.00  0.00    +0.000 OA
ATOM     22  H5* UNL     1       7.114   5.427  20.861  0.00  0.00    +0.000 HD
ENDBRANCH  20  21
ENDBRANCH   3  20
TORSDOF 6
ENDMDL
MODEL 3
REMARK VINA RESULT:      -6.9      1.316      2.535
REMARK  Name = 
REMARK  7 active torsions:
REMARK  status: ('A' for Active; 'I' for Inactive)
REMARK    1  A    between atoms: C_1  and  C_2
REMARK    2  A    between atoms: C_2  and  C_3
REMARK    3  A    between atoms: N_5  and  C1*_6
REMARK    4  A    between atoms: C4*_8  and  C5*_9
REMARK    5  A    between atoms: C5*_9  and  O5*_10
REMARK    6  A    between atoms: C3*_11  and  O3*_12
REMARK    7  A    between atoms: C2*_13  and  O2*_14
REMARK                            x       y       z     vdW  Elec       q    Type
REMARK                         _______ _______ _______ _____ _____    ______ ____
ROOT
ATOM      1  C1* UNL     1       3.455   3.497  17.920  0.00  0.00    +0.000 C 
ATOM      2  O4* UNL     1       2.525   4.433  18.498  0.00  0.00    +0.000 OA
ATOM      3  C4* UNL     1       1.828   3.773  19.589  0.00  0.00    +0.000 C 
ATOM      4  C3* UNL     1       2.297   2.316  19.613  0.00  0.00    +0.000 C 
ATOM      5  C2* UNL     1       3.666   2.385  18.962  0.00  0.00    +0.000 C 
ENDROOT
BRANCH   1   8
ATOM      6  C   UNL     1       6.201   4.822  15.845  0.00  0.00    +0.000 A 
ATOM      7  C   UNL     1       5.234   4.030  16.311  0.00  0.00    +0.000 A 
ATOM      8  N   UNL     1       4.686   4.191  17.560  0.00  0.00    +0.000 N 
ATOM      9  C   UNL     1       5.156   5.164  18.421  0.00  0.00    +0.000 A 
ATOM     10  O   UNL     1       4.724   5.437  19.529  0.00  0.00    +0.000 OA
ATOM     11  C   UNL     1       6.303   5.958  17.941  0.00  0.00    +0.000 A 
ATOM     12  N   UNL     1       6.779   5.813  16.737  0.00  0.00    +0.000 N 
ATOM     13  O   UNL     1       7.758   6.560  16.401  0.00  0.00    +0.000 OA
BRANCH   6  15
ATOM     14  C   UNL     1       5.926   3.833  13.591  0.00  0.00    +0.000 C 
ATOM     15  C   UNL     1       6.708   4.830  14.440  0.00  0.00    +0.000 C 
ENDBRANCH   6  15
ENDBRANCH   1   8
BRANCH   4  16
ATOM     16  O3* UNL     1       1.457   1.460  18.818  0.00  0.00    +0.000 OA
ATOM     17  H3* UNL     1       0.821   2.005  18.317  0.00  0.00    +0.000 HD
ENDBRANCH   4  16
BRANCH   5  18
ATOM     18  O2* UNL     1       4.068   1.141  18.408  0.00  0.00    +0.000 OA
ATOM     19  H2* UNL     1       4.692   1.346  17.682  0.00  0.00    +0.000 HD
ENDBRANCH   5  18
BRANCH   3  20
ATOM     20  C5* UNL     1       2.162   4.538  20.871  0.00  0.00    +0.000 C 
BRANCH  20  21
ATOM     21  O5* UNL     1       2.195   5.939  20.607  0.00  0.00    +0.000 OA
ATOM     22  H5* UNL     1       1.363   6.156  20.140  0.00  0.00    +0.000 HD
ENDBRANCH  20  21
ENDBRANCH   3  20
TORSDOF 6
ENDMDL
MODEL 4
REMARK VINA RESULT:      -6.6      1.383      2.648
REMARK  Name = 
REMARK  7 active torsions:
REMARK  status: ('A' for Active; 'I' for Inactive)
REMARK    1  A    between atoms: C_1  and  C_2
REMARK    2  A    between atoms: C_2  and  C_3
REMARK    3  A    between atoms: N_5  and  C1*_6
REMARK    4  A    between atoms: C4*_8  and  C5*_9
REMARK    5  A    between atoms: C5*_9  and  O5*_10
REMARK    6  A    between atoms: C3*_11  and  O3*_12
REMARK    7  A    between atoms: C2*_13  and  O2*_14
REMARK                            x       y       z     vdW  Elec       q    Type
REMARK                         _______ _______ _______ _____ _____    ______ ____
ROOT
ATOM      1  C1* UNL     1       2.757   3.535  17.942  0.00  0.00    +0.000 C 
ATOM      2  O4* UNL     1       2.164   4.727  18.491  0.00  0.00    +0.000 OA
ATOM      3  C4* UNL     1       1.312   4.344  19.604  0.00  0.00    +0.000 C 
ATOM      4  C3* UNL     1       1.315   2.816  19.675  0.00  0.00    +0.000 C 
ATOM      5  C2* UNL     1       2.631   2.444  19.019  0.00  0.00    +0.000 C 
ENDROOT
BRANCH   1   8
ATOM      6  C   UNL     1       5.634   4.564  15.877  0.00  0.00    +0.000 A 
ATOM      7  C   UNL     1       4.454   4.065  16.244  0.00  0.00    +0.000 A 
ATOM      8  N   UNL     1       4.137   3.810  17.557  0.00  0.00    +0.000 N 
ATOM      9  C   UNL     1       5.060   4.015  18.563  0.00  0.00    +0.000 A 
ATOM     10  O   UNL     1       4.886   3.874  19.763  0.00  0.00    +0.000 OA
ATOM     11  C   UNL     1       6.402   4.457  18.134  0.00  0.00    +0.000 A 
ATOM     12  N   UNL     1       6.665   4.730  16.888  0.00  0.00    +0.000 N 
ATOM     13  O   UNL     1       7.847   5.128  16.614  0.00  0.00    +0.000 OA
BRANCH   6  15
ATOM     14  C   UNL     1       6.201   3.856  13.573  0.00  0.00    +0.000 C 
ATOM     15  C   UNL     1       5.980   5.043  14.504  0.00  0.00    +0.000 C 
ENDBRANCH   6  15
ENDBRANCH   1   8
BRANCH   4  16
ATOM     16  O3* UNL     1       0.244   2.233  18.909  0.00  0.00    +0.000 OA
ATOM     17  H3* UNL     1      -0.592   2.688  19.124  0.00  0.00    +0.000 HD
ENDBRANCH   4  16
BRANCH   5  18
ATOM     18  O2* UNL     1       2.628   1.120  18.505  0.00  0.00    +0.000 OA
ATOM     19  H2* UNL     1       2.061   0.589  19.102  0.00  0.00    +0.000 HD
ENDBRANCH   5  18
BRANCH   3  20
ATOM     20  C5* UNL     1       1.878   5.009  20.860  0.00  0.00    +0.000 C 
BRANCH  20  21
ATOM     21  O5* UNL     1       2.882   5.956  20.498  0.00  0.00    +0.000 OA
ATOM     22  H5* UNL     1       3.084   6.473  21.303  0.00  0.00    +0.000 HD
ENDBRANCH  20  21
ENDBRANCH   3  20
TORSDOF 6
ENDMDL
MODEL 5
REMARK VINA RESULT:      -6.6      1.991      5.759
REMARK  Name = 
REMARK  7 active torsions:
REMARK  status: ('A' for Active; 'I' for Inactive)
REMARK    1  A    between atoms: C_1  and  C_2
REMARK    2  A    between atoms: C_2  and  C_3
REMARK    3  A    between atoms: N_5  and  C1*_6
REMARK    4  A    between atoms: C4*_8  and  C5*_9
REMARK    5  A    between atoms: C5*_9  and  O5*_10
REMARK    6  A    between atoms: C3*_11  and  O3*_12
REMARK    7  A    between atoms: C2*_13  and  O2*_14
REMARK                            x       y       z     vdW  Elec       q    Type
REMARK                         _______ _______ _______ _____ _____    ______ ____
ROOT
ATOM      1  C1* UNL     1       5.905   4.520  18.637  0.00  0.00    +0.000 C 
ATOM      2  O4* UNL     1       6.686   5.675  18.999  0.00  0.00    +0.000 OA
ATOM      3  C4* UNL     1       7.429   6.111  17.830  0.00  0.00    +0.000 C 
ATOM      4  C3* UNL     1       7.154   5.101  16.713  0.00  0.00    +0.000 C 
ATOM      5  C2* UNL     1       5.809   4.517  17.102  0.00  0.00    +0.000 C 
ENDROOT
BRANCH   1   8
ATOM      6  C   UNL     1       2.705   5.895  19.852  0.00  0.00    +0.000 A 
ATOM      7  C   UNL     1       3.985   5.795  19.492  0.00  0.00    +0.000 A 
ATOM      8  N   UNL     1       4.604   4.585  19.296  0.00  0.00    +0.000 N 
ATOM      9  C   UNL     1       3.932   3.399  19.517  0.00  0.00    +0.000 A 
ATOM     10  O   UNL     1       4.352   2.268  19.334  0.00  0.00    +0.000 OA
ATOM     11  C   UNL     1       2.552   3.520  20.028  0.00  0.00    +0.000 A 
ATOM     12  N   UNL     1       1.974   4.679  20.167  0.00  0.00    +0.000 N 
ATOM     13  O   UNL     1       0.771   4.685  20.593  0.00  0.00    +0.000 OA
BRANCH   6  15
ATOM     14  C   UNL     1       2.199   8.004  18.656  0.00  0.00    +0.000 C 
ATOM     15  C   UNL     1       1.917   7.163  19.897  0.00  0.00    +0.000 C 
ENDBRANCH   6  15
ENDBRANCH   1   8
BRANCH   4  16
ATOM     16  O3* UNL     1       8.123   4.037  16.690  0.00  0.00    +0.000 OA
ATOM     17  H3* UNL     1       8.995   4.388  16.950  0.00  0.00    +0.000 HD
ENDBRANCH   4  16
BRANCH   5  18
ATOM     18  O2* UNL     1       5.590   3.232  16.537  0.00  0.00    +0.000 OA
ATOM     19  H2* UNL     1       6.246   3.128  15.817  0.00  0.00    +0.000 HD
ENDBRANCH   5  18
BRANCH   3  20
ATOM     20  C5* UNL     1       6.959   7.527  17.494  0.00  0.00    +0.000 C 
BRANCH  20  21
ATOM     21  O5* UNL     1       7.984   8.468  17.811  0.00  0.00    +0.000 OA
ATOM     22  H5* UNL     1       8.436   8.684  16.971  0.00  0.00    +0.000 HD
ENDBRANCH  20  21
ENDBRANCH   3  20
TORSDOF 6
ENDMDL
MODEL 6
REMARK VINA RESULT:      -6.5      1.884      3.019
REMARK  Name = 
REMARK  7 active torsions:
REMARK  status: ('A' for Active; 'I' for Inactive)
REMARK    1  A    between atoms: C_1  and  C_2
REMARK    2  A    between atoms: C_2  and  C_3
REMARK    3  A    between atoms: N_5  and  C1*_6
REMARK    4  A    between atoms: C4*_8  and  C5*_9
REMARK    5  A    between atoms: C5*_9  and  O5*_10
REMARK    6  A    between atoms: C3*_11  and  O3*_12
REMARK    7  A    between atoms: C2*_13  and  O2*_14
REMARK                            x       y       z     vdW  Elec       q    Type
REMARK                         _______ _______ _______ _____ _____    ______ ____
ROOT
ATOM      1  C1* UNL     1       2.236   4.072  18.191  0.00  0.00    +0.000 C 
ATOM      2  O4* UNL     1       1.651   4.617  19.389  0.00  0.00    +0.000 OA
ATOM      3  C4* UNL     1       1.166   3.517  20.205  0.00  0.00    +0.000 C 
ATOM      4  C3* UNL     1       1.388   2.229  19.410  0.00  0.00    +0.000 C 
ATOM      5  C2* UNL     1       2.532   2.590  18.482  0.00  0.00    +0.000 C 
ENDROOT
BRANCH   1   8
ATOM      6  C   UNL     1       5.532   4.874  16.743  0.00  0.00    +0.000 A 
ATOM      7  C   UNL     1       4.528   4.207  17.313  0.00  0.00    +0.000 A 
ATOM      8  N   UNL     1       3.425   4.839  17.837  0.00  0.00    +0.000 N 
ATOM      9  C   UNL     1       3.332   6.216  17.840  0.00  0.00    +0.000 A 
ATOM     10  O   UNL     1       2.391   6.890  18.228  0.00  0.00    +0.000 OA
ATOM     11  C   UNL     1       4.500   6.949  17.313  0.00  0.00    +0.000 A 
ATOM     12  N   UNL     1       5.515   6.326  16.786  0.00  0.00    +0.000 N 
ATOM     13  O   UNL     1       6.470   7.044  16.334  0.00  0.00    +0.000 OA
BRANCH   6  15
ATOM     14  C   UNL     1       6.242   3.970  14.550  0.00  0.00    +0.000 C 
ATOM     15  C   UNL     1       6.662   4.254  15.989  0.00  0.00    +0.000 C 
ENDBRANCH   6  15
ENDBRANCH   1   8
BRANCH   4  16
ATOM     16  O3* UNL     1       0.244   1.880  18.609  0.00  0.00    +0.000 OA
ATOM     17  H3* UNL     1      -0.504   1.655  19.193  0.00  0.00    +0.000 HD
ENDBRANCH   4  16
BRANCH   5  18
ATOM     18  O2* UNL     1       2.572   1.770  17.323  0.00  0.00    +0.000 OA
ATOM     19  H2* UNL     1       3.323   1.153  17.443  0.00  0.00    +0.000 HD
ENDBRANCH   5  18
BRANCH   3  20
ATOM     20  C5* UNL     1       1.940   3.555  21.524  0.00  0.00    +0.000 C 
BRANCH  20  21
ATOM     21  O5* UNL     1       1.819   2.302  22.195  0.00  0.00    +0.000 OA
ATOM     22  H5* UNL     1       2.697   1.873  22.149  0.00  0.00    +0.000 HD
ENDBRANCH  20  21
ENDBRANCH   3  20
TORSDOF 6
ENDMDL
MODEL 7
REMARK VINA RESULT:      -6.5      1.797      2.624
REMARK  Name = 
REMARK  7 active torsions:
REMARK  status: ('A' for Active; 'I' for Inactive)
REMARK    1  A    between atoms: C_1  and  C_2
REMARK    2  A    between atoms: C_2  and  C_3
REMARK    3  A    between atoms: N_5  and  C1*_6
REMARK    4  A    between atoms: C4*_8  and  C5*_9
REMARK    5  A    between atoms: C5*_9  and  O5*_10
REMARK    6  A    between atoms: C3*_11  and  O3*_12
REMARK    7  A    between atoms: C2*_13  and  O2*_14
REMARK                            x       y       z     vdW  Elec       q    Type
REMARK                         _______ _______ _______ _____ _____    ______ ____
ROOT
ATOM      1  C1* UNL     1       3.572   4.036  20.030  0.00  0.00    +0.000 C 
ATOM      2  O4* UNL     1       3.325   2.726  19.487  0.00  0.00    +0.000 OA
ATOM      3  C4* UNL     1       2.019   2.280  19.940  0.00  0.00    +0.000 C 
ATOM      4  C3* UNL     1       1.480   3.348  20.894  0.00  0.00    +0.000 C 
ATOM      5  C2* UNL     1       2.206   4.604  20.450  0.00  0.00    +0.000 C 
ENDROOT
BRANCH   1   8
ATOM      6  C   UNL     1       6.315   5.695  18.206  0.00  0.00    +0.000 A 
ATOM      7  C   UNL     1       5.584   5.173  19.190  0.00  0.00    +0.000 A 
ATOM      8  N   UNL     1       4.256   4.856  19.035  0.00  0.00    +0.000 N 
ATOM      9  C   UNL     1       3.599   5.116  17.848  0.00  0.00    +0.000 A 
ATOM     10  O   UNL     1       2.443   4.839  17.571  0.00  0.00    +0.000 OA
ATOM     11  C   UNL     1       4.387   5.800  16.805  0.00  0.00    +0.000 A 
ATOM     12  N   UNL     1       5.655   6.054  16.963  0.00  0.00    +0.000 N 
ATOM     13  O   UNL     1       6.260   6.629  15.997  0.00  0.00    +0.000 OA
BRANCH   6  15
ATOM     14  C   UNL     1       8.134   7.346  18.524  0.00  0.00    +0.000 C 
ATOM     15  C   UNL     1       7.797   5.886  18.239  0.00  0.00    +0.000 C 
ENDBRANCH   6  15
ENDBRANCH   1   8
BRANCH   4  16
ATOM     16  O3* UNL     1       1.829   3.081  22.264  0.00  0.00    +0.000 OA
ATOM     17  H3* UNL     1       1.610   3.858  22.812  0.00  0.00    +0.000 HD
ENDBRANCH   4  16
BRANCH   5  18
ATOM     18  O2* UNL     1       2.276   5.584  21.476  0.00  0.00    +0.000 OA
ATOM     19  H2* UNL     1       1.352   5.783  21.735  0.00  0.00    +0.000 HD
ENDBRANCH   5  18
BRANCH   3  20
ATOM     20  C5* UNL     1       1.149   2.084  18.697  0.00  0.00    +0.000 C 
BRANCH  20  21
ATOM     21  O5* UNL     1       1.975   1.920  17.546  0.00  0.00    +0.000 OA
ATOM     22  H5* UNL     1       2.010   2.789  17.100  0.00  0.00    +0.000 HD
ENDBRANCH  20  21
ENDBRANCH   3  20
TORSDOF 6
ENDMDL
MODEL 8
REMARK VINA RESULT:      -6.5      1.506      2.577
REMARK  Name = 
REMARK  7 active torsions:
REMARK  status: ('A' for Active; 'I' for Inactive)
REMARK    1  A    between atoms: C_1  and  C_2
REMARK    2  A    between atoms: C_2  and  C_3
REMARK    3  A    between atoms: N_5  and  C1*_6
REMARK    4  A    between atoms: C4*_8  and  C5*_9
REMARK    5  A    between atoms: C5*_9  and  O5*_10
REMARK    6  A    between atoms: C3*_11  and  O3*_12
REMARK    7  A    between atoms: C2*_13  and  O2*_14
REMARK                            x       y       z     vdW  Elec       q    Type
REMARK                         _______ _______ _______ _____ _____    ______ ____
ROOT
ATOM      1  C1* UNL     1       4.094   3.564  17.610  0.00  0.00    +0.000 C 
ATOM      2  O4* UNL     1       3.010   4.502  17.473  0.00  0.00    +0.000 OA
ATOM      3  C4* UNL     1       2.370   4.657  18.768  0.00  0.00    +0.000 C 
ATOM      4  C3* UNL     1       3.050   3.680  19.731  0.00  0.00    +0.000 C 
ATOM      5  C2* UNL     1       4.421   3.486  19.111  0.00  0.00    +0.000 C 
ENDROOT
BRANCH   1   8
ATOM      6  C   UNL     1       6.260   4.028  14.661  0.00  0.00    +0.000 A 
ATOM      7  C   UNL     1       5.408   3.490  15.534  0.00  0.00    +0.000 A 
ATOM      8  N   UNL     1       5.224   4.001  16.796  0.00  0.00    +0.000 N 
ATOM      9  C   UNL     1       5.961   5.081  17.240  0.00  0.00    +0.000 A 
ATOM     10  O   UNL     1       5.857   5.653  18.312  0.00  0.00    +0.000 OA
ATOM     11  C   UNL     1       6.983   5.596  16.308  0.00  0.00    +0.000 A 
ATOM     12  N   UNL     1       7.111   5.120  15.102  0.00  0.00    +0.000 N 
ATOM     13  O   UNL     1       8.008   5.644  14.359  0.00  0.00    +0.000 OA
BRANCH   6  15
ATOM     14  C   UNL     1       4.994   3.617  12.573  0.00  0.00    +0.000 C 
ATOM     15  C   UNL     1       6.374   3.649  13.221  0.00  0.00    +0.000 C 
ENDBRANCH   6  15
ENDBRANCH   1   8
BRANCH   4  16
ATOM     16  O3* UNL     1       2.384   2.405  19.773  0.00  0.00    +0.000 OA
ATOM     17  H3* UNL     1       1.945   2.241  18.917  0.00  0.00    +0.000 HD
ENDBRANCH   4  16
BRANCH   5  18
ATOM     18  O2* UNL     1       5.029   2.265  19.509  0.00  0.00    +0.000 OA
ATOM     19  H2* UNL     1       5.711   2.060  18.836  0.00  0.00    +0.000 HD
ENDBRANCH   5  18
BRANCH   3  20
ATOM     20  C5* UNL     1       2.527   6.121  19.181  0.00  0.00    +0.000 C 
BRANCH  20  21
ATOM     21  O5* UNL     1       2.628   6.218  20.600  0.00  0.00    +0.000 OA
ATOM     22  H5* UNL     1       2.675   5.303  20.942  0.00  0.00    +0.000 HD
ENDBRANCH  20  21
ENDBRANCH   3  20
TORSDOF 6
ENDMDL
MODEL 9
REMARK VINA RESULT:      -6.4      2.144      5.724
REMARK  Name = 
REMARK  7 active torsions:
REMARK  status: ('A' for Active; 'I' for Inactive)
REMARK    1  A    between atoms: C_1  and  C_2
REMARK    2  A    between atoms: C_2  and  C_3
REMARK    3  A    between atoms: N_5  and  C1*_6
REMARK    4  A    between atoms: C4*_8  and  C5*_9
REMARK    5  A    between atoms: C5*_9  and  O5*_10
REMARK    6  A    between atoms: C3*_11  and  O3*_12
REMARK    7  A    between atoms: C2*_13  and  O2*_14
REMARK                            x       y       z     vdW  Elec       q    Type
REMARK                         _______ _______ _______ _____ _____    ______ ____
ROOT
ATOM      1  C1* UNL     1       5.392   4.255  18.232  0.00  0.00    +0.000 C 
ATOM      2  O4* UNL     1       6.742   4.179  18.727  0.00  0.00    +0.000 OA
ATOM      3  C4* UNL     1       7.539   5.185  18.045  0.00  0.00    +0.000 C 
ATOM      4  C3* UNL     1       6.637   5.850  17.004  0.00  0.00    +0.000 C 
ATOM      5  C2* UNL     1       5.244   5.635  17.567  0.00  0.00    +0.000 C 
ENDROOT
BRANCH   1   8
ATOM      6  C   UNL     1       2.562   4.824  20.527  0.00  0.00    +0.000 A 
ATOM      7  C   UNL     1       3.595   5.041  19.714  0.00  0.00    +0.000 A 
ATOM      8  N   UNL     1       4.456   4.041  19.331  0.00  0.00    +0.000 N 
ATOM      9  C   UNL     1       4.316   2.758  19.821  0.00  0.00    +0.000 A 
ATOM     10  O   UNL     1       4.981   1.779  19.522  0.00  0.00    +0.000 OA
ATOM     11  C   UNL     1       3.241   2.554  20.811  0.00  0.00    +0.000 A 
ATOM     12  N   UNL     1       2.413   3.509  21.127  0.00  0.00    +0.000 N 
ATOM     13  O   UNL     1       1.500   3.233  21.976  0.00  0.00    +0.000 OA
BRANCH   6  15
ATOM     14  C   UNL     1       1.887   7.200  20.358  0.00  0.00    +0.000 C 
ATOM     15  C   UNL     1       1.481   5.809  20.833  0.00  0.00    +0.000 C 
ENDBRANCH   6  15
ENDBRANCH   1   8
BRANCH   4  16
ATOM     16  O3* UNL     1       6.714   5.202  15.722  0.00  0.00    +0.000 OA
ATOM     17  H3* UNL     1       7.517   5.502  15.255  0.00  0.00    +0.000 HD
ENDBRANCH   4  16
BRANCH   5  18
ATOM     18  O2* UNL     1       4.238   5.691  16.567  0.00  0.00    +0.000 OA
ATOM     19  H2* UNL     1       3.656   4.917  16.712  0.00  0.00    +0.000 HD
ENDBRANCH   5  18
BRANCH   3  20
ATOM     20  C5* UNL     1       8.053   6.156  19.110  0.00  0.00    +0.000 C 
BRANCH  20  21
ATOM     21  O5* UNL     1       7.970   5.552  20.400  0.00  0.00    +0.000 OA
ATOM     22  H5* UNL     1       8.117   4.594  20.271  0.00  0.00    +0.000 HD
ENDBRANCH  20  21
ENDBRANCH   3  20
TORSDOF 6
ENDMDL
