MODEL 1
REMARK VINA RESULT:      -5.7      0.000      0.000
REMARK  Name = 
REMARK  7 active torsions:
REMARK  status: ('A' for Active; 'I' for Inactive)
REMARK    1  A    between atoms: C_1  and  C_2
REMARK    2  A    between atoms: N_4  and  C_5
REMARK    3  A    between atoms: C_5  and  C_6
REMARK    4  A    between atoms: C_6  and  C_7
REMARK    5  A    between atoms: C_7  and  O_9
REMARK    6  A    between atoms: C_10  and  C_11
REMARK    7  A    between atoms: C_12  and  C_13
REMARK                            x       y       z     vdW  Elec       q    Type
REMARK                         _______ _______ _______ _____ _____    ______ ____
ROOT
ATOM      1  C   UNL     1       3.477   1.586  18.771  0.00  0.00    +0.000 C 
ATOM      2  C   UNL     1       3.878   3.011  18.695  0.00  0.00    +0.000 A 
ATOM      3  N   UNL     1       5.079   3.415  19.113  0.00  0.00    +0.000 NA
ATOM      4  N   UNL     1       5.083   4.753  18.901  0.00  0.00    +0.000 N 
ATOM      5  C   UNL     1       3.909   5.205  18.344  0.00  0.00    +0.000 A 
ATOM      6  C   UNL     1       3.582   6.612  17.995  0.00  0.00    +0.000 C 
ATOM      7  C   UNL     1       3.102   4.086  18.198  0.00  0.00    +0.000 A 
ATOM      8  C   UNL     1       1.727   4.014  17.648  0.00  0.00    +0.000 C 
ENDROOT
BRANCH   4   9
ATOM      9  C   UNL     1       6.293   5.482  19.255  0.00  0.00    +0.000 C 
BRANCH   9  10
ATOM     10  C   UNL     1       7.054   5.928  18.010  0.00  0.00    +0.000 C 
BRANCH  10  11
ATOM     11  C   UNL     1       7.467   4.762  17.151  0.00  0.00    +0.000 C 
ATOM     12  O   UNL     1       7.044   4.527  16.032  0.00  0.00    +0.000 OA
BRANCH  11  13
ATOM     13  O   UNL     1       8.372   3.969  17.769  0.00  0.00    +0.000 OA
ATOM     14  H   UNL     1       9.046   4.458  18.283  0.00  0.00    +0.000 HD
ENDBRANCH  11  13
ENDBRANCH  10  11
ENDBRANCH   9  10
ENDBRANCH   4   9
TORSDOF 4
ENDMDL
MODEL 2
REMARK VINA RESULT:      -5.7      1.967      2.202
REMARK  Name = 
REMARK  7 active torsions:
REMARK  status: ('A' for Active; 'I' for Inactive)
REMARK    1  A    between atoms: C_1  and  C_2
REMARK    2  A    between atoms: N_4  and  C_5
REMARK    3  A    between atoms: C_5  and  C_6
REMARK    4  A    between atoms: C_6  and  C_7
REMARK    5  A    between atoms: C_7  and  O_9
REMARK    6  A    between atoms: C_10  and  C_11
REMARK    7  A    between atoms: C_12  and  C_13
REMARK                            x       y       z     vdW  Elec       q    Type
REMARK                         _______ _______ _______ _____ _____    ______ ____
ROOT
ATOM      1  C   UNL     1       3.430   2.947  20.149  0.00  0.00    +0.000 C 
ATOM      2  C   UNL     1       4.265   3.496  19.053  0.00  0.00    +0.000 A 
ATOM      3  N   UNL     1       5.535   3.846  19.261  0.00  0.00    +0.000 NA
ATOM      4  N   UNL     1       5.965   4.302  18.060  0.00  0.00    +0.000 N 
ATOM      5  C   UNL     1       4.993   4.236  17.089  0.00  0.00    +0.000 A 
ATOM      6  C   UNL     1       5.131   4.663  15.672  0.00  0.00    +0.000 C 
ATOM      7  C   UNL     1       3.870   3.712  17.711  0.00  0.00    +0.000 A 
ATOM      8  C   UNL     1       2.539   3.435  17.117  0.00  0.00    +0.000 C 
ENDROOT
BRANCH   4   9
ATOM      9  C   UNL     1       7.348   4.751  17.972  0.00  0.00    +0.000 C 
BRANCH   9  10
ATOM     10  C   UNL     1       7.606   5.931  18.904  0.00  0.00    +0.000 C 
BRANCH  10  11
ATOM     11  C   UNL     1       7.897   7.198  18.146  0.00  0.00    +0.000 C 
ATOM     12  O   UNL     1       7.494   7.457  17.024  0.00  0.00    +0.000 OA
BRANCH  11  13
ATOM     13  O   UNL     1       8.685   8.044  18.848  0.00  0.00    +0.000 OA
ATOM     14  H   UNL     1       8.361   8.231  19.753  0.00  0.00    +0.000 HD
ENDBRANCH  11  13
ENDBRANCH  10  11
ENDBRANCH   9  10
ENDBRANCH   4   9
TORSDOF 4
ENDMDL
MODEL 3
REMARK VINA RESULT:      -5.7      1.096      1.392
REMARK  Name = 
REMARK  7 active torsions:
REMARK  status: ('A' for Active; 'I' for Inactive)
REMARK    1  A    between atoms: C_1  and  C_2
REMARK    2  A    between atoms: N_4  and  C_5
REMARK    3  A    between atoms: C_5  and  C_6
REMARK    4  A    between atoms: C_6  and  C_7
REMARK    5  A    between atoms: C_7  and  O_9
REMARK    6  A    between atoms: C_10  and  C_11
REMARK    7  A    between atoms: C_12  and  C_13
REMARK                            x       y       z     vdW  Elec       q    Type
REMARK                         _______ _______ _______ _____ _____    ______ ____
ROOT
ATOM      1  C   UNL     1       3.500   1.719  18.790  0.00  0.00    +0.000 C 
ATOM      2  C   UNL     1       3.933   3.133  18.687  0.00  0.00    +0.000 A 
ATOM      3  N   UNL     1       5.143   3.518  19.097  0.00  0.00    +0.000 NA
ATOM      4  N   UNL     1       5.176   4.851  18.859  0.00  0.00    +0.000 N 
ATOM      5  C   UNL     1       4.012   5.318  18.294  0.00  0.00    +0.000 A 
ATOM      6  C   UNL     1       3.716   6.726  17.917  0.00  0.00    +0.000 C 
ATOM      7  C   UNL     1       3.181   4.215  18.169  0.00  0.00    +0.000 A 
ATOM      8  C   UNL     1       1.804   4.163  17.621  0.00  0.00    +0.000 C 
ENDROOT
BRANCH   4   9
ATOM      9  C   UNL     1       6.402   5.560  19.198  0.00  0.00    +0.000 C 
BRANCH   9  10
ATOM     10  C   UNL     1       7.447   5.418  18.096  0.00  0.00    +0.000 C 
BRANCH  10  11
ATOM     11  C   UNL     1       7.304   6.483  17.041  0.00  0.00    +0.000 C 
ATOM     12  O   UNL     1       7.590   7.660  17.185  0.00  0.00    +0.000 OA
BRANCH  11  13
ATOM     13  O   UNL     1       6.800   5.992  15.886  0.00  0.00    +0.000 OA
ATOM     14  H   UNL     1       6.398   5.104  15.972  0.00  0.00    +0.000 HD
ENDBRANCH  11  13
ENDBRANCH  10  11
ENDBRANCH   9  10
ENDBRANCH   4   9
TORSDOF 4
ENDMDL
MODEL 4
REMARK VINA RESULT:      -5.7      1.342      1.472
REMARK  Name = 
REMARK  7 active torsions:
REMARK  status: ('A' for Active; 'I' for Inactive)
REMARK    1  A    between atoms: C_1  and  C_2
REMARK    2  A    between atoms: N_4  and  C_5
REMARK    3  A    between atoms: C_5  and  C_6
REMARK    4  A    between atoms: C_6  and  C_7
REMARK    5  A    between atoms: C_7  and  O_9
REMARK    6  A    between atoms: C_10  and  C_11
REMARK    7  A    between atoms: C_12  and  C_13
REMARK                            x       y       z     vdW  Elec       q    Type
REMARK                         _______ _______ _______ _____ _____    ______ ____
ROOT
ATOM      1  C   UNL     1       3.337   1.589  18.363  0.00  0.00    +0.000 C 
ATOM      2  C   UNL     1       3.392   3.046  18.090  0.00  0.00    +0.000 A 
ATOM      3  N   UNL     1       4.330   3.566  17.298  0.00  0.00    +0.000 NA
ATOM      4  N   UNL     1       4.073   4.896  17.292  0.00  0.00    +0.000 N 
ATOM      5  C   UNL     1       2.980   5.229  18.057  0.00  0.00    +0.000 A 
ATOM      6  C   UNL     1       2.435   6.595  18.272  0.00  0.00    +0.000 C 
ATOM      7  C   UNL     1       2.513   4.037  18.591  0.00  0.00    +0.000 A 
ATOM      8  C   UNL     1       1.354   3.828  19.492  0.00  0.00    +0.000 C 
ENDROOT
BRANCH   4   9
ATOM      9  C   UNL     1       4.943   5.741  16.485  0.00  0.00    +0.000 C 
BRANCH   9  10
ATOM     10  C   UNL     1       6.244   6.055  17.218  0.00  0.00    +0.000 C 
BRANCH  10  11
ATOM     11  C   UNL     1       7.202   4.894  17.192  0.00  0.00    +0.000 C 
ATOM     12  O   UNL     1       7.887   4.566  16.238  0.00  0.00    +0.000 OA
BRANCH  11  13
ATOM     13  O   UNL     1       7.221   4.222  18.366  0.00  0.00    +0.000 OA
ATOM     14  H   UNL     1       6.335   4.072  18.754  0.00  0.00    +0.000 HD
ENDBRANCH  11  13
ENDBRANCH  10  11
ENDBRANCH   9  10
ENDBRANCH   4   9
TORSDOF 4
ENDMDL
MODEL 5
REMARK VINA RESULT:      -5.6      1.846      2.034
REMARK  Name = 
REMARK  7 active torsions:
REMARK  status: ('A' for Active; 'I' for Inactive)
REMARK    1  A    between atoms: C_1  and  C_2
REMARK    2  A    between atoms: N_4  and  C_5
REMARK    3  A    between atoms: C_5  and  C_6
REMARK    4  A    between atoms: C_6  and  C_7
REMARK    5  A    between atoms: C_7  and  O_9
REMARK    6  A    between atoms: C_10  and  C_11
REMARK    7  A    between atoms: C_12  and  C_13
REMARK                            x       y       z     vdW  Elec       q    Type
REMARK                         _______ _______ _______ _____ _____    ______ ____
ROOT
ATOM      1  C   UNL     1       3.336   1.831  18.270  0.00  0.00    +0.000 C 
ATOM      2  C   UNL     1       3.492   3.287  18.039  0.00  0.00    +0.000 A 
ATOM      3  N   UNL     1       4.543   3.773  17.377  0.00  0.00    +0.000 NA
ATOM      4  N   UNL     1       4.352   5.114  17.370  0.00  0.00    +0.000 N 
ATOM      5  C   UNL     1       3.192   5.488  18.007  0.00  0.00    +0.000 A 
ATOM      6  C   UNL     1       2.691   6.877  18.187  0.00  0.00    +0.000 C 
ATOM      7  C   UNL     1       2.608   4.312  18.454  0.00  0.00    +0.000 A 
ATOM      8  C   UNL     1       1.341   4.147  19.206  0.00  0.00    +0.000 C 
ENDROOT
BRANCH   4   9
ATOM      9  C   UNL     1       5.352   5.928  16.692  0.00  0.00    +0.000 C 
BRANCH   9  10
ATOM     10  C   UNL     1       5.386   5.630  15.196  0.00  0.00    +0.000 C 
BRANCH  10  11
ATOM     11  C   UNL     1       6.605   4.838  14.805  0.00  0.00    +0.000 C 
ATOM     12  O   UNL     1       7.720   5.300  14.628  0.00  0.00    +0.000 OA
BRANCH  11  13
ATOM     13  O   UNL     1       6.330   3.522  14.652  0.00  0.00    +0.000 OA
ATOM     14  H   UNL     1       6.741   3.119  13.861  0.00  0.00    +0.000 HD
ENDBRANCH  11  13
ENDBRANCH  10  11
ENDBRANCH   9  10
ENDBRANCH   4   9
TORSDOF 4
ENDMDL
MODEL 6
REMARK VINA RESULT:      -5.5      1.411      1.456
REMARK  Name = 
REMARK  7 active torsions:
REMARK  status: ('A' for Active; 'I' for Inactive)
REMARK    1  A    between atoms: C_1  and  C_2
REMARK    2  A    between atoms: N_4  and  C_5
REMARK    3  A    between atoms: C_5  and  C_6
REMARK    4  A    between atoms: C_6  and  C_7
REMARK    5  A    between atoms: C_7  and  O_9
REMARK    6  A    between atoms: C_10  and  C_11
REMARK    7  A    between atoms: C_12  and  C_13
REMARK                            x       y       z     vdW  Elec       q    Type
REMARK                         _______ _______ _______ _____ _____    ______ ____
ROOT
ATOM      1  C   UNL     1       4.550   1.965  20.337  0.00  0.00    +0.000 C 
ATOM      2  C   UNL     1       4.326   3.243  19.620  0.00  0.00    +0.000 A 
ATOM      3  N   UNL     1       5.337   3.904  19.053  0.00  0.00    +0.000 NA
ATOM      4  N   UNL     1       4.764   5.005  18.512  0.00  0.00    +0.000 N 
ATOM      5  C   UNL     1       3.404   5.050  18.714  0.00  0.00    +0.000 A 
ATOM      6  C   UNL     1       2.478   6.121  18.261  0.00  0.00    +0.000 C 
ATOM      7  C   UNL     1       3.090   3.909  19.437  0.00  0.00    +0.000 A 
ATOM      8  C   UNL     1       1.759   3.469  19.922  0.00  0.00    +0.000 C 
ENDROOT
BRANCH   4   9
ATOM      9  C   UNL     1       5.635   5.930  17.799  0.00  0.00    +0.000 C 
BRANCH   9  10
ATOM     10  C   UNL     1       5.702   5.592  16.313  0.00  0.00    +0.000 C 
BRANCH  10  11
ATOM     11  C   UNL     1       7.053   5.063  15.913  0.00  0.00    +0.000 C 
ATOM     12  O   UNL     1       7.597   5.257  14.839  0.00  0.00    +0.000 OA
BRANCH  11  13
ATOM     13  O   UNL     1       7.618   4.317  16.890  0.00  0.00    +0.000 OA
ATOM     14  H   UNL     1       7.393   4.611  17.796  0.00  0.00    +0.000 HD
ENDBRANCH  11  13
ENDBRANCH  10  11
ENDBRANCH   9  10
ENDBRANCH   4   9
TORSDOF 4
ENDMDL
MODEL 7
REMARK VINA RESULT:      -5.5      3.571      5.108
REMARK  Name = 
REMARK  7 active torsions:
REMARK  status: ('A' for Active; 'I' for Inactive)
REMARK    1  A    between atoms: C_1  and  C_2
REMARK    2  A    between atoms: N_4  and  C_5
REMARK    3  A    between atoms: C_5  and  C_6
REMARK    4  A    between atoms: C_6  and  C_7
REMARK    5  A    between atoms: C_7  and  O_9
REMARK    6  A    between atoms: C_10  and  C_11
REMARK    7  A    between atoms: C_12  and  C_13
REMARK                            x       y       z     vdW  Elec       q    Type
REMARK                         _______ _______ _______ _____ _____    ______ ____
ROOT
ATOM      1  C   UNL     1       4.463   6.874  17.120  0.00  0.00    +0.000 C 
ATOM      2  C   UNL     1       3.812   5.608  17.538  0.00  0.00    +0.000 A 
ATOM      3  N   UNL     1       2.763   5.609  18.361  0.00  0.00    +0.000 NA
ATOM      4  N   UNL     1       2.453   4.300  18.520  0.00  0.00    +0.000 N 
ATOM      5  C   UNL     1       3.280   3.467  17.802  0.00  0.00    +0.000 A 
ATOM      6  C   UNL     1       3.219   1.983  17.761  0.00  0.00    +0.000 C 
ATOM      7  C   UNL     1       4.179   4.297  17.149  0.00  0.00    +0.000 A 
ATOM      8  C   UNL     1       5.289   3.913  16.243  0.00  0.00    +0.000 C 
ENDROOT
BRANCH   4   9
ATOM      9  C   UNL     1       1.316   3.982  19.373  0.00  0.00    +0.000 C 
BRANCH   9  10
ATOM     10  C   UNL     1       1.635   4.245  20.841  0.00  0.00    +0.000 C 
BRANCH  10  11
ATOM     11  C   UNL     1       1.984   2.980  21.579  0.00  0.00    +0.000 C 
ATOM     12  O   UNL     1       1.266   2.414  22.386  0.00  0.00    +0.000 OA
BRANCH  11  13
ATOM     13  O   UNL     1       3.217   2.525  21.259  0.00  0.00    +0.000 OA
ATOM     14  H   UNL     1       3.593   1.900  21.911  0.00  0.00    +0.000 HD
ENDBRANCH  11  13
ENDBRANCH  10  11
ENDBRANCH   9  10
ENDBRANCH   4   9
TORSDOF 4
ENDMDL
MODEL 8
REMARK VINA RESULT:      -5.5      3.656      5.030
REMARK  Name = 
REMARK  7 active torsions:
REMARK  status: ('A' for Active; 'I' for Inactive)
REMARK    1  A    between atoms: C_1  and  C_2
REMARK    2  A    between atoms: N_4  and  C_5
REMARK    3  A    between atoms: C_5  and  C_6
REMARK    4  A    between atoms: C_6  and  C_7
REMARK    5  A    between atoms: C_7  and  O_9
REMARK    6  A    between atoms: C_10  and  C_11
REMARK    7  A    between atoms: C_12  and  C_13
REMARK                            x       y       z     vdW  Elec       q    Type
REMARK                         _______ _______ _______ _____ _____    ______ ____
ROOT
ATOM      1  C   UNL     1       7.198   5.684  18.045  0.00  0.00    +0.000 C 
ATOM      2  C   UNL     1       5.830   5.126  18.166  0.00  0.00    +0.000 A 
ATOM      3  N   UNL     1       5.132   5.244  19.296  0.00  0.00    +0.000 NA
ATOM      4  N   UNL     1       3.958   4.619  19.039  0.00  0.00    +0.000 N 
ATOM      5  C   UNL     1       3.893   4.115  17.760  0.00  0.00    +0.000 A 
ATOM      6  C   UNL     1       2.755   3.369  17.162  0.00  0.00    +0.000 C 
ATOM      7  C   UNL     1       5.105   4.433  17.166  0.00  0.00    +0.000 A 
ATOM      8  C   UNL     1       5.559   4.121  15.789  0.00  0.00    +0.000 C 
ENDROOT
BRANCH   4   9
ATOM      9  C   UNL     1       2.965   4.597  20.105  0.00  0.00    +0.000 C 
BRANCH   9  10
ATOM     10  C   UNL     1       2.892   3.224  20.764  0.00  0.00    +0.000 C 
BRANCH  10  11
ATOM     11  C   UNL     1       1.519   2.929  21.306  0.00  0.00    +0.000 C 
ATOM     12  O   UNL     1       1.282   2.354  22.355  0.00  0.00    +0.000 OA
BRANCH  11  13
ATOM     13  O   UNL     1       0.540   3.369  20.481  0.00  0.00    +0.000 OA
ATOM     14  H   UNL     1      -0.094   3.981  20.907  0.00  0.00    +0.000 HD
ENDBRANCH  11  13
ENDBRANCH  10  11
ENDBRANCH   9  10
ENDBRANCH   4   9
TORSDOF 4
ENDMDL
MODEL 9
REMARK VINA RESULT:      -5.4      1.721      2.894
REMARK  Name = 
REMARK  7 active torsions:
REMARK  status: ('A' for Active; 'I' for Inactive)
REMARK    1  A    between atoms: C_1  and  C_2
REMARK    2  A    between atoms: N_4  and  C_5
REMARK    3  A    between atoms: C_5  and  C_6
REMARK    4  A    between atoms: C_6  and  C_7
REMARK    5  A    between atoms: C_7  and  O_9
REMARK    6  A    between atoms: C_10  and  C_11
REMARK    7  A    between atoms: C_12  and  C_13
REMARK                            x       y       z     vdW  Elec       q    Type
REMARK                         _______ _______ _______ _____ _____    ______ ____
ROOT
ATOM      1  C   UNL     1       2.071   6.186  20.160  0.00  0.00    +0.000 C 
ATOM      2  C   UNL     1       2.689   5.086  19.380  0.00  0.00    +0.000 A 
ATOM      3  N   UNL     1       3.538   5.337  18.382  0.00  0.00    +0.000 NA
ATOM      4  N   UNL     1       3.881   4.116  17.910  0.00  0.00    +0.000 N 
ATOM      5  C   UNL     1       3.273   3.091  18.597  0.00  0.00    +0.000 A 
ATOM      6  C   UNL     1       3.425   1.636  18.330  0.00  0.00    +0.000 C 
ATOM      7  C   UNL     1       2.488   3.697  19.566  0.00  0.00    +0.000 A 
ATOM      8  C   UNL     1       1.620   3.049  20.579  0.00  0.00    +0.000 C 
ENDROOT
BRANCH   4   9
ATOM      9  C   UNL     1       4.827   4.069  16.803  0.00  0.00    +0.000 C 
BRANCH   9  10
ATOM     10  C   UNL     1       5.733   5.296  16.798  0.00  0.00    +0.000 C 
BRANCH  10  11
ATOM     11  C   UNL     1       7.136   4.960  16.369  0.00  0.00    +0.000 C 
ATOM     12  O   UNL     1       7.949   4.342  17.036  0.00  0.00    +0.000 OA
BRANCH  11  13
ATOM     13  O   UNL     1       7.421   5.438  15.136  0.00  0.00    +0.000 OA
ATOM     14  H   UNL     1       7.036   6.318  14.951  0.00  0.00    +0.000 HD
ENDBRANCH  11  13
ENDBRANCH  10  11
ENDBRANCH   9  10
ENDBRANCH   4   9
TORSDOF 4
ENDMDL
