MODEL 1
REMARK VINA RESULT:      -7.8      0.000      0.000
REMARK  Name = 
REMARK  9 active torsions:
REMARK  status: ('A' for Active; 'I' for Inactive)
REMARK    1  A    between atoms: C_1  and  C_2
REMARK    2  A    between atoms: C_2  and  C_3
REMARK    3  A    between atoms: C_3  and  C_4
REMARK    4  A    between atoms: C_4  and  C_5
REMARK    5  A    between atoms: C_5  and  C_6
REMARK    6  A    between atoms: C_6  and  C_7
REMARK    7  A    between atoms: C_10  and  O_11
REMARK    8  A    between atoms: O_11  and  C_12
REMARK    9  A    between atoms: C_19  and  O_20
REMARK                            x       y       z     vdW  Elec       q    Type
REMARK                         _______ _______ _______ _____ _____    ______ ____
ROOT
ATOM      1  C   UNL     1       6.228   5.026  15.973  0.00  0.00    +0.000 A 
ATOM      2  C   UNL     1       4.873   5.333  16.120  0.00  0.00    +0.000 A 
ATOM      3  C   UNL     1       4.321   5.526  17.379  0.00  0.00    +0.000 A 
ATOM      4  C   UNL     1       5.101   5.331  18.531  0.00  0.00    +0.000 A 
ATOM      5  C   UNL     1       6.459   5.070  18.383  0.00  0.00    +0.000 A 
ATOM      6  C   UNL     1       7.029   4.925  17.121  0.00  0.00    +0.000 A 
ENDROOT
BRANCH   5   7
ATOM      7  O   UNL     1       7.280   4.925  19.472  0.00  0.00    +0.000 OA
ATOM      8  H   UNL     1       8.137   4.620  19.126  0.00  0.00    +0.000 HD
ENDBRANCH   5   7
BRANCH   1   9
ATOM      9  C   UNL     1       6.799   4.783  14.603  0.00  0.00    +0.000 C 
BRANCH   9  10
ATOM     10  C   UNL     1       5.846   3.941  13.751  0.00  0.00    +0.000 C 
BRANCH  10  11
ATOM     11  C   UNL     1       6.502   3.501  12.447  0.00  0.00    +0.000 C 
BRANCH  11  12
ATOM     12  C   UNL     1       5.496   2.783  11.547  0.00  0.00    +0.000 C 
BRANCH  12  14
ATOM     13  C   UNL     1       3.308   3.139  10.353  0.00  0.00    +0.000 C 
ATOM     14  C   UNL     1       4.132   3.471  11.586  0.00  0.00    +0.000 C 
ENDBRANCH  12  14
ENDBRANCH  11  12
ENDBRANCH  10  11
ENDBRANCH   9  10
ENDBRANCH   1   9
BRANCH   4  15
ATOM     15  O   UNL     1       4.585   5.371  19.816  0.00  0.00    +0.000 OA
BRANCH  15  16
ATOM     16  C   UNL     1       3.401   4.700  20.057  0.00  0.00    +0.000 A 
ATOM     17  C   UNL     1       2.209   5.420  20.217  0.00  0.00    +0.000 A 
ATOM     18  C   UNL     1       1.018   4.798  20.449  0.00  0.00    +0.000 A 
ATOM     19  C   UNL     1       0.965   3.399  20.471  0.00  0.00    +0.000 A 
ATOM     20  C   UNL     1       2.124   2.657  20.289  0.00  0.00    +0.000 A 
ATOM     21  C   UNL     1       3.352   3.294  20.109  0.00  0.00    +0.000 A 
ATOM     22 CL   UNL     1       4.767   2.319  19.994  0.00  0.00    +0.000 Cl
ENDBRANCH  15  16
ENDBRANCH   4  15
TORSDOF 8
ENDMDL
MODEL 2
REMARK VINA RESULT:      -7.7      1.456      1.943
REMARK  Name = 
REMARK  9 active torsions:
REMARK  status: ('A' for Active; 'I' for Inactive)
REMARK    1  A    between atoms: C_1  and  C_2
REMARK    2  A    between atoms: C_2  and  C_3
REMARK    3  A    between atoms: C_3  and  C_4
REMARK    4  A    between atoms: C_4  and  C_5
REMARK    5  A    between atoms: C_5  and  C_6
REMARK    6  A    between atoms: C_6  and  C_7
REMARK    7  A    between atoms: C_10  and  O_11
REMARK    8  A    between atoms: O_11  and  C_12
REMARK    9  A    between atoms: C_19  and  O_20
REMARK                            x       y       z     vdW  Elec       q    Type
REMARK                         _______ _______ _______ _____ _____    ______ ____
ROOT
ATOM      1  C   UNL     1       6.290   4.928  14.875  0.00  0.00    +0.000 A 
ATOM      2  C   UNL     1       5.152   5.673  15.191  0.00  0.00    +0.000 A 
ATOM      3  C   UNL     1       4.841   5.970  16.510  0.00  0.00    +0.000 A 
ATOM      4  C   UNL     1       5.625   5.454  17.555  0.00  0.00    +0.000 A 
ATOM      5  C   UNL     1       6.782   4.750  17.239  0.00  0.00    +0.000 A 
ATOM      6  C   UNL     1       7.126   4.492  15.916  0.00  0.00    +0.000 A 
ENDROOT
BRANCH   5   7
ATOM      7  O   UNL     1       7.614   4.270  18.218  0.00  0.00    +0.000 OA
ATOM      8  H   UNL     1       8.346   3.826  17.756  0.00  0.00    +0.000 HD
ENDBRANCH   5   7
BRANCH   1   9
ATOM      9  C   UNL     1       6.590   4.583  13.441  0.00  0.00    +0.000 C 
BRANCH   9  10
ATOM     10  C   UNL     1       6.356   3.094  13.174  0.00  0.00    +0.000 C 
BRANCH  10  11
ATOM     11  C   UNL     1       5.677   2.868  11.828  0.00  0.00    +0.000 C 
BRANCH  11  12
ATOM     12  C   UNL     1       4.384   3.678  11.728  0.00  0.00    +0.000 C 
BRANCH  12  14
ATOM     13  C   UNL     1       3.045   4.216   9.665  0.00  0.00    +0.000 C 
ATOM     14  C   UNL     1       3.470   3.127  10.635  0.00  0.00    +0.000 C 
ENDBRANCH  12  14
ENDBRANCH  11  12
ENDBRANCH  10  11
ENDBRANCH   9  10
ENDBRANCH   1   9
BRANCH   4  15
ATOM     15  O   UNL     1       5.297   5.594  18.895  0.00  0.00    +0.000 OA
BRANCH  15  16
ATOM     16  C   UNL     1       4.228   4.863  19.377  0.00  0.00    +0.000 A 
ATOM     17  C   UNL     1       4.378   3.493  19.637  0.00  0.00    +0.000 A 
ATOM     18  C   UNL     1       3.352   2.735  20.119  0.00  0.00    +0.000 A 
ATOM     19  C   UNL     1       2.129   3.346  20.421  0.00  0.00    +0.000 A 
ATOM     20  C   UNL     1       1.957   4.705  20.200  0.00  0.00    +0.000 A 
ATOM     21  C   UNL     1       2.988   5.470  19.652  0.00  0.00    +0.000 A 
ATOM     22 CL   UNL     1       2.677   7.127  19.305  0.00  0.00    +0.000 Cl
ENDBRANCH  15  16
ENDBRANCH   4  15
TORSDOF 8
ENDMDL
MODEL 3
REMARK VINA RESULT:      -7.7      1.037      1.128
REMARK  Name = 
REMARK  9 active torsions:
REMARK  status: ('A' for Active; 'I' for Inactive)
REMARK    1  A    between atoms: C_1  and  C_2
REMARK    2  A    between atoms: C_2  and  C_3
REMARK    3  A    between atoms: C_3  and  C_4
REMARK    4  A    between atoms: C_4  and  C_5
REMARK    5  A    between atoms: C_5  and  C_6
REMARK    6  A    between atoms: C_6  and  C_7
REMARK    7  A    between atoms: C_10  and  O_11
REMARK    8  A    between atoms: O_11  and  C_12
REMARK    9  A    between atoms: C_19  and  O_20
REMARK                            x       y       z     vdW  Elec       q    Type
REMARK                         _______ _______ _______ _____ _____    ______ ____
ROOT
ATOM      1  C   UNL     1       6.310   4.566  15.409  0.00  0.00    +0.000 A 
ATOM      2  C   UNL     1       4.976   4.246  15.671  0.00  0.00    +0.000 A 
ATOM      3  C   UNL     1       4.526   4.089  16.975  0.00  0.00    +0.000 A 
ATOM      4  C   UNL     1       5.427   4.167  18.049  0.00  0.00    +0.000 A 
ATOM      5  C   UNL     1       6.745   4.529  17.791  0.00  0.00    +0.000 A 
ATOM      6  C   UNL     1       7.191   4.738  16.489  0.00  0.00    +0.000 A 
ENDROOT
BRANCH   5   7
ATOM      7  O   UNL     1       7.656   4.674  18.806  0.00  0.00    +0.000 OA
ATOM      8  H   UNL     1       7.356   5.435  19.332  0.00  0.00    +0.000 HD
ENDBRANCH   5   7
BRANCH   1   9
ATOM      9  C   UNL     1       6.788   4.694  13.989  0.00  0.00    +0.000 C 
BRANCH   9  10
ATOM     10  C   UNL     1       6.321   3.508  13.142  0.00  0.00    +0.000 C 
BRANCH  10  11
ATOM     11  C   UNL     1       4.901   3.714  12.627  0.00  0.00    +0.000 C 
BRANCH  11  12
ATOM     12  C   UNL     1       4.778   3.257  11.173  0.00  0.00    +0.000 C 
BRANCH  12  14
ATOM     13  C   UNL     1       3.008   4.128   9.609  0.00  0.00    +0.000 C 
ATOM     14  C   UNL     1       3.315   3.166  10.745  0.00  0.00    +0.000 C 
ENDBRANCH  12  14
ENDBRANCH  11  12
ENDBRANCH  10  11
ENDBRANCH   9  10
ENDBRANCH   1   9
BRANCH   4  15
ATOM     15  O   UNL     1       5.077   3.886  19.360  0.00  0.00    +0.000 OA
BRANCH  15  16
ATOM     16  C   UNL     1       3.732   3.789  19.661  0.00  0.00    +0.000 A 
ATOM     17  C   UNL     1       3.064   4.878  20.241  0.00  0.00    +0.000 A 
ATOM     18  C   UNL     1       1.737   4.828  20.548  0.00  0.00    +0.000 A 
ATOM     19  C   UNL     1       0.999   3.683  20.225  0.00  0.00    +0.000 A 
ATOM     20  C   UNL     1       1.625   2.598  19.627  0.00  0.00    +0.000 A 
ATOM     21  C   UNL     1       2.995   2.626  19.365  0.00  0.00    +0.000 A 
ATOM     22 CL   UNL     1       3.730   1.210  18.718  0.00  0.00    +0.000 Cl
ENDBRANCH  15  16
ENDBRANCH   4  15
TORSDOF 8
ENDMDL
MODEL 4
REMARK VINA RESULT:      -7.6      1.517      2.071
REMARK  Name = 
REMARK  9 active torsions:
REMARK  status: ('A' for Active; 'I' for Inactive)
REMARK    1  A    between atoms: C_1  and  C_2
REMARK    2  A    between atoms: C_2  and  C_3
REMARK    3  A    between atoms: C_3  and  C_4
REMARK    4  A    between atoms: C_4  and  C_5
REMARK    5  A    between atoms: C_5  and  C_6
REMARK    6  A    between atoms: C_6  and  C_7
REMARK    7  A    between atoms: C_10  and  O_11
REMARK    8  A    between atoms: O_11  and  C_12
REMARK    9  A    between atoms: C_19  and  O_20
REMARK                            x       y       z     vdW  Elec       q    Type
REMARK                         _______ _______ _______ _____ _____    ______ ____
ROOT
ATOM      1  C   UNL     1       6.194   4.736  15.661  0.00  0.00    +0.000 A 
ATOM      2  C   UNL     1       4.855   4.437  15.927  0.00  0.00    +0.000 A 
ATOM      3  C   UNL     1       4.318   4.646  17.189  0.00  0.00    +0.000 A 
ATOM      4  C   UNL     1       5.136   5.083  18.243  0.00  0.00    +0.000 A 
ATOM      5  C   UNL     1       6.457   5.423  17.969  0.00  0.00    +0.000 A 
ATOM      6  C   UNL     1       6.988   5.263  16.692  0.00  0.00    +0.000 A 
ENDROOT
BRANCH   5   7
ATOM      7  O   UNL     1       7.287   5.907  18.947  0.00  0.00    +0.000 OA
ATOM      8  H   UNL     1       6.717   6.114  19.707  0.00  0.00    +0.000 HD
ENDBRANCH   5   7
BRANCH   1   9
ATOM      9  C   UNL     1       6.768   4.467  14.297  0.00  0.00    +0.000 C 
BRANCH   9  10
ATOM     10  C   UNL     1       5.747   3.765  13.399  0.00  0.00    +0.000 C 
BRANCH  10  11
ATOM     11  C   UNL     1       6.371   3.327  12.079  0.00  0.00    +0.000 C 
BRANCH  11  12
ATOM     12  C   UNL     1       5.628   2.124  11.499  0.00  0.00    +0.000 C 
BRANCH  12  14
ATOM     13  C   UNL     1       6.096  -0.345  11.339  0.00  0.00    +0.000 C 
ATOM     14  C   UNL     1       6.604   1.051  11.018  0.00  0.00    +0.000 C 
ENDBRANCH  12  14
ENDBRANCH  11  12
ENDBRANCH  10  11
ENDBRANCH   9  10
ENDBRANCH   1   9
BRANCH   4  15
ATOM     15  O   UNL     1       4.701   5.181  19.556  0.00  0.00    +0.000 OA
BRANCH  15  16
ATOM     16  C   UNL     1       3.508   4.568  19.887  0.00  0.00    +0.000 A 
ATOM     17  C   UNL     1       3.470   3.183  20.104  0.00  0.00    +0.000 A 
ATOM     18  C   UNL     1       2.316   2.539  20.440  0.00  0.00    +0.000 A 
ATOM     19  C   UNL     1       1.144   3.282  20.631  0.00  0.00    +0.000 A 
ATOM     20  C   UNL     1       1.155   4.657  20.448  0.00  0.00    +0.000 A 
ATOM     21  C   UNL     1       2.322   5.310  20.050  0.00  0.00    +0.000 A 
ATOM     22 CL   UNL     1       2.244   7.001  19.739  0.00  0.00    +0.000 Cl
ENDBRANCH  15  16
ENDBRANCH   4  15
TORSDOF 8
ENDMDL
MODEL 5
REMARK VINA RESULT:      -7.5      1.337      1.723
REMARK  Name = 
REMARK  9 active torsions:
REMARK  status: ('A' for Active; 'I' for Inactive)
REMARK    1  A    between atoms: C_1  and  C_2
REMARK    2  A    between atoms: C_2  and  C_3
REMARK    3  A    between atoms: C_3  and  C_4
REMARK    4  A    between atoms: C_4  and  C_5
REMARK    5  A    between atoms: C_5  and  C_6
REMARK    6  A    between atoms: C_6  and  C_7
REMARK    7  A    between atoms: C_10  and  O_11
REMARK    8  A    between atoms: O_11  and  C_12
REMARK    9  A    between atoms: C_19  and  O_20
REMARK                            x       y       z     vdW  Elec       q    Type
REMARK                         _______ _______ _______ _____ _____    ______ ____
ROOT
ATOM      1  C   UNL     1       6.478   5.218  16.192  0.00  0.00    +0.000 A 
ATOM      2  C   UNL     1       5.147   5.633  16.104  0.00  0.00    +0.000 A 
ATOM      3  C   UNL     1       4.397   5.862  17.249  0.00  0.00    +0.000 A 
ATOM      4  C   UNL     1       4.941   5.598  18.516  0.00  0.00    +0.000 A 
ATOM      5  C   UNL     1       6.279   5.227  18.606  0.00  0.00    +0.000 A 
ATOM      6  C   UNL     1       7.051   5.045  17.462  0.00  0.00    +0.000 A 
ENDROOT
BRANCH   5   7
ATOM      7  O   UNL     1       6.879   5.009  19.819  0.00  0.00    +0.000 OA
ATOM      8  H   UNL     1       6.504   5.667  20.429  0.00  0.00    +0.000 HD
ENDBRANCH   5   7
BRANCH   1   9
ATOM      9  C   UNL     1       7.263   4.938  14.940  0.00  0.00    +0.000 C 
BRANCH   9  10
ATOM     10  C   UNL     1       6.415   4.176  13.918  0.00  0.00    +0.000 C 
BRANCH  10  11
ATOM     11  C   UNL     1       6.974   4.323  12.508  0.00  0.00    +0.000 C 
BRANCH  11  12
ATOM     12  C   UNL     1       6.603   3.115  11.647  0.00  0.00    +0.000 C 
BRANCH  12  14
ATOM     13  C   UNL     1       4.160   3.355  11.088  0.00  0.00    +0.000 C 
ATOM     14  C   UNL     1       5.185   2.635  11.950  0.00  0.00    +0.000 C 
ENDBRANCH  12  14
ENDBRANCH  11  12
ENDBRANCH  10  11
ENDBRANCH   9  10
ENDBRANCH   1   9
BRANCH   4  15
ATOM     15  O   UNL     1       4.209   5.671  19.691  0.00  0.00    +0.000 OA
BRANCH  15  16
ATOM     16  C   UNL     1       3.179   4.767  19.866  0.00  0.00    +0.000 A 
ATOM     17  C   UNL     1       3.386   3.408  19.590  0.00  0.00    +0.000 A 
ATOM     18  C   UNL     1       2.398   2.482  19.755  0.00  0.00    +0.000 A 
ATOM     19  C   UNL     1       1.159   2.882  20.269  0.00  0.00    +0.000 A 
ATOM     20  C   UNL     1       0.931   4.215  20.576  0.00  0.00    +0.000 A 
ATOM     21  C   UNL     1       1.922   5.173  20.354  0.00  0.00    +0.000 A 
ATOM     22 CL   UNL     1       1.541   6.824  20.657  0.00  0.00    +0.000 Cl
ENDBRANCH  15  16
ENDBRANCH   4  15
TORSDOF 8
ENDMDL
MODEL 6
REMARK VINA RESULT:      -7.5      0.672      1.141
REMARK  Name = 
REMARK  9 active torsions:
REMARK  status: ('A' for Active; 'I' for Inactive)
REMARK    1  A    between atoms: C_1  and  C_2
REMARK    2  A    between atoms: C_2  and  C_3
REMARK    3  A    between atoms: C_3  and  C_4
REMARK    4  A    between atoms: C_4  and  C_5
REMARK    5  A    between atoms: C_5  and  C_6
REMARK    6  A    between atoms: C_6  and  C_7
REMARK    7  A    between atoms: C_10  and  O_11
REMARK    8  A    between atoms: O_11  and  C_12
REMARK    9  A    between atoms: C_19  and  O_20
REMARK                            x       y       z     vdW  Elec       q    Type
REMARK                         _______ _______ _______ _____ _____    ______ ____
ROOT
ATOM      1  C   UNL     1       6.336   4.808  16.131  0.00  0.00    +0.000 A 
ATOM      2  C   UNL     1       4.949   4.926  16.251  0.00  0.00    +0.000 A 
ATOM      3  C   UNL     1       4.356   5.108  17.492  0.00  0.00    +0.000 A 
ATOM      4  C   UNL     1       5.138   5.093  18.659  0.00  0.00    +0.000 A 
ATOM      5  C   UNL     1       6.521   5.020  18.536  0.00  0.00    +0.000 A 
ATOM      6  C   UNL     1       7.125   4.888  17.290  0.00  0.00    +0.000 A 
ENDROOT
BRANCH   5   7
ATOM      7  O   UNL     1       7.337   5.056  19.638  0.00  0.00    +0.000 OA
ATOM      8  H   UNL     1       6.770   4.855  20.402  0.00  0.00    +0.000 HD
ENDBRANCH   5   7
BRANCH   1   9
ATOM      9  C   UNL     1       6.957   4.572  14.782  0.00  0.00    +0.000 C 
BRANCH   9  10
ATOM     10  C   UNL     1       5.884   4.342  13.715  0.00  0.00    +0.000 C 
BRANCH  10  11
ATOM     11  C   UNL     1       6.428   3.536  12.541  0.00  0.00    +0.000 C 
BRANCH  11  12
ATOM     12  C   UNL     1       5.298   2.804  11.814  0.00  0.00    +0.000 C 
BRANCH  12  14
ATOM     13  C   UNL     1       7.326   1.535  11.028  0.00  0.00    +0.000 C 
ATOM     14  C   UNL     1       5.810   1.535  11.135  0.00  0.00    +0.000 C 
ENDBRANCH  12  14
ENDBRANCH  11  12
ENDBRANCH  10  11
ENDBRANCH   9  10
ENDBRANCH   1   9
BRANCH   4  15
ATOM     15  O   UNL     1       4.601   5.130  19.936  0.00  0.00    +0.000 OA
BRANCH  15  16
ATOM     16  C   UNL     1       3.385   4.508  20.143  0.00  0.00    +0.000 A 
ATOM     17  C   UNL     1       2.214   5.273  20.235  0.00  0.00    +0.000 A 
ATOM     18  C   UNL     1       0.993   4.698  20.432  0.00  0.00    +0.000 A 
ATOM     19  C   UNL     1       0.889   3.303  20.488  0.00  0.00    +0.000 A 
ATOM     20  C   UNL     1       2.027   2.517  20.374  0.00  0.00    +0.000 A 
ATOM     21  C   UNL     1       3.284   3.106  20.230  0.00  0.00    +0.000 A 
ATOM     22 CL   UNL     1       4.666   2.079  20.200  0.00  0.00    +0.000 Cl
ENDBRANCH  15  16
ENDBRANCH   4  15
TORSDOF 8
ENDMDL
MODEL 7
REMARK VINA RESULT:      -7.3      2.603      6.684
REMARK  Name = 
REMARK  9 active torsions:
REMARK  status: ('A' for Active; 'I' for Inactive)
REMARK    1  A    between atoms: C_1  and  C_2
REMARK    2  A    between atoms: C_2  and  C_3
REMARK    3  A    between atoms: C_3  and  C_4
REMARK    4  A    between atoms: C_4  and  C_5
REMARK    5  A    between atoms: C_5  and  C_6
REMARK    6  A    between atoms: C_6  and  C_7
REMARK    7  A    between atoms: C_10  and  O_11
REMARK    8  A    between atoms: O_11  and  C_12
REMARK    9  A    between atoms: C_19  and  O_20
REMARK                            x       y       z     vdW  Elec       q    Type
REMARK                         _______ _______ _______ _____ _____    ______ ____
ROOT
ATOM      1  C   UNL     1       4.759   5.509  18.546  0.00  0.00    +0.000 A 
ATOM      2  C   UNL     1       4.360   6.225  17.414  0.00  0.00    +0.000 A 
ATOM      3  C   UNL     1       5.139   6.230  16.266  0.00  0.00    +0.000 A 
ATOM      4  C   UNL     1       6.385   5.583  16.253  0.00  0.00    +0.000 A 
ATOM      5  C   UNL     1       6.761   4.834  17.363  0.00  0.00    +0.000 A 
ATOM      6  C   UNL     1       5.960   4.783  18.499  0.00  0.00    +0.000 A 
ENDROOT
BRANCH   5   7
ATOM      7  O   UNL     1       7.941   4.136  17.385  0.00  0.00    +0.000 OA
ATOM      8  H   UNL     1       8.636   4.771  17.141  0.00  0.00    +0.000 HD
ENDBRANCH   5   7
BRANCH   1   9
ATOM      9  C   UNL     1       3.920   5.546  19.794  0.00  0.00    +0.000 C 
BRANCH   9  10
ATOM     10  C   UNL     1       2.431   5.626  19.453  0.00  0.00    +0.000 C 
BRANCH  10  11
ATOM     11  C   UNL     1       1.762   4.259  19.546  0.00  0.00    +0.000 C 
BRANCH  11  12
ATOM     12  C   UNL     1       1.460   3.706  18.152  0.00  0.00    +0.000 C 
BRANCH  12  14
ATOM     13  C   UNL     1       3.378   2.079  18.265  0.00  0.00    +0.000 C 
ATOM     14  C   UNL     1       1.885   2.243  18.035  0.00  0.00    +0.000 C 
ENDBRANCH  12  14
ENDBRANCH  11  12
ENDBRANCH  10  11
ENDBRANCH   9  10
ENDBRANCH   1   9
BRANCH   4  15
ATOM     15  O   UNL     1       7.274   5.662  15.193  0.00  0.00    +0.000 OA
BRANCH  15  16
ATOM     16  C   UNL     1       7.005   4.906  14.068  0.00  0.00    +0.000 A 
ATOM     17  C   UNL     1       5.941   3.993  14.076  0.00  0.00    +0.000 A 
ATOM     18  C   UNL     1       5.636   3.233  12.985  0.00  0.00    +0.000 A 
ATOM     19  C   UNL     1       6.365   3.404  11.802  0.00  0.00    +0.000 A 
ATOM     20  C   UNL     1       7.407   4.318  11.754  0.00  0.00    +0.000 A 
ATOM     21  C   UNL     1       7.757   5.055  12.886  0.00  0.00    +0.000 A 
ATOM     22 CL   UNL     1       9.125   6.096  12.791  0.00  0.00    +0.000 Cl
ENDBRANCH  15  16
ENDBRANCH   4  15
TORSDOF 8
ENDMDL
MODEL 8
REMARK VINA RESULT:      -7.3      1.603      1.910
REMARK  Name = 
REMARK  9 active torsions:
REMARK  status: ('A' for Active; 'I' for Inactive)
REMARK    1  A    between atoms: C_1  and  C_2
REMARK    2  A    between atoms: C_2  and  C_3
REMARK    3  A    between atoms: C_3  and  C_4
REMARK    4  A    between atoms: C_4  and  C_5
REMARK    5  A    between atoms: C_5  and  C_6
REMARK    6  A    between atoms: C_6  and  C_7
REMARK    7  A    between atoms: C_10  and  O_11
REMARK    8  A    between atoms: O_11  and  C_12
REMARK    9  A    between atoms: C_19  and  O_20
REMARK                            x       y       z     vdW  Elec       q    Type
REMARK                         _______ _______ _______ _____ _____    ______ ____
ROOT
ATOM      1  C   UNL     1       6.712   4.951  15.238  0.00  0.00    +0.000 A 
ATOM      2  C   UNL     1       5.542   5.703  15.113  0.00  0.00    +0.000 A 
ATOM      3  C   UNL     1       4.720   5.926  16.209  0.00  0.00    +0.000 A 
ATOM      4  C   UNL     1       5.010   5.326  17.445  0.00  0.00    +0.000 A 
ATOM      5  C   UNL     1       6.198   4.615  17.581  0.00  0.00    +0.000 A 
ATOM      6  C   UNL     1       7.052   4.430  16.497  0.00  0.00    +0.000 A 
ENDROOT
BRANCH   5   7
ATOM      7  O   UNL     1       6.560   4.054  18.778  0.00  0.00    +0.000 OA
ATOM      8  H   UNL     1       7.210   4.658  19.175  0.00  0.00    +0.000 HD
ENDBRANCH   5   7
BRANCH   1   9
ATOM      9  C   UNL     1       7.570   4.688  14.031  0.00  0.00    +0.000 C 
BRANCH   9  10
ATOM     10  C   UNL     1       6.750   4.781  12.743  0.00  0.00    +0.000 C 
BRANCH  10  11
ATOM     11  C   UNL     1       6.186   3.424  12.339  0.00  0.00    +0.000 C 
BRANCH  11  12
ATOM     12  C   UNL     1       4.658   3.457  12.309  0.00  0.00    +0.000 C 
BRANCH  12  14
ATOM     13  C   UNL     1       3.305   3.917  10.236  0.00  0.00    +0.000 C 
ATOM     14  C   UNL     1       4.119   2.885  10.999  0.00  0.00    +0.000 C 
ENDBRANCH  12  14
ENDBRANCH  11  12
ENDBRANCH  10  11
ENDBRANCH   9  10
ENDBRANCH   1   9
BRANCH   4  15
ATOM     15  O   UNL     1       4.165   5.391  18.541  0.00  0.00    +0.000 OA
BRANCH  15  16
ATOM     16  C   UNL     1       3.140   4.468  18.621  0.00  0.00    +0.000 A 
ATOM     17  C   UNL     1       3.178   3.310  17.830  0.00  0.00    +0.000 A 
ATOM     18  C   UNL     1       2.192   2.370  17.882  0.00  0.00    +0.000 A 
ATOM     19  C   UNL     1       1.138   2.528  18.790  0.00  0.00    +0.000 A 
ATOM     20  C   UNL     1       1.085   3.650  19.605  0.00  0.00    +0.000 A 
ATOM     21  C   UNL     1       2.063   4.640  19.512  0.00  0.00    +0.000 A 
ATOM     22 CL   UNL     1       1.885   6.056  20.476  0.00  0.00    +0.000 Cl
ENDBRANCH  15  16
ENDBRANCH   4  15
TORSDOF 8
ENDMDL
MODEL 9
REMARK VINA RESULT:      -7.2      3.610      5.752
REMARK  Name = 
REMARK  9 active torsions:
REMARK  status: ('A' for Active; 'I' for Inactive)
REMARK    1  A    between atoms: C_1  and  C_2
REMARK    2  A    between atoms: C_2  and  C_3
REMARK    3  A    between atoms: C_3  and  C_4
REMARK    4  A    between atoms: C_4  and  C_5
REMARK    5  A    between atoms: C_5  and  C_6
REMARK    6  A    between atoms: C_6  and  C_7
REMARK    7  A    between atoms: C_10  and  O_11
REMARK    8  A    between atoms: O_11  and  C_12
REMARK    9  A    between atoms: C_19  and  O_20
REMARK                            x       y       z     vdW  Elec       q    Type
REMARK                         _______ _______ _______ _____ _____    ______ ____
ROOT
ATOM      1  C   UNL     1       6.986   6.697  18.061  0.00  0.00    +0.000 A 
ATOM      2  C   UNL     1       5.900   7.162  17.315  0.00  0.00    +0.000 A 
ATOM      3  C   UNL     1       4.746   6.400  17.190  0.00  0.00    +0.000 A 
ATOM      4  C   UNL     1       4.685   5.111  17.744  0.00  0.00    +0.000 A 
ATOM      5  C   UNL     1       5.748   4.667  18.524  0.00  0.00    +0.000 A 
ATOM      6  C   UNL     1       6.888   5.448  18.694  0.00  0.00    +0.000 A 
ENDROOT
BRANCH   5   7
ATOM      7  O   UNL     1       5.721   3.440  19.134  0.00  0.00    +0.000 OA
ATOM      8  H   UNL     1       6.316   2.868  18.619  0.00  0.00    +0.000 HD
ENDBRANCH   5   7
BRANCH   1   9
ATOM      9  C   UNL     1       8.242   7.519  18.153  0.00  0.00    +0.000 C 
BRANCH   9  10
ATOM     10  C   UNL     1       7.946   9.003  17.923  0.00  0.00    +0.000 C 
BRANCH  10  11
ATOM     11  C   UNL     1       8.953   9.892  18.645  0.00  0.00    +0.000 C 
BRANCH  11  12
ATOM     12  C   UNL     1       9.012  11.278  18.002  0.00  0.00    +0.000 C 
BRANCH  12  14
ATOM     13  C   UNL     1      10.855  12.711  18.945  0.00  0.00    +0.000 C 
ATOM     14  C   UNL     1      10.456  11.749  17.838  0.00  0.00    +0.000 C 
ENDBRANCH  12  14
ENDBRANCH  11  12
ENDBRANCH  10  11
ENDBRANCH   9  10
ENDBRANCH   1   9
BRANCH   4  15
ATOM     15  O   UNL     1       3.623   4.244  17.543  0.00  0.00    +0.000 OA
BRANCH  15  16
ATOM     16  C   UNL     1       2.795   3.978  18.617  0.00  0.00    +0.000 A 
ATOM     17  C   UNL     1       2.161   5.033  19.290  0.00  0.00    +0.000 A 
ATOM     18  C   UNL     1       1.332   4.814  20.350  0.00  0.00    +0.000 A 
ATOM     19  C   UNL     1       1.054   3.501  20.747  0.00  0.00    +0.000 A 
ATOM     20  C   UNL     1       1.645   2.435  20.085  0.00  0.00    +0.000 A 
ATOM     21  C   UNL     1       2.539   2.659  19.037  0.00  0.00    +0.000 A 
ATOM     22 CL   UNL     1       3.318   1.299  18.325  0.00  0.00    +0.000 Cl
ENDBRANCH  15  16
ENDBRANCH   4  15
TORSDOF 8
ENDMDL
