MODEL 1
REMARK VINA RESULT:      -6.8      0.000      0.000
REMARK  Name = 
REMARK  17 active torsions:
REMARK  status: ('A' for Active; 'I' for Inactive)
REMARK    1  A    between atoms: C_1  and  C_2
REMARK    2  A    between atoms: C_2  and  C_3
REMARK    3  A    between atoms: C_3  and  C_4
REMARK    4  A    between atoms: C_3  and  C_5
REMARK    5  A    between atoms: C_5  and  C_6
REMARK    6  A    between atoms: C_6  and  C_7
REMARK    7  A    between atoms: C_6  and  C_8
REMARK    8  A    between atoms: C_9  and  C_10
REMARK    9  A    between atoms: C_10  and  C_11
REMARK   10  A    between atoms: C_11  and  C_12
REMARK   11  A    between atoms: C_12  and  O_13
REMARK   12  A    between atoms: C_12  and  C_14
REMARK   13  A    between atoms: C_14  and  C_15
REMARK   14  A    between atoms: C_14  and  N_23
REMARK   15  A    between atoms: C_15  and  C_16
REMARK   16  A    between atoms: C_19  and  O_20
REMARK   17  A    between atoms: N_23  and  C_24
REMARK                            x       y       z     vdW  Elec       q    Type
REMARK                         _______ _______ _______ _____ _____    ______ ____
ROOT
ATOM      1  C   UNL     1       6.952   5.471  18.387  0.00  0.00    +0.000 C 
ENDROOT
BRANCH   1   2
ATOM      2  O   UNL     1       6.391   5.104  19.657  0.00  0.00    +0.000 OA
ATOM      3  H   UNL     1       7.026   4.514  20.099  0.00  0.00    +0.000 HD
ENDBRANCH   1   2
BRANCH   1   4
ATOM      4  C   UNL     1       6.630   6.964  18.196  0.00  0.00    +0.000 C 
BRANCH   4   5
ATOM      5  C   UNL     1       7.665   7.614  17.260  0.00  0.00    +0.000 C 
BRANCH   5   7
ATOM      6  C   UNL     1       8.944   9.213  18.713  0.00  0.00    +0.000 C 
ATOM      7  C   UNL     1       8.089   8.984  17.699  0.00  0.00    +0.000 C 
BRANCH   6   8
ATOM      8  C   UNL     1       9.488  10.585  19.036  0.00  0.00    +0.000 C 
ATOM      9  C   UNL     1       9.218  10.893  20.512  0.00  0.00    +0.000 C 
BRANCH   8  10
ATOM     10  C   UNL     1       8.892  11.657  18.101  0.00  0.00    +0.000 C 
BRANCH  10  11
ATOM     11  C   UNL     1       9.093  13.113  18.584  0.00  0.00    +0.000 C 
ATOM     12  C   UNL     1       8.009  14.021  17.989  0.00  0.00    +0.000 C 
BRANCH  11  14
ATOM     13  C   UNL     1      11.073  13.317  16.936  0.00  0.00    +0.000 C 
ATOM     14  C   UNL     1      10.500  13.678  18.300  0.00  0.00    +0.000 C 
ENDBRANCH  11  14
ENDBRANCH  10  11
ENDBRANCH   8  10
ENDBRANCH   6   8
ENDBRANCH   5   7
ENDBRANCH   4   5
ENDBRANCH   1   4
BRANCH   1  15
ATOM     15  C   UNL     1       6.440   4.492  17.266  0.00  0.00    +0.000 C 
BRANCH  15  16
ATOM     16  N   UNL     1       7.391   4.394  16.129  0.00  0.00    +0.000 NA
ATOM     17  C   UNL     1       6.830   4.662  14.814  0.00  0.00    +0.000 C 
ATOM     18  H   UNL     1       7.820   3.470  16.120  0.00  0.00    +0.000 HD
ENDBRANCH  15  16
BRANCH  15  19
ATOM     19  C   UNL     1       5.070   4.952  16.690  0.00  0.00    +0.000 C 
BRANCH  19  20
ATOM     20  C   UNL     1       3.817   4.324  17.283  0.00  0.00    +0.000 A 
ATOM     21  C   UNL     1       3.676   2.933  17.367  0.00  0.00    +0.000 A 
ATOM     22  C   UNL     1       2.571   2.361  18.008  0.00  0.00    +0.000 A 
ATOM     23  C   UNL     1       1.597   3.188  18.566  0.00  0.00    +0.000 A 
ATOM     24  C   UNL     1       1.707   4.566  18.475  0.00  0.00    +0.000 A 
ATOM     25  C   UNL     1       2.812   5.134  17.837  0.00  0.00    +0.000 A 
BRANCH  23  26
ATOM     26  O   UNL     1       0.519   2.672  19.228  0.00  0.00    +0.000 OA
ATOM     27  H   UNL     1       0.269   1.835  18.807  0.00  0.00    +0.000 HD
ENDBRANCH  23  26
ENDBRANCH  19  20
ENDBRANCH  15  19
ENDBRANCH   1  15
TORSDOF 13
ENDMDL
MODEL 2
REMARK VINA RESULT:      -6.7      4.666      7.332
REMARK  Name = 
REMARK  17 active torsions:
REMARK  status: ('A' for Active; 'I' for Inactive)
REMARK    1  A    between atoms: C_1  and  C_2
REMARK    2  A    between atoms: C_2  and  C_3
REMARK    3  A    between atoms: C_3  and  C_4
REMARK    4  A    between atoms: C_3  and  C_5
REMARK    5  A    between atoms: C_5  and  C_6
REMARK    6  A    between atoms: C_6  and  C_7
REMARK    7  A    between atoms: C_6  and  C_8
REMARK    8  A    between atoms: C_9  and  C_10
REMARK    9  A    between atoms: C_10  and  C_11
REMARK   10  A    between atoms: C_11  and  C_12
REMARK   11  A    between atoms: C_12  and  O_13
REMARK   12  A    between atoms: C_12  and  C_14
REMARK   13  A    between atoms: C_14  and  C_15
REMARK   14  A    between atoms: C_14  and  N_23
REMARK   15  A    between atoms: C_15  and  C_16
REMARK   16  A    between atoms: C_19  and  O_20
REMARK   17  A    between atoms: N_23  and  C_24
REMARK                            x       y       z     vdW  Elec       q    Type
REMARK                         _______ _______ _______ _____ _____    ______ ____
ROOT
ATOM      1  C   UNL     1       2.071   4.739  19.057  0.00  0.00    +0.000 C 
ENDROOT
BRANCH   1   2
ATOM      2  O   UNL     1       1.647   4.845  17.689  0.00  0.00    +0.000 OA
ATOM      3  H   UNL     1       0.879   5.443  17.665  0.00  0.00    +0.000 HD
ENDBRANCH   1   2
BRANCH   1   4
ATOM      4  C   UNL     1       2.555   6.144  19.461  0.00  0.00    +0.000 C 
BRANCH   4   5
ATOM      5  C   UNL     1       2.671   7.042  18.216  0.00  0.00    +0.000 C 
BRANCH   5   7
ATOM      6  C   UNL     1       1.044   8.930  17.918  0.00  0.00    +0.000 C 
ATOM      7  C   UNL     1       2.183   8.441  18.442  0.00  0.00    +0.000 C 
BRANCH   6   8
ATOM      8  C   UNL     1       0.481  10.283  18.288  0.00  0.00    +0.000 C 
ATOM      9  C   UNL     1       1.634  11.209  18.686  0.00  0.00    +0.000 C 
BRANCH   8  10
ATOM     10  C   UNL     1      -0.578  10.162  19.403  0.00  0.00    +0.000 C 
BRANCH  10  11
ATOM     11  C   UNL     1       0.002  10.105  20.836  0.00  0.00    +0.000 C 
ATOM     12  C   UNL     1      -0.200   8.707  21.433  0.00  0.00    +0.000 C 
BRANCH  11  14
ATOM     13  C   UNL     1      -1.037  10.681  23.130  0.00  0.00    +0.000 C 
ATOM     14  C   UNL     1      -0.554  11.191  21.779  0.00  0.00    +0.000 C 
ENDBRANCH  11  14
ENDBRANCH  10  11
ENDBRANCH   8  10
ENDBRANCH   6   8
ENDBRANCH   5   7
ENDBRANCH   4   5
ENDBRANCH   1   4
BRANCH   1  15
ATOM     15  C   UNL     1       3.107   3.566  19.213  0.00  0.00    +0.000 C 
BRANCH  15  16
ATOM     16  N   UNL     1       2.797   2.694  20.376  0.00  0.00    +0.000 NA
ATOM     17  C   UNL     1       1.438   2.781  20.884  0.00  0.00    +0.000 C 
ATOM     18  H   UNL     1       3.446   2.896  21.136  0.00  0.00    +0.000 HD
ENDBRANCH  15  16
BRANCH  15  19
ATOM     19  C   UNL     1       4.553   4.105  19.407  0.00  0.00    +0.000 C 
BRANCH  19  20
ATOM     20  C   UNL     1       5.380   4.353  18.153  0.00  0.00    +0.000 A 
ATOM     21  C   UNL     1       4.952   3.891  16.902  0.00  0.00    +0.000 A 
ATOM     22  C   UNL     1       5.661   4.211  15.738  0.00  0.00    +0.000 A 
ATOM     23  C   UNL     1       6.809   4.997  15.828  0.00  0.00    +0.000 A 
ATOM     24  C   UNL     1       7.261   5.446  17.057  0.00  0.00    +0.000 A 
ATOM     25  C   UNL     1       6.551   5.126  18.217  0.00  0.00    +0.000 A 
BRANCH  23  26
ATOM     26  O   UNL     1       7.512   5.359  14.714  0.00  0.00    +0.000 OA
ATOM     27  H   UNL     1       6.947   5.918  14.159  0.00  0.00    +0.000 HD
ENDBRANCH  23  26
ENDBRANCH  19  20
ENDBRANCH  15  19
ENDBRANCH   1  15
TORSDOF 13
ENDMDL
MODEL 3
REMARK VINA RESULT:      -6.7      2.233      2.936
REMARK  Name = 
REMARK  17 active torsions:
REMARK  status: ('A' for Active; 'I' for Inactive)
REMARK    1  A    between atoms: C_1  and  C_2
REMARK    2  A    between atoms: C_2  and  C_3
REMARK    3  A    between atoms: C_3  and  C_4
REMARK    4  A    between atoms: C_3  and  C_5
REMARK    5  A    between atoms: C_5  and  C_6
REMARK    6  A    between atoms: C_6  and  C_7
REMARK    7  A    between atoms: C_6  and  C_8
REMARK    8  A    between atoms: C_9  and  C_10
REMARK    9  A    between atoms: C_10  and  C_11
REMARK   10  A    between atoms: C_11  and  C_12
REMARK   11  A    between atoms: C_12  and  O_13
REMARK   12  A    between atoms: C_12  and  C_14
REMARK   13  A    between atoms: C_14  and  C_15
REMARK   14  A    between atoms: C_14  and  N_23
REMARK   15  A    between atoms: C_15  and  C_16
REMARK   16  A    between atoms: C_19  and  O_20
REMARK   17  A    between atoms: N_23  and  C_24
REMARK                            x       y       z     vdW  Elec       q    Type
REMARK                         _______ _______ _______ _____ _____    ______ ____
ROOT
ATOM      1  C   UNL     1       6.890   4.744  17.454  0.00  0.00    +0.000 C 
ENDROOT
BRANCH   1   2
ATOM      2  O   UNL     1       8.068   4.383  18.193  0.00  0.00    +0.000 OA
ATOM      3  H   UNL     1       8.568   3.745  17.654  0.00  0.00    +0.000 HD
ENDBRANCH   1   2
BRANCH   1   4
ATOM      4  C   UNL     1       7.176   6.134  16.855  0.00  0.00    +0.000 C 
BRANCH   4   5
ATOM      5  C   UNL     1       6.962   7.224  17.920  0.00  0.00    +0.000 C 
BRANCH   5   7
ATOM      6  C   UNL     1       8.024   9.498  17.910  0.00  0.00    +0.000 C 
ATOM      7  C   UNL     1       8.122   8.164  18.053  0.00  0.00    +0.000 C 
BRANCH   6   8
ATOM      8  C   UNL     1       9.164  10.444  18.209  0.00  0.00    +0.000 C 
ATOM      9  C   UNL     1       9.514  10.348  19.696  0.00  0.00    +0.000 C 
BRANCH   8  10
ATOM     10  C   UNL     1       8.818  11.887  17.786  0.00  0.00    +0.000 C 
BRANCH  10  11
ATOM     11  C   UNL     1       9.903  12.934  18.131  0.00  0.00    +0.000 C 
ATOM     12  C   UNL     1       9.254  14.295  18.409  0.00  0.00    +0.000 C 
BRANCH  11  14
ATOM     13  C   UNL     1      11.754  14.390  17.069  0.00  0.00    +0.000 C 
ATOM     14  C   UNL     1      11.012  13.061  17.067  0.00  0.00    +0.000 C 
ENDBRANCH  11  14
ENDBRANCH  10  11
ENDBRANCH   8  10
ENDBRANCH   6   8
ENDBRANCH   5   7
ENDBRANCH   4   5
ENDBRANCH   1   4
BRANCH   1  15
ATOM     15  C   UNL     1       5.618   4.621  18.371  0.00  0.00    +0.000 C 
BRANCH  15  16
ATOM     16  N   UNL     1       5.479   3.264  18.961  0.00  0.00    +0.000 NA
ATOM     17  C   UNL     1       4.206   2.985  19.605  0.00  0.00    +0.000 C 
ATOM     18  H   UNL     1       6.229   3.105  19.632  0.00  0.00    +0.000 HD
ENDBRANCH  15  16
BRANCH  15  19
ATOM     19  C   UNL     1       4.313   4.919  17.577  0.00  0.00    +0.000 C 
BRANCH  19  20
ATOM     20  C   UNL     1       3.442   6.065  18.071  0.00  0.00    +0.000 A 
ATOM     21  C   UNL     1       2.844   6.025  19.337  0.00  0.00    +0.000 A 
ATOM     22  C   UNL     1       2.131   7.125  19.830  0.00  0.00    +0.000 A 
ATOM     23  C   UNL     1       2.014   8.273  19.048  0.00  0.00    +0.000 A 
ATOM     24  C   UNL     1       2.580   8.326  17.785  0.00  0.00    +0.000 A 
ATOM     25  C   UNL     1       3.292   7.228  17.296  0.00  0.00    +0.000 A 
BRANCH  23  26
ATOM     26  O   UNL     1       1.355   9.380  19.502  0.00  0.00    +0.000 OA
ATOM     27  H   UNL     1       1.081   9.222  20.419  0.00  0.00    +0.000 HD
ENDBRANCH  23  26
ENDBRANCH  19  20
ENDBRANCH  15  19
ENDBRANCH   1  15
TORSDOF 13
ENDMDL
MODEL 4
REMARK VINA RESULT:      -6.6      4.907      7.377
REMARK  Name = 
REMARK  17 active torsions:
REMARK  status: ('A' for Active; 'I' for Inactive)
REMARK    1  A    between atoms: C_1  and  C_2
REMARK    2  A    between atoms: C_2  and  C_3
REMARK    3  A    between atoms: C_3  and  C_4
REMARK    4  A    between atoms: C_3  and  C_5
REMARK    5  A    between atoms: C_5  and  C_6
REMARK    6  A    between atoms: C_6  and  C_7
REMARK    7  A    between atoms: C_6  and  C_8
REMARK    8  A    between atoms: C_9  and  C_10
REMARK    9  A    between atoms: C_10  and  C_11
REMARK   10  A    between atoms: C_11  and  C_12
REMARK   11  A    between atoms: C_12  and  O_13
REMARK   12  A    between atoms: C_12  and  C_14
REMARK   13  A    between atoms: C_14  and  C_15
REMARK   14  A    between atoms: C_14  and  N_23
REMARK   15  A    between atoms: C_15  and  C_16
REMARK   16  A    between atoms: C_19  and  O_20
REMARK   17  A    between atoms: N_23  and  C_24
REMARK                            x       y       z     vdW  Elec       q    Type
REMARK                         _______ _______ _______ _____ _____    ______ ____
ROOT
ATOM      1  C   UNL     1       1.811   4.416  18.777  0.00  0.00    +0.000 C 
ENDROOT
BRANCH   1   2
ATOM      2  O   UNL     1       1.258   4.440  17.452  0.00  0.00    +0.000 OA
ATOM      3  H   UNL     1       0.709   5.241  17.378  0.00  0.00    +0.000 HD
ENDBRANCH   1   2
BRANCH   1   4
ATOM      4  C   UNL     1       2.166   5.876  19.115  0.00  0.00    +0.000 C 
BRANCH   4   5
ATOM      5  C   UNL     1       1.710   6.214  20.546  0.00  0.00    +0.000 C 
BRANCH   5   7
ATOM      6  C   UNL     1       0.463   8.239  21.350  0.00  0.00    +0.000 C 
ATOM      7  C   UNL     1       1.554   7.685  20.789  0.00  0.00    +0.000 C 
BRANCH   6   8
ATOM      8  C   UNL     1       0.388   9.697  21.740  0.00  0.00    +0.000 C 
ATOM      9  C   UNL     1      -0.206   9.806  23.147  0.00  0.00    +0.000 C 
BRANCH   8  10
ATOM     10  C   UNL     1      -0.417  10.511  20.706  0.00  0.00    +0.000 C 
BRANCH  10  11
ATOM     11  C   UNL     1       0.368  10.872  19.422  0.00  0.00    +0.000 C 
ATOM     12  C   UNL     1       0.219  12.367  19.115  0.00  0.00    +0.000 C 
BRANCH  11  14
ATOM     13  C   UNL     1      -1.463  10.147  17.750  0.00  0.00    +0.000 C 
ATOM     14  C   UNL     1      -0.013  10.019  18.196  0.00  0.00    +0.000 C 
ENDBRANCH  11  14
ENDBRANCH  10  11
ENDBRANCH   8  10
ENDBRANCH   6   8
ENDBRANCH   5   7
ENDBRANCH   4   5
ENDBRANCH   1   4
BRANCH   1  15
ATOM     15  C   UNL     1       2.983   3.370  18.855  0.00  0.00    +0.000 C 
BRANCH  15  16
ATOM     16  N   UNL     1       2.783   2.382  19.947  0.00  0.00    +0.000 NA
ATOM     17  C   UNL     1       1.559   2.533  20.716  0.00  0.00    +0.000 C 
ATOM     18  H   UNL     1       3.578   2.411  20.584  0.00  0.00    +0.000 HD
ENDBRANCH  15  16
BRANCH  15  19
ATOM     19  C   UNL     1       4.353   4.067  19.104  0.00  0.00    +0.000 C 
BRANCH  19  20
ATOM     20  C   UNL     1       5.248   4.297  17.895  0.00  0.00    +0.000 A 
ATOM     21  C   UNL     1       4.755   4.154  16.592  0.00  0.00    +0.000 A 
ATOM     22  C   UNL     1       5.552   4.468  15.485  0.00  0.00    +0.000 A 
ATOM     23  C   UNL     1       6.853   4.927  15.683  0.00  0.00    +0.000 A 
ATOM     24  C   UNL     1       7.367   5.055  16.962  0.00  0.00    +0.000 A 
ATOM     25  C   UNL     1       6.570   4.742  18.066  0.00  0.00    +0.000 A 
BRANCH  23  26
ATOM     26  O   UNL     1       7.653   5.275  14.632  0.00  0.00    +0.000 OA
ATOM     27  H   UNL     1       7.697   6.243  14.584  0.00  0.00    +0.000 HD
ENDBRANCH  23  26
ENDBRANCH  19  20
ENDBRANCH  15  19
ENDBRANCH   1  15
TORSDOF 13
ENDMDL
MODEL 5
REMARK VINA RESULT:      -6.6      1.516      2.578
REMARK  Name = 
REMARK  17 active torsions:
REMARK  status: ('A' for Active; 'I' for Inactive)
REMARK    1  A    between atoms: C_1  and  C_2
REMARK    2  A    between atoms: C_2  and  C_3
REMARK    3  A    between atoms: C_3  and  C_4
REMARK    4  A    between atoms: C_3  and  C_5
REMARK    5  A    between atoms: C_5  and  C_6
REMARK    6  A    between atoms: C_6  and  C_7
REMARK    7  A    between atoms: C_6  and  C_8
REMARK    8  A    between atoms: C_9  and  C_10
REMARK    9  A    between atoms: C_10  and  C_11
REMARK   10  A    between atoms: C_11  and  C_12
REMARK   11  A    between atoms: C_12  and  O_13
REMARK   12  A    between atoms: C_12  and  C_14
REMARK   13  A    between atoms: C_14  and  C_15
REMARK   14  A    between atoms: C_14  and  N_23
REMARK   15  A    between atoms: C_15  and  C_16
REMARK   16  A    between atoms: C_19  and  O_20
REMARK   17  A    between atoms: N_23  and  C_24
REMARK                            x       y       z     vdW  Elec       q    Type
REMARK                         _______ _______ _______ _____ _____    ______ ____
ROOT
ATOM      1  C   UNL     1       7.488   5.357  17.514  0.00  0.00    +0.000 C 
ENDROOT
BRANCH   1   2
ATOM      2  O   UNL     1       8.339   4.359  18.099  0.00  0.00    +0.000 OA
ATOM      3  H   UNL     1       8.659   4.708  18.950  0.00  0.00    +0.000 HD
ENDBRANCH   1   2
BRANCH   1   4
ATOM      4  C   UNL     1       7.553   6.574  18.456  0.00  0.00    +0.000 C 
BRANCH   4   5
ATOM      5  C   UNL     1       7.772   7.862  17.641  0.00  0.00    +0.000 C 
BRANCH   5   7
ATOM      6  C   UNL     1       9.047  10.004  17.934  0.00  0.00    +0.000 C 
ATOM      7  C   UNL     1       8.327   8.993  18.454  0.00  0.00    +0.000 C 
BRANCH   6   8
ATOM      8  C   UNL     1       9.457  11.219  18.734  0.00  0.00    +0.000 C 
ATOM      9  C   UNL     1      10.864  11.646  18.305  0.00  0.00    +0.000 C 
BRANCH   8  10
ATOM     10  C   UNL     1       9.369  10.945  20.249  0.00  0.00    +0.000 C 
BRANCH  10  11
ATOM     11  C   UNL     1       8.810  12.122  21.083  0.00  0.00    +0.000 C 
ATOM     12  C   UNL     1       9.927  13.125  21.398  0.00  0.00    +0.000 C 
BRANCH  11  14
ATOM     13  C   UNL     1       8.784  12.072  23.666  0.00  0.00    +0.000 C 
ATOM     14  C   UNL     1       8.083  11.686  22.371  0.00  0.00    +0.000 C 
ENDBRANCH  11  14
ENDBRANCH  10  11
ENDBRANCH   8  10
ENDBRANCH   6   8
ENDBRANCH   5   7
ENDBRANCH   4   5
ENDBRANCH   1   4
BRANCH   1  15
ATOM     15  C   UNL     1       6.061   4.756  17.238  0.00  0.00    +0.000 C 
BRANCH  15  16
ATOM     16  N   UNL     1       5.498   5.217  15.942  0.00  0.00    +0.000 NA
ATOM     17  C   UNL     1       6.349   5.019  14.780  0.00  0.00    +0.000 C 
ATOM     18  H   UNL     1       5.256   6.205  16.007  0.00  0.00    +0.000 HD
ENDBRANCH  15  16
BRANCH  15  19
ATOM     19  C   UNL     1       5.050   5.153  18.352  0.00  0.00    +0.000 C 
BRANCH  19  20
ATOM     20  C   UNL     1       3.759   4.351  18.441  0.00  0.00    +0.000 A 
ATOM     21  C   UNL     1       2.566   4.839  17.893  0.00  0.00    +0.000 A 
ATOM     22  C   UNL     1       1.407   4.053  17.885  0.00  0.00    +0.000 A 
ATOM     23  C   UNL     1       1.442   2.771  18.431  0.00  0.00    +0.000 A 
ATOM     24  C   UNL     1       2.606   2.279  18.997  0.00  0.00    +0.000 A 
ATOM     25  C   UNL     1       3.762   3.064  19.003  0.00  0.00    +0.000 A 
BRANCH  23  26
ATOM     26  O   UNL     1       0.344   1.960  18.414  0.00  0.00    +0.000 OA
ATOM     27  H   UNL     1       0.112   1.771  17.492  0.00  0.00    +0.000 HD
ENDBRANCH  23  26
ENDBRANCH  19  20
ENDBRANCH  15  19
ENDBRANCH   1  15
TORSDOF 13
ENDMDL
MODEL 6
REMARK VINA RESULT:      -6.6      5.226      7.824
REMARK  Name = 
REMARK  17 active torsions:
REMARK  status: ('A' for Active; 'I' for Inactive)
REMARK    1  A    between atoms: C_1  and  C_2
REMARK    2  A    between atoms: C_2  and  C_3
REMARK    3  A    between atoms: C_3  and  C_4
REMARK    4  A    between atoms: C_3  and  C_5
REMARK    5  A    between atoms: C_5  and  C_6
REMARK    6  A    between atoms: C_6  and  C_7
REMARK    7  A    between atoms: C_6  and  C_8
REMARK    8  A    between atoms: C_9  and  C_10
REMARK    9  A    between atoms: C_10  and  C_11
REMARK   10  A    between atoms: C_11  and  C_12
REMARK   11  A    between atoms: C_12  and  O_13
REMARK   12  A    between atoms: C_12  and  C_14
REMARK   13  A    between atoms: C_14  and  C_15
REMARK   14  A    between atoms: C_14  and  N_23
REMARK   15  A    between atoms: C_15  and  C_16
REMARK   16  A    between atoms: C_19  and  O_20
REMARK   17  A    between atoms: N_23  and  C_24
REMARK                            x       y       z     vdW  Elec       q    Type
REMARK                         _______ _______ _______ _____ _____    ______ ____
ROOT
ATOM      1  C   UNL     1       3.818   3.641  17.731  0.00  0.00    +0.000 C 
ENDROOT
BRANCH   1   2
ATOM      2  O   UNL     1       4.874   3.149  18.571  0.00  0.00    +0.000 OA
ATOM      3  H   UNL     1       4.682   2.215  18.767  0.00  0.00    +0.000 HD
ENDBRANCH   1   2
BRANCH   1   4
ATOM      4  C   UNL     1       4.494   4.100  16.426  0.00  0.00    +0.000 C 
BRANCH   4   5
ATOM      5  C   UNL     1       5.950   4.516  16.702  0.00  0.00    +0.000 C 
BRANCH   5   7
ATOM      6  C   UNL     1       6.543   4.499  14.263  0.00  0.00    +0.000 C 
ATOM      7  C   UNL     1       6.871   4.263  15.547  0.00  0.00    +0.000 C 
BRANCH   6   8
ATOM      8  C   UNL     1       7.534   4.397  13.128  0.00  0.00    +0.000 C 
ATOM      9  C   UNL     1       8.207   5.759  12.930  0.00  0.00    +0.000 C 
BRANCH   8  10
ATOM     10  C   UNL     1       6.856   3.892  11.838  0.00  0.00    +0.000 C 
BRANCH  10  11
ATOM     11  C   UNL     1       5.594   3.028  12.071  0.00  0.00    +0.000 C 
ATOM     12  C   UNL     1       5.748   1.669  11.379  0.00  0.00    +0.000 C 
BRANCH  11  14
ATOM     13  C   UNL     1       3.447   2.939  10.637  0.00  0.00    +0.000 C 
ATOM     14  C   UNL     1       4.279   3.715  11.648  0.00  0.00    +0.000 C 
ENDBRANCH  11  14
ENDBRANCH  10  11
ENDBRANCH   8  10
ENDBRANCH   6   8
ENDBRANCH   5   7
ENDBRANCH   4   5
ENDBRANCH   1   4
BRANCH   1  15
ATOM     15  C   UNL     1       2.971   4.719  18.503  0.00  0.00    +0.000 C 
BRANCH  15  16
ATOM     16  N   UNL     1       1.525   4.379  18.537  0.00  0.00    +0.000 NA
ATOM     17  C   UNL     1       1.207   2.967  18.396  0.00  0.00    +0.000 C 
ATOM     18  H   UNL     1       1.034   4.900  17.812  0.00  0.00    +0.000 HD
ENDBRANCH  15  16
BRANCH  15  19
ATOM     19  C   UNL     1       3.103   6.124  17.846  0.00  0.00    +0.000 C 
BRANCH  19  20
ATOM     20  C   UNL     1       2.441   7.294  18.561  0.00  0.00    +0.000 A 
ATOM     21  C   UNL     1       1.992   8.414  17.851  0.00  0.00    +0.000 A 
ATOM     22  C   UNL     1       1.291   9.439  18.497  0.00  0.00    +0.000 A 
ATOM     23  C   UNL     1       1.039   9.342  19.865  0.00  0.00    +0.000 A 
ATOM     24  C   UNL     1       1.493   8.253  20.589  0.00  0.00    +0.000 A 
ATOM     25  C   UNL     1       2.192   7.231  19.942  0.00  0.00    +0.000 A 
BRANCH  23  26
ATOM     26  O   UNL     1       0.331  10.304  20.529  0.00  0.00    +0.000 OA
ATOM     27  H   UNL     1      -0.383  10.616  19.951  0.00  0.00    +0.000 HD
ENDBRANCH  23  26
ENDBRANCH  19  20
ENDBRANCH  15  19
ENDBRANCH   1  15
TORSDOF 13
ENDMDL
MODEL 7
REMARK VINA RESULT:      -6.5      1.892      2.259
REMARK  Name = 
REMARK  17 active torsions:
REMARK  status: ('A' for Active; 'I' for Inactive)
REMARK    1  A    between atoms: C_1  and  C_2
REMARK    2  A    between atoms: C_2  and  C_3
REMARK    3  A    between atoms: C_3  and  C_4
REMARK    4  A    between atoms: C_3  and  C_5
REMARK    5  A    between atoms: C_5  and  C_6
REMARK    6  A    between atoms: C_6  and  C_7
REMARK    7  A    between atoms: C_6  and  C_8
REMARK    8  A    between atoms: C_9  and  C_10
REMARK    9  A    between atoms: C_10  and  C_11
REMARK   10  A    between atoms: C_11  and  C_12
REMARK   11  A    between atoms: C_12  and  O_13
REMARK   12  A    between atoms: C_12  and  C_14
REMARK   13  A    between atoms: C_14  and  C_15
REMARK   14  A    between atoms: C_14  and  N_23
REMARK   15  A    between atoms: C_15  and  C_16
REMARK   16  A    between atoms: C_19  and  O_20
REMARK   17  A    between atoms: N_23  and  C_24
REMARK                            x       y       z     vdW  Elec       q    Type
REMARK                         _______ _______ _______ _____ _____    ______ ____
ROOT
ATOM      1  C   UNL     1       6.128   6.671  17.420  0.00  0.00    +0.000 C 
ENDROOT
BRANCH   1   2
ATOM      2  O   UNL     1       5.499   7.017  16.175  0.00  0.00    +0.000 OA
ATOM      3  H   UNL     1       4.750   7.605  16.379  0.00  0.00    +0.000 HD
ENDBRANCH   1   2
BRANCH   1   4
ATOM      4  C   UNL     1       7.626   6.977  17.237  0.00  0.00    +0.000 C 
BRANCH   4   5
ATOM      5  C   UNL     1       8.120   7.898  18.367  0.00  0.00    +0.000 C 
BRANCH   5   7
ATOM      6  C   UNL     1       9.042  10.219  18.617  0.00  0.00    +0.000 C 
ATOM      7  C   UNL     1       8.303   9.323  17.938  0.00  0.00    +0.000 C 
BRANCH   6   8
ATOM      8  C   UNL     1       9.352  11.600  18.087  0.00  0.00    +0.000 C 
ATOM      9  C   UNL     1      10.835  11.668  17.713  0.00  0.00    +0.000 C 
BRANCH   8  10
ATOM     10  C   UNL     1       8.959  12.690  19.106  0.00  0.00    +0.000 C 
BRANCH  10  11
ATOM     11  C   UNL     1      10.125  13.190  19.992  0.00  0.00    +0.000 C 
ATOM     12  C   UNL     1       9.898  12.771  21.449  0.00  0.00    +0.000 C 
BRANCH  11  14
ATOM     13  C   UNL     1      11.840  15.122  20.027  0.00  0.00    +0.000 C 
ATOM     14  C   UNL     1      10.382  14.707  19.889  0.00  0.00    +0.000 C 
ENDBRANCH  11  14
ENDBRANCH  10  11
ENDBRANCH   8  10
ENDBRANCH   6   8
ENDBRANCH   5   7
ENDBRANCH   4   5
ENDBRANCH   1   4
BRANCH   1  15
ATOM     15  C   UNL     1       5.754   5.198  17.823  0.00  0.00    +0.000 C 
BRANCH  15  16
ATOM     16  N   UNL     1       6.476   4.190  17.004  0.00  0.00    +0.000 NA
ATOM     17  C   UNL     1       5.771   3.717  15.823  0.00  0.00    +0.000 C 
ATOM     18  H   UNL     1       6.719   3.389  17.584  0.00  0.00    +0.000 HD
ENDBRANCH  15  16
BRANCH  15  19
ATOM     19  C   UNL     1       4.230   4.930  17.654  0.00  0.00    +0.000 C 
BRANCH  19  20
ATOM     20  C   UNL     1       3.497   4.302  18.830  0.00  0.00    +0.000 A 
ATOM     21  C   UNL     1       3.933   3.097  19.394  0.00  0.00    +0.000 A 
ATOM     22  C   UNL     1       3.321   2.577  20.541  0.00  0.00    +0.000 A 
ATOM     23  C   UNL     1       2.261   3.269  21.126  0.00  0.00    +0.000 A 
ATOM     24  C   UNL     1       1.800   4.451  20.572  0.00  0.00    +0.000 A 
ATOM     25  C   UNL     1       2.414   4.968  19.428  0.00  0.00    +0.000 A 
BRANCH  23  26
ATOM     26  O   UNL     1       1.656   2.814  22.263  0.00  0.00    +0.000 OA
ATOM     27  H   UNL     1       0.961   3.442  22.517  0.00  0.00    +0.000 HD
ENDBRANCH  23  26
ENDBRANCH  19  20
ENDBRANCH  15  19
ENDBRANCH   1  15
TORSDOF 13
ENDMDL
MODEL 8
REMARK VINA RESULT:      -6.5      4.578      5.939
REMARK  Name = 
REMARK  17 active torsions:
REMARK  status: ('A' for Active; 'I' for Inactive)
REMARK    1  A    between atoms: C_1  and  C_2
REMARK    2  A    between atoms: C_2  and  C_3
REMARK    3  A    between atoms: C_3  and  C_4
REMARK    4  A    between atoms: C_3  and  C_5
REMARK    5  A    between atoms: C_5  and  C_6
REMARK    6  A    between atoms: C_6  and  C_7
REMARK    7  A    between atoms: C_6  and  C_8
REMARK    8  A    between atoms: C_9  and  C_10
REMARK    9  A    between atoms: C_10  and  C_11
REMARK   10  A    between atoms: C_11  and  C_12
REMARK   11  A    between atoms: C_12  and  O_13
REMARK   12  A    between atoms: C_12  and  C_14
REMARK   13  A    between atoms: C_14  and  C_15
REMARK   14  A    between atoms: C_14  and  N_23
REMARK   15  A    between atoms: C_15  and  C_16
REMARK   16  A    between atoms: C_19  and  O_20
REMARK   17  A    between atoms: N_23  and  C_24
REMARK                            x       y       z     vdW  Elec       q    Type
REMARK                         _______ _______ _______ _____ _____    ______ ____
ROOT
ATOM      1  C   UNL     1       4.685   6.061  16.458  0.00  0.00    +0.000 C 
ENDROOT
BRANCH   1   2
ATOM      2  O   UNL     1       5.662   6.656  15.590  0.00  0.00    +0.000 OA
ATOM      3  H   UNL     1       6.450   6.852  16.126  0.00  0.00    +0.000 HD
ENDBRANCH   1   2
BRANCH   1   4
ATOM      4  C   UNL     1       4.171   7.198  17.359  0.00  0.00    +0.000 C 
BRANCH   4   5
ATOM      5  C   UNL     1       2.882   6.762  18.079  0.00  0.00    +0.000 C 
BRANCH   5   7
ATOM      6  C   UNL     1       2.125   9.153  17.973  0.00  0.00    +0.000 C 
ATOM      7  C   UNL     1       2.001   7.909  18.472  0.00  0.00    +0.000 C 
BRANCH   6   8
ATOM      8  C   UNL     1       1.130  10.255  18.252  0.00  0.00    +0.000 C 
ATOM      9  C   UNL     1       1.890  11.563  18.491  0.00  0.00    +0.000 C 
BRANCH   8  10
ATOM     10  C   UNL     1       0.211   9.892  19.437  0.00  0.00    +0.000 C 
BRANCH  10  11
ATOM     11  C   UNL     1       0.618  10.535  20.784  0.00  0.00    +0.000 C 
ATOM     12  C   UNL     1       1.087   9.454  21.765  0.00  0.00    +0.000 C 
BRANCH  11  14
ATOM     13  C   UNL     1      -0.083  12.855  21.679  0.00  0.00    +0.000 C 
ATOM     14  C   UNL     1      -0.484  11.410  21.416  0.00  0.00    +0.000 C 
ENDBRANCH  11  14
ENDBRANCH  10  11
ENDBRANCH   8  10
ENDBRANCH   6   8
ENDBRANCH   5   7
ENDBRANCH   4   5
ENDBRANCH   1   4
BRANCH   1  15
ATOM     15  C   UNL     1       5.298   4.809  17.185  0.00  0.00    +0.000 C 
BRANCH  15  16
ATOM     16  N   UNL     1       6.597   4.395  16.594  0.00  0.00    +0.000 NA
ATOM     17  C   UNL     1       7.742   4.450  17.488  0.00  0.00    +0.000 C 
ATOM     18  H   UNL     1       6.794   4.964  15.772  0.00  0.00    +0.000 HD
ENDBRANCH  15  16
BRANCH  15  19
ATOM     19  C   UNL     1       4.342   3.583  17.113  0.00  0.00    +0.000 C 
BRANCH  19  20
ATOM     20  C   UNL     1       3.327   3.422  18.235  0.00  0.00    +0.000 A 
ATOM     21  C   UNL     1       2.006   3.040  17.966  0.00  0.00    +0.000 A 
ATOM     22  C   UNL     1       1.105   2.792  19.008  0.00  0.00    +0.000 A 
ATOM     23  C   UNL     1       1.528   2.929  20.329  0.00  0.00    +0.000 A 
ATOM     24  C   UNL     1       2.823   3.326  20.616  0.00  0.00    +0.000 A 
ATOM     25  C   UNL     1       3.721   3.571  19.575  0.00  0.00    +0.000 A 
BRANCH  23  26
ATOM     26  O   UNL     1       0.691   2.665  21.376  0.00  0.00    +0.000 OA
ATOM     27  H   UNL     1       0.025   3.369  21.425  0.00  0.00    +0.000 HD
ENDBRANCH  23  26
ENDBRANCH  19  20
ENDBRANCH  15  19
ENDBRANCH   1  15
TORSDOF 13
ENDMDL
MODEL 9
REMARK VINA RESULT:      -6.5      3.169      6.163
REMARK  Name = 
REMARK  17 active torsions:
REMARK  status: ('A' for Active; 'I' for Inactive)
REMARK    1  A    between atoms: C_1  and  C_2
REMARK    2  A    between atoms: C_2  and  C_3
REMARK    3  A    between atoms: C_3  and  C_4
REMARK    4  A    between atoms: C_3  and  C_5
REMARK    5  A    between atoms: C_5  and  C_6
REMARK    6  A    between atoms: C_6  and  C_7
REMARK    7  A    between atoms: C_6  and  C_8
REMARK    8  A    between atoms: C_9  and  C_10
REMARK    9  A    between atoms: C_10  and  C_11
REMARK   10  A    between atoms: C_11  and  C_12
REMARK   11  A    between atoms: C_12  and  O_13
REMARK   12  A    between atoms: C_12  and  C_14
REMARK   13  A    between atoms: C_14  and  C_15
REMARK   14  A    between atoms: C_14  and  N_23
REMARK   15  A    between atoms: C_15  and  C_16
REMARK   16  A    between atoms: C_19  and  O_20
REMARK   17  A    between atoms: N_23  and  C_24
REMARK                            x       y       z     vdW  Elec       q    Type
REMARK                         _______ _______ _______ _____ _____    ______ ____
ROOT
ATOM      1  C   UNL     1       3.414   2.579  19.437  0.00  0.00    +0.000 C 
ENDROOT
BRANCH   1   2
ATOM      2  O   UNL     1       4.843   2.679  19.535  0.00  0.00    +0.000 OA
ATOM      3  H   UNL     1       5.047   3.165  20.353  0.00  0.00    +0.000 HD
ENDBRANCH   1   2
BRANCH   1   4
ATOM      4  C   UNL     1       3.112   2.258  17.962  0.00  0.00    +0.000 C 
BRANCH   4   5
ATOM      5  C   UNL     1       3.181   3.542  17.116  0.00  0.00    +0.000 C 
BRANCH   5   7
ATOM      6  C   UNL     1       4.994   5.014  16.194  0.00  0.00    +0.000 C 
ATOM      7  C   UNL     1       4.534   3.792  16.521  0.00  0.00    +0.000 C 
BRANCH   6   8
ATOM      8  C   UNL     1       6.416   5.267  15.752  0.00  0.00    +0.000 C 
ATOM      9  C   UNL     1       6.680   4.491  14.458  0.00  0.00    +0.000 C 
BRANCH   8  10
ATOM     10  C   UNL     1       7.420   4.901  16.864  0.00  0.00    +0.000 C 
BRANCH  10  11
ATOM     11  C   UNL     1       7.675   6.025  17.895  0.00  0.00    +0.000 C 
ATOM     12  C   UNL     1       7.098   5.631  19.260  0.00  0.00    +0.000 C 
BRANCH  11  14
ATOM     13  C   UNL     1       8.037   8.583  17.843  0.00  0.00    +0.000 C 
ATOM     14  C   UNL     1       7.150   7.407  17.456  0.00  0.00    +0.000 C 
ENDBRANCH  11  14
ENDBRANCH  10  11
ENDBRANCH   8  10
ENDBRANCH   6   8
ENDBRANCH   5   7
ENDBRANCH   4   5
ENDBRANCH   1   4
BRANCH   1  15
ATOM     15  C   UNL     1       2.739   3.871  20.029  0.00  0.00    +0.000 C 
BRANCH  15  16
ATOM     16  N   UNL     1       1.337   4.036  19.565  0.00  0.00    +0.000 NA
ATOM     17  C   UNL     1       0.551   2.816  19.490  0.00  0.00    +0.000 C 
ATOM     18  H   UNL     1       1.331   4.488  18.651  0.00  0.00    +0.000 HD
ENDBRANCH  15  16
BRANCH  15  19
ATOM     19  C   UNL     1       3.518   5.156  19.624  0.00  0.00    +0.000 C 
BRANCH  19  20
ATOM     20  C   UNL     1       2.724   6.451  19.524  0.00  0.00    +0.000 A 
ATOM     21  C   UNL     1       1.998   6.940  20.617  0.00  0.00    +0.000 A 
ATOM     22  C   UNL     1       1.356   8.183  20.553  0.00  0.00    +0.000 A 
ATOM     23  C   UNL     1       1.440   8.940  19.386  0.00  0.00    +0.000 A 
ATOM     24  C   UNL     1       2.134   8.464  18.286  0.00  0.00    +0.000 A 
ATOM     25  C   UNL     1       2.776   7.225  18.353  0.00  0.00    +0.000 A 
BRANCH  23  26
ATOM     26  O   UNL     1       0.856  10.171  19.292  0.00  0.00    +0.000 OA
ATOM     27  H   UNL     1       1.549  10.847  19.339  0.00  0.00    +0.000 HD
ENDBRANCH  23  26
ENDBRANCH  19  20
ENDBRANCH  15  19
ENDBRANCH   1  15
TORSDOF 13
ENDMDL
